[H]c1nc(N([H])[H])c2c(-c3sc4c(OC([H])([H])[H])c([H])c(C([H])([H])[H])c([H])c4c3[H])c(C([H])([H])OC([H])([H])C([H])([H])[H])c(C(=O)N3C([H])([H])C([H])([H])OC([H])([H])C3([H])[H])n2n1


 36 40  0  0  0  0  0  0  0  0999 V2000
  154.2879  138.3595  184.5957 C   0  0  0  0  0  0  0  0  0  0  0  0
  154.4792  139.4623  183.9180 C   0  0  0  0  0  0  0  0  0  0  0  0
  153.4708  139.6038  182.8867 C   0  0  0  0  0  0  0  0  0  0  0  0
  153.2147  140.6870  182.0355 C   0  0  0  0  0  0  0  0  0  0  0  0
  154.0418  141.8067  182.0489 N   0  0  0  0  0  0  0  0  0  0  0  0
  152.0987  140.5877  181.3072 N   0  0  0  0  0  0  0  0  0  0  0  0
  151.3135  139.5394  181.4137 C   0  0  0  0  0  0  0  0  0  0  0  0
  151.5819  138.4755  182.2523 N   0  0  0  0  0  0  0  0  0  0  0  0
  152.6989  138.5077  182.9891 N   0  0  0  0  0  0  0  0  0  0  0  0
  153.1532  137.7177  183.9565 C   0  0  0  0  0  0  0  0  0  0  0  0
  154.6011  142.1375  181.2340 H   0  0  0  0  0  0  0  0  0  0  0  0
  154.1251  142.4260  182.8861 H   0  0  0  0  0  0  0  0  0  0  0  0
  155.7360  140.2726  183.7784 C   0  0  0  0  0  0  0  0  0  0  0  0
  156.1830  140.5043  182.4287 C   0  0  0  0  0  0  0  0  0  0  0  0
  157.2402  141.2186  182.2169 C   0  0  0  0  0  0  0  0  0  0  0  0
  157.7885  141.6456  180.9542 C   0  0  0  0  0  0  0  0  0  0  0  0
  158.8551  142.4998  180.8974 C   0  0  0  0  0  0  0  0  0  0  0  0
  159.2460  142.9383  179.4798 C   0  0  0  0  0  0  0  0  0  0  0  0
  159.4970  143.0253  181.9646 C   0  0  0  0  0  0  0  0  0  0  0  0
  158.9603  142.6004  183.2242 C   0  0  0  0  0  0  0  0  0  0  0  0
  157.8735  141.7346  183.3222 C   0  0  0  0  0  0  0  0  0  0  0  0
  156.8789  141.1180  184.5917 S   0  0  0  0  0  0  0  0  0  0  0  0
  159.4993  143.0232  184.4000 O   0  0  0  0  0  0  0  0  0  0  0  0
  160.6980  142.4507  184.8762 C   0  0  0  0  0  0  0  0  0  0  0  0
  153.0050  136.3248  184.2444 C   0  0  0  0  0  0  0  0  0  0  0  0
  152.8068  135.8289  185.3941 O   0  0  0  0  0  0  0  0  0  0  0  0
  153.1472  135.3039  183.2387 N   0  0  0  0  0  0  0  0  0  0  0  0
  153.1277  135.1549  181.8556 C   0  0  0  0  0  0  0  0  0  0  0  0
  153.3621  133.6819  181.5109 C   0  0  0  0  0  0  0  0  0  0  0  0
  154.7445  133.4035  181.6592 O   0  0  0  0  0  0  0  0  0  0  0  0
  155.1291  133.9858  182.8661 C   0  0  0  0  0  0  0  0  0  0  0  0
  154.0470  134.1490  183.8537 C   0  0  0  0  0  0  0  0  0  0  0  0
  155.0318  137.7959  185.7675 C   0  0  0  0  0  0  0  0  0  0  0  0
  154.5343  138.0671  186.9356 O   0  0  0  0  0  0  0  0  0  0  0  0
  155.1097  138.2307  189.1998 C   0  0  0  0  0  0  0  0  0  0  0  0
  154.0387  138.3240  188.0386 C   0  0  0  0  0  0  0  0  0  0  0  0
 35 36  1  0  0  0
 36 34  1  0  0  0
 34 33  1  0  0  0
 33  1  1  0  0  0
  1  2  1  0  0  0
  2 13  1  0  0  0
 13 14  2  0  0  0
 14 15  1  0  0  0
 15 16  2  0  0  0
 16 17  1  0  0  0
 17 18  1  0  0  0
 17 19  2  0  0  0
 19 20  1  0  0  0
 20 23  1  0  0  0
 23 24  1  0  0  0
 20 21  2  0  0  0
 21 22  1  0  0  0
  2  3  2  0  0  0
  3  4  1  0  0  0
  4  5  1  0  0  0
  4  6  2  0  0  0
  6  7  1  0  0  0
  7  8  2  0  0  0
  8  9  1  0  0  0
  9 10  1  0  0  0
 10 25  1  0  0  0
 25 26  2  0  0  0
 25 27  1  0  0  0
 27 28  1  0  0  0
 28 29  1  0  0  0
 29 30  1  0  0  0
 30 31  1  0  0  0
 31 32  1  0  0  0
 10  1  2  0  0  0
 32 27  1  0  0  0
 22 13  1  0  0  0
  9  3  1  0  0  0
 21 15  1  0  0  0
  5 11  1  0  0  0
  5 12  1  0  0  0
M  END
> <minimizedAffinity>
-7.60384

> <CNNscore>
0.4135476947

> <CNNaffinity>
6.5513124466

> <CNN_VS>
2.7092802525

> <CNNaffinity_variance>
0.1825990379

$$$$
[H]c1nc(N([H])[H])c2c(-c3sc4c(OC([H])([H])[H])c([H])c(C([H])([H])[H])c([H])c4c3[H])c(C([H])([H])OC([H])([H])C([H])([H])[H])c(C(=O)N3C([H])([H])C([H])([H])OC([H])([H])C3([H])[H])n2n1


 36 40  0  0  0  0  0  0  0  0999 V2000
  153.3419  138.0125  185.7620 C   0  0  0  0  0  0  0  0  0  0  0  0
  153.4794  138.6353  184.6196 C   0  0  0  0  0  0  0  0  0  0  0  0
  152.9670  137.8220  183.5350 C   0  0  0  0  0  0  0  0  0  0  0  0
  152.7867  138.1507  182.1849 C   0  0  0  0  0  0  0  0  0  0  0  0
  153.2021  139.3868  181.6973 N   0  0  0  0  0  0  0  0  0  0  0  0
  152.1249  137.2430  181.4611 N   0  0  0  0  0  0  0  0  0  0  0  0
  151.6792  136.1356  182.0102 C   0  0  0  0  0  0  0  0  0  0  0  0
  151.8701  135.8213  183.3414 N   0  0  0  0  0  0  0  0  0  0  0  0
  152.5475  136.6818  184.1110 N   0  0  0  0  0  0  0  0  0  0  0  0
  152.7757  136.7201  185.4197 C   0  0  0  0  0  0  0  0  0  0  0  0
  153.9264  139.5173  180.9593 H   0  0  0  0  0  0  0  0  0  0  0  0
  152.7741  140.2835  182.0197 H   0  0  0  0  0  0  0  0  0  0  0  0
  154.4164  139.7550  184.2673 C   0  0  0  0  0  0  0  0  0  0  0  0
  155.8146  139.4943  184.4953 C   0  0  0  0  0  0  0  0  0  0  0  0
  156.6927  140.3936  184.1906 C   0  0  0  0  0  0  0  0  0  0  0  0
  158.1293  140.2911  184.2468 C   0  0  0  0  0  0  0  0  0  0  0  0
  158.9303  141.2962  183.7791 C   0  0  0  0  0  0  0  0  0  0  0  0
  160.4322  140.9834  183.8145 C   0  0  0  0  0  0  0  0  0  0  0  0
  158.4975  142.4541  183.2321 C   0  0  0  0  0  0  0  0  0  0  0  0
  157.0693  142.5652  183.1781 C   0  0  0  0  0  0  0  0  0  0  0  0
  156.2212  141.5618  183.6411 C   0  0  0  0  0  0  0  0  0  0  0  0
  154.5214  141.2595  183.6288 S   0  0  0  0  0  0  0  0  0  0  0  0
  156.4662  143.6748  182.6712 O   0  0  0  0  0  0  0  0  0  0  0  0
  157.2463  144.7379  182.1686 C   0  0  0  0  0  0  0  0  0  0  0  0
  152.9098  135.7149  186.4279 C   0  0  0  0  0  0  0  0  0  0  0  0
  153.9111  134.9519  186.5765 O   0  0  0  0  0  0  0  0  0  0  0  0
  151.8566  135.4030  187.3593 N   0  0  0  0  0  0  0  0  0  0  0  0
  150.6897  135.9546  187.8783 C   0  0  0  0  0  0  0  0  0  0  0  0
  150.0805  134.9739  188.8836 C   0  0  0  0  0  0  0  0  0  0  0  0
  149.4337  133.9391  188.1617 O   0  0  0  0  0  0  0  0  0  0  0  0
  150.3172  133.5616  187.1515 C   0  0  0  0  0  0  0  0  0  0  0  0
  151.7398  133.8212  187.4367 C   0  0  0  0  0  0  0  0  0  0  0  0
  153.6813  138.4477  187.1548 C   0  0  0  0  0  0  0  0  0  0  0  0
  154.8530  138.0934  187.5873 O   0  0  0  0  0  0  0  0  0  0  0  0
  156.1379  138.1551  189.5443 C   0  0  0  0  0  0  0  0  0  0  0  0
  155.9626  137.7634  188.0211 C   0  0  0  0  0  0  0  0  0  0  0  0
 35 36  1  0  0  0
 36 34  1  0  0  0
 34 33  1  0  0  0
 33  1  1  0  0  0
  1  2  1  0  0  0
  2 13  1  0  0  0
 13 14  2  0  0  0
 14 15  1  0  0  0
 15 16  2  0  0  0
 16 17  1  0  0  0
 17 18  1  0  0  0
 17 19  2  0  0  0
 19 20  1  0  0  0
 20 23  1  0  0  0
 23 24  1  0  0  0
 20 21  2  0  0  0
 21 22  1  0  0  0
  2  3  2  0  0  0
  3  4  1  0  0  0
  4  5  1  0  0  0
  4  6  2  0  0  0
  6  7  1  0  0  0
  7  8  2  0  0  0
  8  9  1  0  0  0
  9 10  1  0  0  0
 10 25  1  0  0  0
 25 26  2  0  0  0
 25 27  1  0  0  0
 27 28  1  0  0  0
 28 29  1  0  0  0
 29 30  1  0  0  0
 30 31  1  0  0  0
 31 32  1  0  0  0
 10  1  2  0  0  0
 32 27  1  0  0  0
 22 13  1  0  0  0
  9  3  1  0  0  0
 21 15  1  0  0  0
  5 11  1  0  0  0
  5 12  1  0  0  0
M  END
> <minimizedAffinity>
-6.66630

> <CNNscore>
0.3330914676

> <CNNaffinity>
6.1667928696

> <CNN_VS>
2.0541059971

> <CNNaffinity_variance>
0.1231655329

$$$$
[H]c1nc(N([H])[H])c2c(-c3sc4c(OC([H])([H])[H])c([H])c(C([H])([H])[H])c([H])c4c3[H])c(C([H])([H])OC([H])([H])C([H])([H])[H])c(C(=O)N3C([H])([H])C([H])([H])OC([H])([H])C3([H])[H])n2n1


 36 40  0  0  0  0  0  0  0  0999 V2000
  151.3579  137.3244  184.0506 C   0  0  0  0  0  0  0  0  0  0  0  0
  152.4660  137.9647  184.3226 C   0  0  0  0  0  0  0  0  0  0  0  0
  152.8666  138.7841  183.1963 C   0  0  0  0  0  0  0  0  0  0  0  0
  153.8969  139.7293  183.1056 C   0  0  0  0  0  0  0  0  0  0  0  0
  154.7695  139.9275  184.1721 N   0  0  0  0  0  0  0  0  0  0  0  0
  153.9068  140.4553  181.9838 N   0  0  0  0  0  0  0  0  0  0  0  0
  152.9936  140.2773  181.0558 C   0  0  0  0  0  0  0  0  0  0  0  0
  151.9872  139.3368  181.1555 N   0  0  0  0  0  0  0  0  0  0  0  0
  151.9408  138.5629  182.2466 N   0  0  0  0  0  0  0  0  0  0  0  0
  151.0441  137.6823  182.6789 C   0  0  0  0  0  0  0  0  0  0  0  0
  155.7980  139.7638  184.1319 H   0  0  0  0  0  0  0  0  0  0  0  0
  154.4461  140.3014  185.0924 H   0  0  0  0  0  0  0  0  0  0  0  0
  153.5094  137.6400  185.3531 C   0  0  0  0  0  0  0  0  0  0  0  0
  153.4086  138.3651  186.5937 C   0  0  0  0  0  0  0  0  0  0  0  0
  154.2487  138.1247  187.5472 C   0  0  0  0  0  0  0  0  0  0  0  0
  154.2569  138.6631  188.8842 C   0  0  0  0  0  0  0  0  0  0  0  0
  155.1505  138.2213  189.8205 C   0  0  0  0  0  0  0  0  0  0  0  0
  154.9551  138.8189  191.2203 C   0  0  0  0  0  0  0  0  0  0  0  0
  156.0912  137.2714  189.6205 C   0  0  0  0  0  0  0  0  0  0  0  0
  156.0925  136.7354  188.2909 C   0  0  0  0  0  0  0  0  0  0  0  0
  155.1962  137.1573  187.3116 C   0  0  0  0  0  0  0  0  0  0  0  0
  154.7935  136.6848  185.7006 S   0  0  0  0  0  0  0  0  0  0  0  0
  156.9865  135.7806  187.9156 O   0  0  0  0  0  0  0  0  0  0  0  0
  157.6241  134.9846  188.8909 C   0  0  0  0  0  0  0  0  0  0  0  0
  150.1227  136.8084  182.0215 C   0  0  0  0  0  0  0  0  0  0  0  0
  150.3165  135.5779  181.7868 O   0  0  0  0  0  0  0  0  0  0  0  0
  148.8732  137.2675  181.4720 N   0  0  0  0  0  0  0  0  0  0  0  0
  147.9911  138.3388  181.5696 C   0  0  0  0  0  0  0  0  0  0  0  0
  146.8118  138.0997  180.6232 C   0  0  0  0  0  0  0  0  0  0  0  0
  147.2345  138.3903  179.3013 O   0  0  0  0  0  0  0  0  0  0  0  0
  148.4811  137.7842  179.1518 C   0  0  0  0  0  0  0  0  0  0  0  0
  148.7205  136.6236  180.0284 C   0  0  0  0  0  0  0  0  0  0  0  0
  150.5381  136.3963  184.8937 C   0  0  0  0  0  0  0  0  0  0  0  0
  149.6293  136.9578  185.6314 O   0  0  0  0  0  0  0  0  0  0  0  0
  147.7223  138.3094  185.4867 C   0  0  0  0  0  0  0  0  0  0  0  0
  148.7809  137.5051  186.3449 C   0  0  0  0  0  0  0  0  0  0  0  0
 35 36  1  0  0  0
 36 34  1  0  0  0
 34 33  1  0  0  0
 33  1  1  0  0  0
  1  2  1  0  0  0
  2 13  1  0  0  0
 13 14  2  0  0  0
 14 15  1  0  0  0
 15 16  2  0  0  0
 16 17  1  0  0  0
 17 18  1  0  0  0
 17 19  2  0  0  0
 19 20  1  0  0  0
 20 23  1  0  0  0
 23 24  1  0  0  0
 20 21  2  0  0  0
 21 22  1  0  0  0
  2  3  2  0  0  0
  3  4  1  0  0  0
  4  5  1  0  0  0
  4  6  2  0  0  0
  6  7  1  0  0  0
  7  8  2  0  0  0
  8  9  1  0  0  0
  9 10  1  0  0  0
 10 25  1  0  0  0
 25 26  2  0  0  0
 25 27  1  0  0  0
 27 28  1  0  0  0
 28 29  1  0  0  0
 29 30  1  0  0  0
 30 31  1  0  0  0
 31 32  1  0  0  0
 10  1  2  0  0  0
 32 27  1  0  0  0
 22 13  1  0  0  0
  9  3  1  0  0  0
 21 15  1  0  0  0
  5 11  1  0  0  0
  5 12  1  0  0  0
M  END
> <minimizedAffinity>
-6.67139

> <CNNscore>
0.3171397448

> <CNNaffinity>
5.9779343605

> <CNN_VS>
1.8958405256

> <CNNaffinity_variance>
0.0598119982

$$$$
[H]c1nc(N([H])[H])c2c(-c3sc4c(OC([H])([H])[H])c([H])c(C([H])([H])[H])c([H])c4c3[H])c(C([H])([H])OC([H])([H])C([H])([H])[H])c(C(=O)N3C([H])([H])C([H])([H])OC([H])([H])C3([H])[H])n2n1


 36 40  0  0  0  0  0  0  0  0999 V2000
  150.9457  137.1791  184.2877 C   0  0  0  0  0  0  0  0  0  0  0  0
  152.0994  137.7870  184.3934 C   0  0  0  0  0  0  0  0  0  0  0  0
  152.4226  138.4773  183.1608 C   0  0  0  0  0  0  0  0  0  0  0  0
  153.4765  139.3584  182.8845 C   0  0  0  0  0  0  0  0  0  0  0  0
  154.4543  139.6124  183.8423 N   0  0  0  0  0  0  0  0  0  0  0  0
  153.4078  139.9753  181.7011 N   0  0  0  0  0  0  0  0  0  0  0  0
  152.4036  139.7563  180.8823 C   0  0  0  0  0  0  0  0  0  0  0  0
  151.3747  138.8796  181.1649 N   0  0  0  0  0  0  0  0  0  0  0  0
  151.4021  138.2140  182.3259 N   0  0  0  0  0  0  0  0  0  0  0  0
  150.5165  137.4224  182.9221 C   0  0  0  0  0  0  0  0  0  0  0  0
  155.4669  139.3956  183.7242 H   0  0  0  0  0  0  0  0  0  0  0  0
  154.2358  140.0858  184.7475 H   0  0  0  0  0  0  0  0  0  0  0  0
  153.2229  137.5093  185.3508 C   0  0  0  0  0  0  0  0  0  0  0  0
  153.1859  138.2466  186.5878 C   0  0  0  0  0  0  0  0  0  0  0  0
  154.0985  138.0455  187.4819 C   0  0  0  0  0  0  0  0  0  0  0  0
  154.1830  138.6011  188.8092 C   0  0  0  0  0  0  0  0  0  0  0  0
  155.1545  138.2002  189.6845 C   0  0  0  0  0  0  0  0  0  0  0  0
  155.0385  138.8092  191.0883 C   0  0  0  0  0  0  0  0  0  0  0  0
  156.1095  137.2785  189.4283 C   0  0  0  0  0  0  0  0  0  0  0  0
  156.0348  136.7258  188.1078 C   0  0  0  0  0  0  0  0  0  0  0  0
  155.0584  137.1062  187.1900 C   0  0  0  0  0  0  0  0  0  0  0  0
  154.5590  136.6003  185.6166 S   0  0  0  0  0  0  0  0  0  0  0  0
  156.9311  135.7955  187.6801 O   0  0  0  0  0  0  0  0  0  0  0  0
  157.8542  135.2320  188.5867 C   0  0  0  0  0  0  0  0  0  0  0  0
  149.5023  136.5371  182.4400 C   0  0  0  0  0  0  0  0  0  0  0  0
  148.2552  136.7628  182.4689 O   0  0  0  0  0  0  0  0  0  0  0  0
  149.7966  135.2241  181.9268 N   0  0  0  0  0  0  0  0  0  0  0  0
  150.8641  134.4862  181.4255 C   0  0  0  0  0  0  0  0  0  0  0  0
  150.3711  133.0836  181.0606 C   0  0  0  0  0  0  0  0  0  0  0  0
  150.2353  132.3333  182.2561 O   0  0  0  0  0  0  0  0  0  0  0  0
  149.5875  133.1683  183.1653 C   0  0  0  0  0  0  0  0  0  0  0  0
  148.7457  134.2164  182.5607 C   0  0  0  0  0  0  0  0  0  0  0  0
  150.1740  136.3748  185.2886 C   0  0  0  0  0  0  0  0  0  0  0  0
  149.1976  136.9945  185.8788 O   0  0  0  0  0  0  0  0  0  0  0  0
  147.5426  138.5918  185.4386 C   0  0  0  0  0  0  0  0  0  0  0  0
  148.2532  137.5773  186.4235 C   0  0  0  0  0  0  0  0  0  0  0  0
 35 36  1  0  0  0
 36 34  1  0  0  0
 34 33  1  0  0  0
 33  1  1  0  0  0
  1  2  1  0  0  0
  2 13  1  0  0  0
 13 14  2  0  0  0
 14 15  1  0  0  0
 15 16  2  0  0  0
 16 17  1  0  0  0
 17 18  1  0  0  0
 17 19  2  0  0  0
 19 20  1  0  0  0
 20 23  1  0  0  0
 23 24  1  0  0  0
 20 21  2  0  0  0
 21 22  1  0  0  0
  2  3  2  0  0  0
  3  4  1  0  0  0
  4  5  1  0  0  0
  4  6  2  0  0  0
  6  7  1  0  0  0
  7  8  2  0  0  0
  8  9  1  0  0  0
  9 10  1  0  0  0
 10 25  1  0  0  0
 25 26  2  0  0  0
 25 27  1  0  0  0
 27 28  1  0  0  0
 28 29  1  0  0  0
 29 30  1  0  0  0
 30 31  1  0  0  0
 31 32  1  0  0  0
 10  1  2  0  0  0
 32 27  1  0  0  0
 22 13  1  0  0  0
  9  3  1  0  0  0
 21 15  1  0  0  0
  5 11  1  0  0  0
  5 12  1  0  0  0
M  END
> <minimizedAffinity>
-6.11176

> <CNNscore>
0.2938294411

> <CNNaffinity>
5.7610950470

> <CNN_VS>
1.6927793026

> <CNNaffinity_variance>
0.1211465374

$$$$
[H]c1nc(N([H])[H])c2c(-c3sc4c(OC([H])([H])[H])c([H])c(C([H])([H])[H])c([H])c4c3[H])c(C([H])([H])OC([H])([H])C([H])([H])[H])c(C(=O)N3C([H])([H])C([H])([H])OC([H])([H])C3([H])[H])n2n1


 36 40  0  0  0  0  0  0  0  0999 V2000
  153.0893  137.8121  187.0126 C   0  0  0  0  0  0  0  0  0  0  0  0
  153.2973  138.0334  185.7400 C   0  0  0  0  0  0  0  0  0  0  0  0
  152.5818  137.0643  184.9342 C   0  0  0  0  0  0  0  0  0  0  0  0
  152.4099  137.0162  183.5444 C   0  0  0  0  0  0  0  0  0  0  0  0
  153.0439  137.9433  182.7219 N   0  0  0  0  0  0  0  0  0  0  0  0
  151.5458  136.0947  183.1089 N   0  0  0  0  0  0  0  0  0  0  0  0
  150.9109  135.3119  183.9520 C   0  0  0  0  0  0  0  0  0  0  0  0
  151.0951  135.3658  185.3196 N   0  0  0  0  0  0  0  0  0  0  0  0
  151.9671  136.2533  185.8131 N   0  0  0  0  0  0  0  0  0  0  0  0
  152.2583  136.6223  187.0562 C   0  0  0  0  0  0  0  0  0  0  0  0
  153.7450  137.7009  181.9897 H   0  0  0  0  0  0  0  0  0  0  0  0
  152.8215  138.9633  182.7596 H   0  0  0  0  0  0  0  0  0  0  0  0
  154.4242  138.7833  185.0892 C   0  0  0  0  0  0  0  0  0  0  0  0
  154.0564  140.0024  184.4158 C   0  0  0  0  0  0  0  0  0  0  0  0
  154.9698  140.7260  183.8548 C   0  0  0  0  0  0  0  0  0  0  0  0
  154.8240  142.0143  183.2251 C   0  0  0  0  0  0  0  0  0  0  0  0
  155.9120  142.7107  182.7759 C   0  0  0  0  0  0  0  0  0  0  0  0
  155.5931  144.1087  182.2295 C   0  0  0  0  0  0  0  0  0  0  0  0
  157.1969  142.2995  182.8618 C   0  0  0  0  0  0  0  0  0  0  0  0
  157.3489  141.0161  183.4820 C   0  0  0  0  0  0  0  0  0  0  0  0
  156.2657  140.2789  183.9549 C   0  0  0  0  0  0  0  0  0  0  0  0
  156.0442  138.8198  184.8510 S   0  0  0  0  0  0  0  0  0  0  0  0
  158.5753  140.4463  183.6339 O   0  0  0  0  0  0  0  0  0  0  0  0
  159.7081  141.0313  183.0291 C   0  0  0  0  0  0  0  0  0  0  0  0
  152.2323  135.9486  188.3173 C   0  0  0  0  0  0  0  0  0  0  0  0
  153.2512  135.5665  188.9676 O   0  0  0  0  0  0  0  0  0  0  0  0
  151.0069  135.5532  188.9622 N   0  0  0  0  0  0  0  0  0  0  0  0
  149.6451  135.8368  188.9368 C   0  0  0  0  0  0  0  0  0  0  0  0
  148.9366  134.9664  189.9780 C   0  0  0  0  0  0  0  0  0  0  0  0
  148.8132  133.6548  189.4536 O   0  0  0  0  0  0  0  0  0  0  0  0
  150.0534  133.3417  188.8990 C   0  0  0  0  0  0  0  0  0  0  0  0
  151.1984  134.0647  189.4812 C   0  0  0  0  0  0  0  0  0  0  0  0
  153.5732  138.5533  188.2212 C   0  0  0  0  0  0  0  0  0  0  0  0
  154.7961  138.3084  188.5817 O   0  0  0  0  0  0  0  0  0  0  0  0
  156.1658  138.1182  190.4717 C   0  0  0  0  0  0  0  0  0  0  0  0
  155.9675  138.0772  188.9023 C   0  0  0  0  0  0  0  0  0  0  0  0
 35 36  1  0  0  0
 36 34  1  0  0  0
 34 33  1  0  0  0
 33  1  1  0  0  0
  1  2  1  0  0  0
  2 13  1  0  0  0
 13 14  2  0  0  0
 14 15  1  0  0  0
 15 16  2  0  0  0
 16 17  1  0  0  0
 17 18  1  0  0  0
 17 19  2  0  0  0
 19 20  1  0  0  0
 20 23  1  0  0  0
 23 24  1  0  0  0
 20 21  2  0  0  0
 21 22  1  0  0  0
  2  3  2  0  0  0
  3  4  1  0  0  0
  4  5  1  0  0  0
  4  6  2  0  0  0
  6  7  1  0  0  0
  7  8  2  0  0  0
  8  9  1  0  0  0
  9 10  1  0  0  0
 10 25  1  0  0  0
 25 26  2  0  0  0
 25 27  1  0  0  0
 27 28  1  0  0  0
 28 29  1  0  0  0
 29 30  1  0  0  0
 30 31  1  0  0  0
 31 32  1  0  0  0
 10  1  2  0  0  0
 32 27  1  0  0  0
 22 13  1  0  0  0
  9  3  1  0  0  0
 21 15  1  0  0  0
  5 11  1  0  0  0
  5 12  1  0  0  0
M  END
> <minimizedAffinity>
-6.29665

> <CNNscore>
0.2741731703

> <CNNaffinity>
6.0462279320

> <CNN_VS>
1.6577135324

> <CNNaffinity_variance>
0.0692908093

$$$$
[H]c1nc(N([H])[H])c2c(-c3sc4c(OC([H])([H])[H])c([H])c(C([H])([H])[H])c([H])c4c3[H])c(C([H])([H])OC([H])([H])C([H])([H])[H])c(C(=O)N3C([H])([H])C([H])([H])OC([H])([H])C3([H])[H])n2n1


 36 40  0  0  0  0  0  0  0  0999 V2000
  154.4077  138.4009  184.9148 C   0  0  0  0  0  0  0  0  0  0  0  0
  154.6591  139.3534  184.0538 C   0  0  0  0  0  0  0  0  0  0  0  0
  153.6291  139.3998  183.0354 C   0  0  0  0  0  0  0  0  0  0  0  0
  153.4273  140.3401  182.0163 C   0  0  0  0  0  0  0  0  0  0  0  0
  154.3377  141.3747  181.8195 N   0  0  0  0  0  0  0  0  0  0  0  0
  152.2821  140.2101  181.3400 N   0  0  0  0  0  0  0  0  0  0  0  0
  151.4231  139.2627  181.6417 C   0  0  0  0  0  0  0  0  0  0  0  0
  151.6382  138.3381  182.6448 N   0  0  0  0  0  0  0  0  0  0  0  0
  152.7794  138.4036  183.3411 N   0  0  0  0  0  0  0  0  0  0  0  0
  153.2054  137.7547  184.4199 C   0  0  0  0  0  0  0  0  0  0  0  0
  154.8919  141.5158  180.9481 H   0  0  0  0  0  0  0  0  0  0  0  0
  154.4975  142.1181  182.5359 H   0  0  0  0  0  0  0  0  0  0  0  0
  155.9688  140.0231  183.7503 C   0  0  0  0  0  0  0  0  0  0  0  0
  156.6604  140.5842  184.8825 C   0  0  0  0  0  0  0  0  0  0  0  0
  157.8101  141.1523  184.7146 C   0  0  0  0  0  0  0  0  0  0  0  0
  158.6985  141.6796  185.7197 C   0  0  0  0  0  0  0  0  0  0  0  0
  159.9402  142.1499  185.3917 C   0  0  0  0  0  0  0  0  0  0  0  0
  160.7981  142.5752  186.5908 C   0  0  0  0  0  0  0  0  0  0  0  0
  160.4647  142.1777  184.1462 C   0  0  0  0  0  0  0  0  0  0  0  0
  159.5842  141.6599  183.1405 C   0  0  0  0  0  0  0  0  0  0  0  0
  158.3144  141.1692  183.4362 C   0  0  0  0  0  0  0  0  0  0  0  0
  157.0545  140.3644  182.5726 S   0  0  0  0  0  0  0  0  0  0  0  0
  159.9496  141.6292  181.8300 O   0  0  0  0  0  0  0  0  0  0  0  0
  159.3302  142.4926  180.9015 C   0  0  0  0  0  0  0  0  0  0  0  0
  152.9610  136.4476  184.9459 C   0  0  0  0  0  0  0  0  0  0  0  0
  153.5958  135.3972  184.6289 O   0  0  0  0  0  0  0  0  0  0  0  0
  151.8846  136.1666  185.8605 N   0  0  0  0  0  0  0  0  0  0  0  0
  151.0271  136.8234  186.7372 C   0  0  0  0  0  0  0  0  0  0  0  0
  150.1057  135.7938  187.3963 C   0  0  0  0  0  0  0  0  0  0  0  0
  149.0996  135.4341  186.4642 O   0  0  0  0  0  0  0  0  0  0  0  0
  149.7537  135.2220  185.2515 C   0  0  0  0  0  0  0  0  0  0  0  0
  151.1719  134.8366  185.3658 C   0  0  0  0  0  0  0  0  0  0  0  0
  155.1467  137.9854  186.1500 C   0  0  0  0  0  0  0  0  0  0  0  0
  154.5472  138.2288  187.2755 O   0  0  0  0  0  0  0  0  0  0  0  0
  154.9366  138.3844  189.5795 C   0  0  0  0  0  0  0  0  0  0  0  0
  153.9566  138.4502  188.3388 C   0  0  0  0  0  0  0  0  0  0  0  0
 35 36  1  0  0  0
 36 34  1  0  0  0
 34 33  1  0  0  0
 33  1  1  0  0  0
  1  2  1  0  0  0
  2 13  1  0  0  0
 13 14  2  0  0  0
 14 15  1  0  0  0
 15 16  2  0  0  0
 16 17  1  0  0  0
 17 18  1  0  0  0
 17 19  2  0  0  0
 19 20  1  0  0  0
 20 23  1  0  0  0
 23 24  1  0  0  0
 20 21  2  0  0  0
 21 22  1  0  0  0
  2  3  2  0  0  0
  3  4  1  0  0  0
  4  5  1  0  0  0
  4  6  2  0  0  0
  6  7  1  0  0  0
  7  8  2  0  0  0
  8  9  1  0  0  0
  9 10  1  0  0  0
 10 25  1  0  0  0
 25 26  2  0  0  0
 25 27  1  0  0  0
 27 28  1  0  0  0
 28 29  1  0  0  0
 29 30  1  0  0  0
 30 31  1  0  0  0
 31 32  1  0  0  0
 10  1  2  0  0  0
 32 27  1  0  0  0
 22 13  1  0  0  0
  9  3  1  0  0  0
 21 15  1  0  0  0
  5 11  1  0  0  0
  5 12  1  0  0  0
M  END
> <minimizedAffinity>
-8.10274

> <CNNscore>
0.2519584298

> <CNNaffinity>
6.3552856445

> <CNN_VS>
1.6012678146

> <CNNaffinity_variance>
0.1405633837

$$$$
[H]c1nc(N([H])[H])c2c(-c3sc4c(OC([H])([H])[H])c([H])c(C([H])([H])[H])c([H])c4c3[H])c(C([H])([H])OC([H])([H])C([H])([H])[H])c(C(=O)N3C([H])([H])C([H])([H])OC([H])([H])C3([H])[H])n2n1


 36 40  0  0  0  0  0  0  0  0999 V2000
  153.3033  137.9816  185.7322 C   0  0  0  0  0  0  0  0  0  0  0  0
  153.4385  138.6154  184.5956 C   0  0  0  0  0  0  0  0  0  0  0  0
  152.9247  137.8122  183.5041 C   0  0  0  0  0  0  0  0  0  0  0  0
  152.7419  138.1538  182.1575 C   0  0  0  0  0  0  0  0  0  0  0  0
  153.1557  139.3947  181.6812 N   0  0  0  0  0  0  0  0  0  0  0  0
  152.0795  137.2527  181.4262 N   0  0  0  0  0  0  0  0  0  0  0  0
  151.6353  136.1398  181.9654 C   0  0  0  0  0  0  0  0  0  0  0  0
  151.8286  135.8128  183.2932 N   0  0  0  0  0  0  0  0  0  0  0  0
  152.5068  136.6663  184.0698 N   0  0  0  0  0  0  0  0  0  0  0  0
  152.7373  136.6921  185.3785 C   0  0  0  0  0  0  0  0  0  0  0  0
  153.8787  139.5328  180.9433 H   0  0  0  0  0  0  0  0  0  0  0  0
  152.7278  140.2881  182.0129 H   0  0  0  0  0  0  0  0  0  0  0  0
  154.3742  139.7390  184.2526 C   0  0  0  0  0  0  0  0  0  0  0  0
  155.7742  139.4712  184.4603 C   0  0  0  0  0  0  0  0  0  0  0  0
  156.6511  140.3737  184.1615 C   0  0  0  0  0  0  0  0  0  0  0  0
  158.0880  140.2671  184.1999 C   0  0  0  0  0  0  0  0  0  0  0  0
  158.8862  141.2784  183.7409 C   0  0  0  0  0  0  0  0  0  0  0  0
  160.3876  140.9617  183.7541 C   0  0  0  0  0  0  0  0  0  0  0  0
  158.4501  142.4467  183.2191 C   0  0  0  0  0  0  0  0  0  0  0  0
  157.0217  142.5619  183.1830 C   0  0  0  0  0  0  0  0  0  0  0  0
  156.1764  141.5525  183.6378 C   0  0  0  0  0  0  0  0  0  0  0  0
  154.4757  141.2542  183.6393 S   0  0  0  0  0  0  0  0  0  0  0  0
  156.4157  143.6815  182.7024 O   0  0  0  0  0  0  0  0  0  0  0  0
  157.1905  144.7296  182.1613 C   0  0  0  0  0  0  0  0  0  0  0  0
  152.8737  135.6774  186.3768 C   0  0  0  0  0  0  0  0  0  0  0  0
  152.2411  135.6364  187.4745 O   0  0  0  0  0  0  0  0  0  0  0  0
  153.8296  134.6056  186.2699 N   0  0  0  0  0  0  0  0  0  0  0  0
  154.6062  133.9562  185.3157 C   0  0  0  0  0  0  0  0  0  0  0  0
  155.4100  132.8472  185.9996 C   0  0  0  0  0  0  0  0  0  0  0  0
  156.5009  133.4428  186.6820 O   0  0  0  0  0  0  0  0  0  0  0  0
  155.9800  134.5474  187.3545 C   0  0  0  0  0  0  0  0  0  0  0  0
  154.5450  134.4607  187.6802 C   0  0  0  0  0  0  0  0  0  0  0  0
  153.6448  138.4035  187.1285 C   0  0  0  0  0  0  0  0  0  0  0  0
  154.8711  138.1917  187.4985 O   0  0  0  0  0  0  0  0  0  0  0  0
  156.1812  137.9520  189.4248 C   0  0  0  0  0  0  0  0  0  0  0  0
  156.0350  137.9664  187.8491 C   0  0  0  0  0  0  0  0  0  0  0  0
 35 36  1  0  0  0
 36 34  1  0  0  0
 34 33  1  0  0  0
 33  1  1  0  0  0
  1  2  1  0  0  0
  2 13  1  0  0  0
 13 14  2  0  0  0
 14 15  1  0  0  0
 15 16  2  0  0  0
 16 17  1  0  0  0
 17 18  1  0  0  0
 17 19  2  0  0  0
 19 20  1  0  0  0
 20 23  1  0  0  0
 23 24  1  0  0  0
 20 21  2  0  0  0
 21 22  1  0  0  0
  2  3  2  0  0  0
  3  4  1  0  0  0
  4  5  1  0  0  0
  4  6  2  0  0  0
  6  7  1  0  0  0
  7  8  2  0  0  0
  8  9  1  0  0  0
  9 10  1  0  0  0
 10 25  1  0  0  0
 25 26  2  0  0  0
 25 27  1  0  0  0
 27 28  1  0  0  0
 28 29  1  0  0  0
 29 30  1  0  0  0
 30 31  1  0  0  0
 31 32  1  0  0  0
 10  1  2  0  0  0
 32 27  1  0  0  0
 22 13  1  0  0  0
  9  3  1  0  0  0
 21 15  1  0  0  0
  5 11  1  0  0  0
  5 12  1  0  0  0
M  END
> <minimizedAffinity>
-6.66145

> <CNNscore>
0.2481083125

> <CNNaffinity>
6.0391063690

> <CNN_VS>
1.4983525276

> <CNNaffinity_variance>
0.3099071980

$$$$
[H]c1nc(N([H])[H])c2c(-c3sc4c(OC([H])([H])[H])c([H])c(C([H])([H])[H])c([H])c4c3[H])c(C([H])([H])OC([H])([H])C([H])([H])[H])c(C(=O)N3C([H])([H])C([H])([H])OC([H])([H])C3([H])[H])n2n1


 36 40  0  0  0  0  0  0  0  0999 V2000
  154.3299  138.2864  185.2258 C   0  0  0  0  0  0  0  0  0  0  0  0
  154.4066  139.0793  184.1879 C   0  0  0  0  0  0  0  0  0  0  0  0
  153.3457  138.7838  183.2458 C   0  0  0  0  0  0  0  0  0  0  0  0
  152.9706  139.4712  182.0839 C   0  0  0  0  0  0  0  0  0  0  0  0
  153.7099  140.5642  181.6401 N   0  0  0  0  0  0  0  0  0  0  0  0
  151.8342  139.0547  181.5174 N   0  0  0  0  0  0  0  0  0  0  0  0
  151.1365  138.0739  182.0445 C   0  0  0  0  0  0  0  0  0  0  0  0
  151.5219  137.4004  183.1870 N   0  0  0  0  0  0  0  0  0  0  0  0
  152.6647  137.7576  183.7853 N   0  0  0  0  0  0  0  0  0  0  0  0
  153.2201  137.3958  184.9372 C   0  0  0  0  0  0  0  0  0  0  0  0
  154.2058  140.6091  180.7246 H   0  0  0  0  0  0  0  0  0  0  0  0
  153.7828  141.4472  182.1935 H   0  0  0  0  0  0  0  0  0  0  0  0
  155.5908  139.8527  183.6825 C   0  0  0  0  0  0  0  0  0  0  0  0
  155.3438  141.2358  183.3645 C   0  0  0  0  0  0  0  0  0  0  0  0
  156.3159  141.9825  182.9519 C   0  0  0  0  0  0  0  0  0  0  0  0
  156.2986  143.3979  182.6804 C   0  0  0  0  0  0  0  0  0  0  0  0
  157.4444  144.0717  182.3583 C   0  0  0  0  0  0  0  0  0  0  0  0
  157.2706  145.5886  182.2054 C   0  0  0  0  0  0  0  0  0  0  0  0
  158.6758  143.5228  182.2593 C   0  0  0  0  0  0  0  0  0  0  0  0
  158.6994  142.1138  182.5226 C   0  0  0  0  0  0  0  0  0  0  0  0
  157.5544  141.3944  182.8569 C   0  0  0  0  0  0  0  0  0  0  0  0
  157.1958  139.7835  183.3643 S   0  0  0  0  0  0  0  0  0  0  0  0
  159.8566  141.4015  182.4505 O   0  0  0  0  0  0  0  0  0  0  0  0
  160.7298  141.3547  183.5581 C   0  0  0  0  0  0  0  0  0  0  0  0
  153.1912  136.1946  185.7125 C   0  0  0  0  0  0  0  0  0  0  0  0
  154.0376  135.2536  185.6418 O   0  0  0  0  0  0  0  0  0  0  0  0
  152.1221  135.8851  186.6265 N   0  0  0  0  0  0  0  0  0  0  0  0
  151.0907  136.5123  187.3178 C   0  0  0  0  0  0  0  0  0  0  0  0
  150.3360  135.4659  188.1419 C   0  0  0  0  0  0  0  0  0  0  0  0
  149.4911  134.7349  187.2688 O   0  0  0  0  0  0  0  0  0  0  0  0
  150.2640  134.4276  186.1499 C   0  0  0  0  0  0  0  0  0  0  0  0
  151.7168  134.3677  186.3917 C   0  0  0  0  0  0  0  0  0  0  0  0
  155.1657  138.2251  186.4676 C   0  0  0  0  0  0  0  0  0  0  0  0
  154.5254  138.3750  187.5871 O   0  0  0  0  0  0  0  0  0  0  0  0
  154.8565  138.5462  189.8991 C   0  0  0  0  0  0  0  0  0  0  0  0
  153.8969  138.5258  188.6409 C   0  0  0  0  0  0  0  0  0  0  0  0
 35 36  1  0  0  0
 36 34  1  0  0  0
 34 33  1  0  0  0
 33  1  1  0  0  0
  1  2  1  0  0  0
  2 13  1  0  0  0
 13 14  2  0  0  0
 14 15  1  0  0  0
 15 16  2  0  0  0
 16 17  1  0  0  0
 17 18  1  0  0  0
 17 19  2  0  0  0
 19 20  1  0  0  0
 20 23  1  0  0  0
 23 24  1  0  0  0
 20 21  2  0  0  0
 21 22  1  0  0  0
  2  3  2  0  0  0
  3  4  1  0  0  0
  4  5  1  0  0  0
  4  6  2  0  0  0
  6  7  1  0  0  0
  7  8  2  0  0  0
  8  9  1  0  0  0
  9 10  1  0  0  0
 10 25  1  0  0  0
 25 26  2  0  0  0
 25 27  1  0  0  0
 27 28  1  0  0  0
 28 29  1  0  0  0
 29 30  1  0  0  0
 30 31  1  0  0  0
 31 32  1  0  0  0
 10  1  2  0  0  0
 32 27  1  0  0  0
 22 13  1  0  0  0
  9  3  1  0  0  0
 21 15  1  0  0  0
  5 11  1  0  0  0
  5 12  1  0  0  0
M  END
> <minimizedAffinity>
-7.23559

> <CNNscore>
0.2365493476

> <CNNaffinity>
6.2566819191

> <CNN_VS>
1.4800140858

> <CNNaffinity_variance>
0.0775557980

$$$$
[H]c1nc(N([H])[H])c2c(-c3sc4c(OC([H])([H])[H])c([H])c(C([H])([H])[H])c([H])c4c3[H])c(C([H])([H])OC([H])([H])C([H])([H])[H])c(C(=O)N3C([H])([H])C([H])([H])OC([H])([H])C3([H])[H])n2n1


 36 40  0  0  0  0  0  0  0  0999 V2000
  155.0955  137.3670  186.9400 C   0  0  0  0  0  0  0  0  0  0  0  0
  154.7747  137.8631  185.7726 C   0  0  0  0  0  0  0  0  0  0  0  0
  154.0354  136.8891  184.9947 C   0  0  0  0  0  0  0  0  0  0  0  0
  153.3838  137.0430  183.7638 C   0  0  0  0  0  0  0  0  0  0  0  0
  153.4653  138.2454  183.0670 N   0  0  0  0  0  0  0  0  0  0  0  0
  152.6344  136.0045  183.3823 N   0  0  0  0  0  0  0  0  0  0  0  0
  152.5293  134.9338  184.1368 C   0  0  0  0  0  0  0  0  0  0  0  0
  153.1829  134.7930  185.3452 N   0  0  0  0  0  0  0  0  0  0  0  0
  153.9677  135.7914  185.7681 N   0  0  0  0  0  0  0  0  0  0  0  0
  154.6068  136.0000  186.9146 C   0  0  0  0  0  0  0  0  0  0  0  0
  153.8860  138.3513  182.1193 H   0  0  0  0  0  0  0  0  0  0  0  0
  153.0632  139.1335  183.4423 H   0  0  0  0  0  0  0  0  0  0  0  0
  155.4033  139.0107  185.0352 C   0  0  0  0  0  0  0  0  0  0  0  0
  156.8154  139.1943  185.2527 C   0  0  0  0  0  0  0  0  0  0  0  0
  157.4422  140.1404  184.6325 C   0  0  0  0  0  0  0  0  0  0  0  0
  158.8553  140.4241  184.6356 C   0  0  0  0  0  0  0  0  0  0  0  0
  159.3847  141.3961  183.8322 C   0  0  0  0  0  0  0  0  0  0  0  0
  160.9152  141.4971  183.8775 C   0  0  0  0  0  0  0  0  0  0  0  0
  158.6846  142.1741  182.9767 C   0  0  0  0  0  0  0  0  0  0  0  0
  157.2773  141.9012  182.9726 C   0  0  0  0  0  0  0  0  0  0  0  0
  156.7021  140.9174  183.7736 C   0  0  0  0  0  0  0  0  0  0  0  0
  155.1368  140.2114  183.9538 S   0  0  0  0  0  0  0  0  0  0  0  0
  156.4241  142.6051  182.1799 O   0  0  0  0  0  0  0  0  0  0  0  0
  156.5076  144.0126  182.1238 C   0  0  0  0  0  0  0  0  0  0  0  0
  155.1836  135.1332  187.8948 C   0  0  0  0  0  0  0  0  0  0  0  0
  154.8241  135.0530  189.1077 O   0  0  0  0  0  0  0  0  0  0  0  0
  156.3186  134.2916  187.6165 N   0  0  0  0  0  0  0  0  0  0  0  0
  157.0062  133.7454  186.5375 C   0  0  0  0  0  0  0  0  0  0  0  0
  158.1721  132.9051  187.0647 C   0  0  0  0  0  0  0  0  0  0  0  0
  159.2126  133.7837  187.4597 O   0  0  0  0  0  0  0  0  0  0  0  0
  158.6021  134.8030  188.1891 C   0  0  0  0  0  0  0  0  0  0  0  0
  157.3289  134.4336  188.8334 C   0  0  0  0  0  0  0  0  0  0  0  0
  155.8190  137.9876  188.0958 C   0  0  0  0  0  0  0  0  0  0  0  0
  155.0731  138.3846  189.0814 O   0  0  0  0  0  0  0  0  0  0  0  0
  155.1407  138.8802  191.3693 C   0  0  0  0  0  0  0  0  0  0  0  0
  154.3435  138.7555  190.0080 C   0  0  0  0  0  0  0  0  0  0  0  0
 35 36  1  0  0  0
 36 34  1  0  0  0
 34 33  1  0  0  0
 33  1  1  0  0  0
  1  2  1  0  0  0
  2 13  1  0  0  0
 13 14  2  0  0  0
 14 15  1  0  0  0
 15 16  2  0  0  0
 16 17  1  0  0  0
 17 18  1  0  0  0
 17 19  2  0  0  0
 19 20  1  0  0  0
 20 23  1  0  0  0
 23 24  1  0  0  0
 20 21  2  0  0  0
 21 22  1  0  0  0
  2  3  2  0  0  0
  3  4  1  0  0  0
  4  5  1  0  0  0
  4  6  2  0  0  0
  6  7  1  0  0  0
  7  8  2  0  0  0
  8  9  1  0  0  0
  9 10  1  0  0  0
 10 25  1  0  0  0
 25 26  2  0  0  0
 25 27  1  0  0  0
 27 28  1  0  0  0
 28 29  1  0  0  0
 29 30  1  0  0  0
 30 31  1  0  0  0
 31 32  1  0  0  0
 10  1  2  0  0  0
 32 27  1  0  0  0
 22 13  1  0  0  0
  9  3  1  0  0  0
 21 15  1  0  0  0
  5 11  1  0  0  0
  5 12  1  0  0  0
M  END
> <minimizedAffinity>
-7.03325

> <CNNscore>
0.2198644876

> <CNNaffinity>
6.1384425163

> <CNN_VS>
1.3496254683

> <CNNaffinity_variance>
0.1610087305

$$$$
[H]OC(=O)c1nc(C(=O)c2c([H])c([H])c(O[H])c([H])c2[H])c2c([H])c(O[H])c(O[H])c([H])c2c1[H]


 28 30  0  0  0  0  0  0  0  0999 V2000
  152.6852  136.8528  187.7061 C   0  0  0  0  0  0  0  0  0  0  0  0
  152.6981  137.5244  186.5034 C   0  0  0  0  0  0  0  0  0  0  0  0
  153.8554  138.1062  186.0356 C   0  0  0  0  0  0  0  0  0  0  0  0
  153.8406  138.7680  184.8137 C   0  0  0  0  0  0  0  0  0  0  0  0
  155.0123  139.3322  184.3590 C   0  0  0  0  0  0  0  0  0  0  0  0
  154.9522  139.9852  183.1315 O   0  0  0  0  0  0  0  0  0  0  0  0
  156.1578  139.2312  185.1115 C   0  0  0  0  0  0  0  0  0  0  0  0
  157.3275  139.8031  184.6403 O   0  0  0  0  0  0  0  0  0  0  0  0
  156.1677  138.5628  186.3436 C   0  0  0  0  0  0  0  0  0  0  0  0
  155.0099  137.9933  186.8179 C   0  0  0  0  0  0  0  0  0  0  0  0
  155.0020  137.3267  188.0170 C   0  0  0  0  0  0  0  0  0  0  0  0
  153.8204  136.7760  188.4145 N   0  0  0  0  0  0  0  0  0  0  0  0
  155.7669  140.4270  182.7253 H   0  0  0  0  0  0  0  0  0  0  0  0
  158.2021  139.7642  185.1443 H   0  0  0  0  0  0  0  0  0  0  0  0
  151.2881  135.8957  189.4906 O   0  0  0  0  0  0  0  0  0  0  0  0
  151.4422  136.2461  188.1741 C   0  0  0  0  0  0  0  0  0  0  0  0
  150.5224  136.0509  187.3607 O   0  0  0  0  0  0  0  0  0  0  0  0
  151.7182  135.0809  189.9059 H   0  0  0  0  0  0  0  0  0  0  0  0
  156.1649  137.2078  188.9099 C   0  0  0  0  0  0  0  0  0  0  0  0
  156.5856  138.1281  189.6386 O   0  0  0  0  0  0  0  0  0  0  0  0
  156.9102  135.9473  188.9840 C   0  0  0  0  0  0  0  0  0  0  0  0
  156.9318  135.2652  190.1638 C   0  0  0  0  0  0  0  0  0  0  0  0
  157.6283  134.0776  190.2576 C   0  0  0  0  0  0  0  0  0  0  0  0
  158.2966  133.5966  189.1467 C   0  0  0  0  0  0  0  0  0  0  0  0
  159.0158  132.3977  189.1935 O   0  0  0  0  0  0  0  0  0  0  0  0
  158.2798  134.2811  187.9486 C   0  0  0  0  0  0  0  0  0  0  0  0
  157.5744  135.4635  187.8907 C   0  0  0  0  0  0  0  0  0  0  0  0
  158.5126  131.5513  188.9602 H   0  0  0  0  0  0  0  0  0  0  0  0
 15 16  1  0  0  0
 16 17  2  0  0  0
 16  1  1  0  0  0
  1  2  2  0  0  0
  2  3  1  0  0  0
  3  4  2  0  0  0
  4  5  1  0  0  0
  5  6  1  0  0  0
  5  7  2  0  0  0
  7  8  1  0  0  0
  7  9  1  0  0  0
  9 10  2  0  0  0
 10 11  1  0  0  0
 11 12  2  0  0  0
 11 19  1  0  0  0
 19 20  2  0  0  0
 19 21  1  0  0  0
 21 22  2  0  0  0
 22 23  1  0  0  0
 23 24  2  0  0  0
 24 25  1  0  0  0
 24 26  1  0  0  0
 26 27  2  0  0  0
 12  1  1  0  0  0
 27 21  1  0  0  0
 10  3  1  0  0  0
 15 18  1  0  0  0
  6 13  1  0  0  0
  8 14  1  0  0  0
 25 28  1  0  0  0
M  END
> <minimizedAffinity>
-5.72655

> <CNNscore>
0.3751497269

> <CNNaffinity>
4.6014747620

> <CNN_VS>
1.7262419462

> <CNNaffinity_variance>
0.0884028301

$$$$
[H]OC(=O)c1nc(C(=O)c2c([H])c([H])c(O[H])c([H])c2[H])c2c([H])c(O[H])c(O[H])c([H])c2c1[H]


 28 30  0  0  0  0  0  0  0  0999 V2000
  154.8206  141.2059  183.0940 C   0  0  0  0  0  0  0  0  0  0  0  0
  153.8701  141.2699  182.0990 C   0  0  0  0  0  0  0  0  0  0  0  0
  153.0019  140.2220  181.8878 C   0  0  0  0  0  0  0  0  0  0  0  0
  152.0464  140.3194  180.8835 C   0  0  0  0  0  0  0  0  0  0  0  0
  151.1802  139.2645  180.6974 C   0  0  0  0  0  0  0  0  0  0  0  0
  150.2400  139.4041  179.6810 O   0  0  0  0  0  0  0  0  0  0  0  0
  151.2756  138.1511  181.4975 C   0  0  0  0  0  0  0  0  0  0  0  0
  150.3971  137.0995  181.2983 O   0  0  0  0  0  0  0  0  0  0  0  0
  152.2414  138.0573  182.5092 C   0  0  0  0  0  0  0  0  0  0  0  0
  153.1172  139.0973  182.7121 C   0  0  0  0  0  0  0  0  0  0  0  0
  154.0630  139.0280  183.7035 C   0  0  0  0  0  0  0  0  0  0  0  0
  154.8862  140.1037  183.8538 N   0  0  0  0  0  0  0  0  0  0  0  0
  149.5668  138.6766  179.4774 H   0  0  0  0  0  0  0  0  0  0  0  0
  150.4144  136.2544  181.8515 H   0  0  0  0  0  0  0  0  0  0  0  0
  155.4827  143.5404  182.6887 O   0  0  0  0  0  0  0  0  0  0  0  0
  155.7259  142.3342  183.2932 C   0  0  0  0  0  0  0  0  0  0  0  0
  156.7233  142.1862  184.0207 O   0  0  0  0  0  0  0  0  0  0  0  0
  155.6487  143.7171  181.7075 H   0  0  0  0  0  0  0  0  0  0  0  0
  154.2694  137.8616  184.5757 C   0  0  0  0  0  0  0  0  0  0  0  0
  154.3484  136.6862  184.1667 O   0  0  0  0  0  0  0  0  0  0  0  0
  154.3968  138.0399  186.0255 C   0  0  0  0  0  0  0  0  0  0  0  0
  153.2959  138.4036  186.7420 C   0  0  0  0  0  0  0  0  0  0  0  0
  153.3925  138.5790  188.1073 C   0  0  0  0  0  0  0  0  0  0  0  0
  154.6116  138.3819  188.7295 C   0  0  0  0  0  0  0  0  0  0  0  0
  154.7583  138.5478  190.1107 O   0  0  0  0  0  0  0  0  0  0  0  0
  155.7310  138.0137  188.0113 C   0  0  0  0  0  0  0  0  0  0  0  0
  155.5983  137.8473  186.6498 C   0  0  0  0  0  0  0  0  0  0  0  0
  154.6017  137.7331  190.6899 H   0  0  0  0  0  0  0  0  0  0  0  0
 15 16  1  0  0  0
 16 17  2  0  0  0
 16  1  1  0  0  0
  1  2  2  0  0  0
  2  3  1  0  0  0
  3  4  2  0  0  0
  4  5  1  0  0  0
  5  6  1  0  0  0
  5  7  2  0  0  0
  7  8  1  0  0  0
  7  9  1  0  0  0
  9 10  2  0  0  0
 10 11  1  0  0  0
 11 12  2  0  0  0
 11 19  1  0  0  0
 19 20  2  0  0  0
 19 21  1  0  0  0
 21 22  2  0  0  0
 22 23  1  0  0  0
 23 24  2  0  0  0
 24 25  1  0  0  0
 24 26  1  0  0  0
 26 27  2  0  0  0
 12  1  1  0  0  0
 27 21  1  0  0  0
 10  3  1  0  0  0
 15 18  1  0  0  0
  6 13  1  0  0  0
  8 14  1  0  0  0
 25 28  1  0  0  0
M  END
> <minimizedAffinity>
-7.75301

> <CNNscore>
0.3231696188

> <CNNaffinity>
4.7494578362

> <CNN_VS>
1.5348805189

> <CNNaffinity_variance>
0.0470369421

$$$$
[H]OC(=O)c1nc(C(=O)c2c([H])c([H])c(O[H])c([H])c2[H])c2c([H])c(O[H])c(O[H])c([H])c2c1[H]


 28 30  0  0  0  0  0  0  0  0999 V2000
  155.2030  138.5219  185.9467 C   0  0  0  0  0  0  0  0  0  0  0  0
  153.8876  138.1246  185.8501 C   0  0  0  0  0  0  0  0  0  0  0  0
  153.2713  137.4740  186.8958 C   0  0  0  0  0  0  0  0  0  0  0  0
  151.9400  137.0946  186.7736 C   0  0  0  0  0  0  0  0  0  0  0  0
  151.3397  136.4558  187.8363 C   0  0  0  0  0  0  0  0  0  0  0  0
  150.0062  136.0935  187.6709 O   0  0  0  0  0  0  0  0  0  0  0  0
  152.0583  136.2092  188.9815 C   0  0  0  0  0  0  0  0  0  0  0  0
  151.4404  135.5667  190.0410 O   0  0  0  0  0  0  0  0  0  0  0  0
  153.4012  136.5935  189.0999 C   0  0  0  0  0  0  0  0  0  0  0  0
  154.0213  137.2311  188.0517 C   0  0  0  0  0  0  0  0  0  0  0  0
  155.3321  137.6235  188.1524 C   0  0  0  0  0  0  0  0  0  0  0  0
  155.8740  138.2630  187.0778 N   0  0  0  0  0  0  0  0  0  0  0  0
  149.4904  135.6205  188.4017 H   0  0  0  0  0  0  0  0  0  0  0  0
  151.9122  135.3564  190.9091 H   0  0  0  0  0  0  0  0  0  0  0  0
  155.1369  139.4100  183.6533 O   0  0  0  0  0  0  0  0  0  0  0  0
  155.8276  139.2106  184.8207 C   0  0  0  0  0  0  0  0  0  0  0  0
  156.9977  139.6152  184.9349 O   0  0  0  0  0  0  0  0  0  0  0  0
  154.9643  138.6810  182.9748 H   0  0  0  0  0  0  0  0  0  0  0  0
  156.1912  137.3619  189.3175 C   0  0  0  0  0  0  0  0  0  0  0  0
  156.4276  138.1950  190.2147 O   0  0  0  0  0  0  0  0  0  0  0  0
  156.8329  136.0536  189.4798 C   0  0  0  0  0  0  0  0  0  0  0  0
  156.7003  135.3997  190.6683 C   0  0  0  0  0  0  0  0  0  0  0  0
  157.2971  134.1681  190.8447 C   0  0  0  0  0  0  0  0  0  0  0  0
  158.0241  133.6146  189.8067 C   0  0  0  0  0  0  0  0  0  0  0  0
  158.6469  132.3690  189.9385 O   0  0  0  0  0  0  0  0  0  0  0  0
  158.1633  134.2701  188.6004 C   0  0  0  0  0  0  0  0  0  0  0  0
  157.5541  135.4981  188.4591 C   0  0  0  0  0  0  0  0  0  0  0  0
  158.1059  131.5554  189.6754 H   0  0  0  0  0  0  0  0  0  0  0  0
 15 16  1  0  0  0
 16 17  2  0  0  0
 16  1  1  0  0  0
  1  2  2  0  0  0
  2  3  1  0  0  0
  3  4  2  0  0  0
  4  5  1  0  0  0
  5  6  1  0  0  0
  5  7  2  0  0  0
  7  8  1  0  0  0
  7  9  1  0  0  0
  9 10  2  0  0  0
 10 11  1  0  0  0
 11 12  2  0  0  0
 11 19  1  0  0  0
 19 20  2  0  0  0
 19 21  1  0  0  0
 21 22  2  0  0  0
 22 23  1  0  0  0
 23 24  2  0  0  0
 24 25  1  0  0  0
 24 26  1  0  0  0
 26 27  2  0  0  0
 12  1  1  0  0  0
 27 21  1  0  0  0
 10  3  1  0  0  0
 15 18  1  0  0  0
  6 13  1  0  0  0
  8 14  1  0  0  0
 25 28  1  0  0  0
M  END
> <minimizedAffinity>
-5.55750

> <CNNscore>
0.3222364187

> <CNNaffinity>
4.6490516663

> <CNN_VS>
1.4980937243

> <CNNaffinity_variance>
0.1091098338

$$$$
[H]OC(=O)c1nc(C(=O)c2c([H])c([H])c(O[H])c([H])c2[H])c2c([H])c(O[H])c(O[H])c([H])c2c1[H]


 28 30  0  0  0  0  0  0  0  0999 V2000
  155.0896  137.3810  190.2600 C   0  0  0  0  0  0  0  0  0  0  0  0
  156.0553  136.4431  190.5524 C   0  0  0  0  0  0  0  0  0  0  0  0
  156.5590  135.6224  189.5679 C   0  0  0  0  0  0  0  0  0  0  0  0
  157.5403  134.6928  189.8905 C   0  0  0  0  0  0  0  0  0  0  0  0
  158.0388  133.8903  188.8878 C   0  0  0  0  0  0  0  0  0  0  0  0
  159.0195  132.9737  189.2551 O   0  0  0  0  0  0  0  0  0  0  0  0
  157.5633  134.0223  187.6052 C   0  0  0  0  0  0  0  0  0  0  0  0
  158.0751  133.2086  186.6085 O   0  0  0  0  0  0  0  0  0  0  0  0
  156.5730  134.9612  187.2847 C   0  0  0  0  0  0  0  0  0  0  0  0
  156.0600  135.7718  188.2693 C   0  0  0  0  0  0  0  0  0  0  0  0
  155.0973  136.7034  187.9732 C   0  0  0  0  0  0  0  0  0  0  0  0
  154.6476  137.4804  188.9985 N   0  0  0  0  0  0  0  0  0  0  0  0
  159.4385  132.3463  188.5807 H   0  0  0  0  0  0  0  0  0  0  0  0
  157.7688  133.2556  185.6470 H   0  0  0  0  0  0  0  0  0  0  0  0
  155.0610  139.5080  191.4959 O   0  0  0  0  0  0  0  0  0  0  0  0
  154.5765  138.2368  191.3260 C   0  0  0  0  0  0  0  0  0  0  0  0
  153.6914  137.7962  192.0800 O   0  0  0  0  0  0  0  0  0  0  0  0
  155.9604  139.7124  191.9093 H   0  0  0  0  0  0  0  0  0  0  0  0
  154.4966  136.8842  186.6426 C   0  0  0  0  0  0  0  0  0  0  0  0
  153.6131  136.1441  186.1663 O   0  0  0  0  0  0  0  0  0  0  0  0
  154.9299  137.9906  185.7836 C   0  0  0  0  0  0  0  0  0  0  0  0
  154.0643  138.4741  184.8483 C   0  0  0  0  0  0  0  0  0  0  0  0
  154.4510  139.5137  184.0274 C   0  0  0  0  0  0  0  0  0  0  0  0
  155.7175  140.0507  184.1679 C   0  0  0  0  0  0  0  0  0  0  0  0
  156.1542  141.1051  183.3589 O   0  0  0  0  0  0  0  0  0  0  0  0
  156.5999  139.5669  185.1122 C   0  0  0  0  0  0  0  0  0  0  0  0
  156.1806  138.5282  185.9150 C   0  0  0  0  0  0  0  0  0  0  0  0
  155.9796  142.0436  183.6944 H   0  0  0  0  0  0  0  0  0  0  0  0
 15 16  1  0  0  0
 16 17  2  0  0  0
 16  1  1  0  0  0
  1  2  2  0  0  0
  2  3  1  0  0  0
  3  4  2  0  0  0
  4  5  1  0  0  0
  5  6  1  0  0  0
  5  7  2  0  0  0
  7  8  1  0  0  0
  7  9  1  0  0  0
  9 10  2  0  0  0
 10 11  1  0  0  0
 11 12  2  0  0  0
 11 19  1  0  0  0
 19 20  2  0  0  0
 19 21  1  0  0  0
 21 22  2  0  0  0
 22 23  1  0  0  0
 23 24  2  0  0  0
 24 25  1  0  0  0
 24 26  1  0  0  0
 26 27  2  0  0  0
 12  1  1  0  0  0
 27 21  1  0  0  0
 10  3  1  0  0  0
 15 18  1  0  0  0
  6 13  1  0  0  0
  8 14  1  0  0  0
 25 28  1  0  0  0
M  END
> <minimizedAffinity>
-5.51778

> <CNNscore>
0.2952115238

> <CNNaffinity>
4.6659293175

> <CNN_VS>
1.3774361610

> <CNNaffinity_variance>
0.1688465178

$$$$
[H]OC(=O)c1nc(C(=O)c2c([H])c([H])c(O[H])c([H])c2[H])c2c([H])c(O[H])c(O[H])c([H])c2c1[H]


 28 30  0  0  0  0  0  0  0  0999 V2000
  152.5120  136.0703  191.8660 C   0  0  0  0  0  0  0  0  0  0  0  0
  151.7947  136.1943  190.6965 C   0  0  0  0  0  0  0  0  0  0  0  0
  152.4329  136.4585  189.5051 C   0  0  0  0  0  0  0  0  0  0  0  0
  151.6841  136.5676  188.3396 C   0  0  0  0  0  0  0  0  0  0  0  0
  152.3441  136.8202  187.1570 C   0  0  0  0  0  0  0  0  0  0  0  0
  151.5557  136.9219  186.0147 O   0  0  0  0  0  0  0  0  0  0  0  0
  153.7115  136.9572  187.1519 C   0  0  0  0  0  0  0  0  0  0  0  0
  154.3602  137.2102  185.9551 O   0  0  0  0  0  0  0  0  0  0  0  0
  154.4626  136.8466  188.3304 C   0  0  0  0  0  0  0  0  0  0  0  0
  153.8252  136.5963  189.5223 C   0  0  0  0  0  0  0  0  0  0  0  0
  154.5441  136.4751  190.6846 C   0  0  0  0  0  0  0  0  0  0  0  0
  153.8442  136.2122  191.8241 N   0  0  0  0  0  0  0  0  0  0  0  0
  151.9602  137.1061  185.1057 H   0  0  0  0  0  0  0  0  0  0  0  0
  155.3617  137.3212  185.8835 H   0  0  0  0  0  0  0  0  0  0  0  0
  152.4248  135.1060  194.1277 O   0  0  0  0  0  0  0  0  0  0  0  0
  151.8059  135.7891  193.1128 C   0  0  0  0  0  0  0  0  0  0  0  0
  150.6323  136.1786  193.2425 O   0  0  0  0  0  0  0  0  0  0  0  0
  152.5815  134.1076  194.1149 H   0  0  0  0  0  0  0  0  0  0  0  0
  156.0011  136.6516  190.7833 C   0  0  0  0  0  0  0  0  0  0  0  0
  156.5571  137.7204  191.1053 O   0  0  0  0  0  0  0  0  0  0  0  0
  156.8997  135.5295  190.4951 C   0  0  0  0  0  0  0  0  0  0  0  0
  157.1771  134.6381  191.4882 C   0  0  0  0  0  0  0  0  0  0  0  0
  158.0216  133.5753  191.2406 C   0  0  0  0  0  0  0  0  0  0  0  0
  158.5758  133.4314  189.9819 C   0  0  0  0  0  0  0  0  0  0  0  0
  159.4371  132.3703  189.6836 O   0  0  0  0  0  0  0  0  0  0  0  0
  158.3001  134.3294  188.9710 C   0  0  0  0  0  0  0  0  0  0  0  0
  157.4527  135.3788  189.2534 C   0  0  0  0  0  0  0  0  0  0  0  0
  159.0143  131.5208  189.3324 H   0  0  0  0  0  0  0  0  0  0  0  0
 15 16  1  0  0  0
 16 17  2  0  0  0
 16  1  1  0  0  0
  1  2  2  0  0  0
  2  3  1  0  0  0
  3  4  2  0  0  0
  4  5  1  0  0  0
  5  6  1  0  0  0
  5  7  2  0  0  0
  7  8  1  0  0  0
  7  9  1  0  0  0
  9 10  2  0  0  0
 10 11  1  0  0  0
 11 12  2  0  0  0
 11 19  1  0  0  0
 19 20  2  0  0  0
 19 21  1  0  0  0
 21 22  2  0  0  0
 22 23  1  0  0  0
 23 24  2  0  0  0
 24 25  1  0  0  0
 24 26  1  0  0  0
 26 27  2  0  0  0
 12  1  1  0  0  0
 27 21  1  0  0  0
 10  3  1  0  0  0
 15 18  1  0  0  0
  6 13  1  0  0  0
  8 14  1  0  0  0
 25 28  1  0  0  0
M  END
> <minimizedAffinity>
-5.43547

> <CNNscore>
0.2883443832

> <CNNaffinity>
4.5106925964

> <CNN_VS>
1.3006328344

> <CNNaffinity_variance>
0.0945150033

$$$$
[H]OC(=O)c1nc(C(=O)c2c([H])c([H])c(O[H])c([H])c2[H])c2c([H])c(O[H])c(O[H])c([H])c2c1[H]


 28 30  0  0  0  0  0  0  0  0999 V2000
  154.7367  139.0355  184.6612 C   0  0  0  0  0  0  0  0  0  0  0  0
  153.7768  138.3014  184.0000 C   0  0  0  0  0  0  0  0  0  0  0  0
  153.0903  138.8400  182.9344 C   0  0  0  0  0  0  0  0  0  0  0  0
  152.1350  138.0718  182.2799 C   0  0  0  0  0  0  0  0  0  0  0  0
  151.4687  138.6259  181.2090 C   0  0  0  0  0  0  0  0  0  0  0  0
  150.5207  137.8220  180.5833 O   0  0  0  0  0  0  0  0  0  0  0  0
  151.7575  139.9099  180.8132 C   0  0  0  0  0  0  0  0  0  0  0  0
  151.0797  140.4523  179.7345 O   0  0  0  0  0  0  0  0  0  0  0  0
  152.7219  140.6811  181.4768 C   0  0  0  0  0  0  0  0  0  0  0  0
  153.3981  140.1493  182.5489 C   0  0  0  0  0  0  0  0  0  0  0  0
  154.3523  140.8850  183.2051 C   0  0  0  0  0  0  0  0  0  0  0  0
  154.9907  140.2854  184.2492 N   0  0  0  0  0  0  0  0  0  0  0  0
  149.9863  138.1515  179.7897 H   0  0  0  0  0  0  0  0  0  0  0  0
  151.2449  141.3889  179.3939 H   0  0  0  0  0  0  0  0  0  0  0  0
  154.8917  137.4002  186.4927 O   0  0  0  0  0  0  0  0  0  0  0  0
  155.4476  138.4357  185.7868 C   0  0  0  0  0  0  0  0  0  0  0  0
  156.5674  138.8777  186.0976 O   0  0  0  0  0  0  0  0  0  0  0  0
  154.1456  137.5188  187.1641 H   0  0  0  0  0  0  0  0  0  0  0  0
  154.6946  142.2789  182.8828 C   0  0  0  0  0  0  0  0  0  0  0  0
  153.9861  143.2610  183.1803 O   0  0  0  0  0  0  0  0  0  0  0  0
  155.9374  142.5852  182.1677 C   0  0  0  0  0  0  0  0  0  0  0  0
  156.4536  143.8435  182.2567 C   0  0  0  0  0  0  0  0  0  0  0  0
  157.6213  144.1553  181.5906 C   0  0  0  0  0  0  0  0  0  0  0  0
  158.2519  143.1803  180.8397 C   0  0  0  0  0  0  0  0  0  0  0  0
  159.4373  143.4491  180.1472 O   0  0  0  0  0  0  0  0  0  0  0  0
  157.7359  141.9040  180.7444 C   0  0  0  0  0  0  0  0  0  0  0  0
  156.5684  141.6277  181.4224 C   0  0  0  0  0  0  0  0  0  0  0  0
  160.3047  143.2896  180.6432 H   0  0  0  0  0  0  0  0  0  0  0  0
 15 16  1  0  0  0
 16 17  2  0  0  0
 16  1  1  0  0  0
  1  2  2  0  0  0
  2  3  1  0  0  0
  3  4  2  0  0  0
  4  5  1  0  0  0
  5  6  1  0  0  0
  5  7  2  0  0  0
  7  8  1  0  0  0
  7  9  1  0  0  0
  9 10  2  0  0  0
 10 11  1  0  0  0
 11 12  2  0  0  0
 11 19  1  0  0  0
 19 20  2  0  0  0
 19 21  1  0  0  0
 21 22  2  0  0  0
 22 23  1  0  0  0
 23 24  2  0  0  0
 24 25  1  0  0  0
 24 26  1  0  0  0
 26 27  2  0  0  0
 12  1  1  0  0  0
 27 21  1  0  0  0
 10  3  1  0  0  0
 15 18  1  0  0  0
  6 13  1  0  0  0
  8 14  1  0  0  0
 25 28  1  0  0  0
M  END
> <minimizedAffinity>
-7.61989

> <CNNscore>
0.2761738300

> <CNNaffinity>
4.9929656982

> <CNN_VS>
1.3789265156

> <CNNaffinity_variance>
0.0443146713

$$$$
[H]OC(=O)c1nc(C(=O)c2c([H])c([H])c(O[H])c([H])c2[H])c2c([H])c(O[H])c(O[H])c([H])c2c1[H]


 28 30  0  0  0  0  0  0  0  0999 V2000
  154.2719  140.3351  182.8563 C   0  0  0  0  0  0  0  0  0  0  0  0
  154.5567  140.0369  184.1707 C   0  0  0  0  0  0  0  0  0  0  0  0
  154.0185  138.9203  184.7707 C   0  0  0  0  0  0  0  0  0  0  0  0
  154.3323  138.6392  186.0949 C   0  0  0  0  0  0  0  0  0  0  0  0
  153.7925  137.5106  186.6717 C   0  0  0  0  0  0  0  0  0  0  0  0
  154.1328  137.2676  187.9991 O   0  0  0  0  0  0  0  0  0  0  0  0
  152.9656  136.6949  185.9370 C   0  0  0  0  0  0  0  0  0  0  0  0
  152.4316  135.5639  186.5310 O   0  0  0  0  0  0  0  0  0  0  0  0
  152.6517  136.9829  184.6015 C   0  0  0  0  0  0  0  0  0  0  0  0
  153.1778  138.1044  184.0056 C   0  0  0  0  0  0  0  0  0  0  0  0
  152.8899  138.3977  182.6966 C   0  0  0  0  0  0  0  0  0  0  0  0
  153.4598  139.5183  182.1707 N   0  0  0  0  0  0  0  0  0  0  0  0
  153.7797  136.4612  188.4982 H   0  0  0  0  0  0  0  0  0  0  0  0
  151.8180  134.9242  186.0464 H   0  0  0  0  0  0  0  0  0  0  0  0
  156.0182  141.4402  181.5214 O   0  0  0  0  0  0  0  0  0  0  0  0
  154.8591  141.5259  182.2486 C   0  0  0  0  0  0  0  0  0  0  0  0
  154.2923  142.6222  182.3997 O   0  0  0  0  0  0  0  0  0  0  0  0
  156.9325  141.3315  181.9382 H   0  0  0  0  0  0  0  0  0  0  0  0
  151.9812  137.6108  181.8487 C   0  0  0  0  0  0  0  0  0  0  0  0
  152.2642  136.4977  181.3630 O   0  0  0  0  0  0  0  0  0  0  0  0
  150.6464  138.1245  181.5256 C   0  0  0  0  0  0  0  0  0  0  0  0
  149.7634  138.3436  182.5404 C   0  0  0  0  0  0  0  0  0  0  0  0
  148.5009  138.8250  182.2599 C   0  0  0  0  0  0  0  0  0  0  0  0
  148.1506  139.0784  180.9465 C   0  0  0  0  0  0  0  0  0  0  0  0
  146.8828  139.5668  180.6133 O   0  0  0  0  0  0  0  0  0  0  0  0
  149.0387  138.8591  179.9133 C   0  0  0  0  0  0  0  0  0  0  0  0
  150.2907  138.3781  180.2296 C   0  0  0  0  0  0  0  0  0  0  0  0
  146.7710  140.5721  180.5859 H   0  0  0  0  0  0  0  0  0  0  0  0
 15 16  1  0  0  0
 16 17  2  0  0  0
 16  1  1  0  0  0
  1  2  2  0  0  0
  2  3  1  0  0  0
  3  4  2  0  0  0
  4  5  1  0  0  0
  5  6  1  0  0  0
  5  7  2  0  0  0
  7  8  1  0  0  0
  7  9  1  0  0  0
  9 10  2  0  0  0
 10 11  1  0  0  0
 11 12  2  0  0  0
 11 19  1  0  0  0
 19 20  2  0  0  0
 19 21  1  0  0  0
 21 22  2  0  0  0
 22 23  1  0  0  0
 23 24  2  0  0  0
 24 25  1  0  0  0
 24 26  1  0  0  0
 26 27  2  0  0  0
 12  1  1  0  0  0
 27 21  1  0  0  0
 10  3  1  0  0  0
 15 18  1  0  0  0
  6 13  1  0  0  0
  8 14  1  0  0  0
 25 28  1  0  0  0
M  END
> <minimizedAffinity>
-6.33309

> <CNNscore>
0.2734143436

> <CNNaffinity>
4.6672983170

> <CNN_VS>
1.2761063576

> <CNNaffinity_variance>
0.0532431714

$$$$
[H]OC(=O)c1nc(C(=O)c2c([H])c([H])c(O[H])c([H])c2[H])c2c([H])c(O[H])c(O[H])c([H])c2c1[H]


 28 30  0  0  0  0  0  0  0  0999 V2000
  154.0172  135.0275  182.9047 C   0  0  0  0  0  0  0  0  0  0  0  0
  152.8676  134.9009  182.1564 C   0  0  0  0  0  0  0  0  0  0  0  0
  151.9284  135.9079  182.1349 C   0  0  0  0  0  0  0  0  0  0  0  0
  150.7833  135.7564  181.3623 C   0  0  0  0  0  0  0  0  0  0  0  0
  149.8627  136.7812  181.3457 C   0  0  0  0  0  0  0  0  0  0  0  0
  148.7311  136.5874  180.5593 O   0  0  0  0  0  0  0  0  0  0  0  0
  150.0908  137.9183  182.0830 C   0  0  0  0  0  0  0  0  0  0  0  0
  149.1562  138.9396  182.0553 O   0  0  0  0  0  0  0  0  0  0  0  0
  151.2474  138.0664  182.8612 C   0  0  0  0  0  0  0  0  0  0  0  0
  152.1791  137.0562  182.8940 C   0  0  0  0  0  0  0  0  0  0  0  0
  153.3219  137.1867  183.6419 C   0  0  0  0  0  0  0  0  0  0  0  0
  154.2056  136.1496  183.6132 N   0  0  0  0  0  0  0  0  0  0  0  0
  148.0057  137.2897  180.4912 H   0  0  0  0  0  0  0  0  0  0  0  0
  149.2641  139.7999  182.5738 H   0  0  0  0  0  0  0  0  0  0  0  0
  155.4223  133.3862  181.7281 O   0  0  0  0  0  0  0  0  0  0  0  0
  154.9941  133.9422  182.9059 C   0  0  0  0  0  0  0  0  0  0  0  0
  155.4340  133.5278  183.9923 O   0  0  0  0  0  0  0  0  0  0  0  0
  154.8674  132.7441  181.1792 H   0  0  0  0  0  0  0  0  0  0  0  0
  153.6286  138.3440  184.4965 C   0  0  0  0  0  0  0  0  0  0  0  0
  153.2052  138.4870  185.6607 O   0  0  0  0  0  0  0  0  0  0  0  0
  154.4825  139.4247  183.9936 C   0  0  0  0  0  0  0  0  0  0  0  0
  153.9481  140.3390  183.1356 C   0  0  0  0  0  0  0  0  0  0  0  0
  154.7333  141.3636  182.6479 C   0  0  0  0  0  0  0  0  0  0  0  0
  156.0568  141.4462  183.0399 C   0  0  0  0  0  0  0  0  0  0  0  0
  156.8914  142.4667  182.5721 O   0  0  0  0  0  0  0  0  0  0  0  0
  156.6055  140.5245  183.9081 C   0  0  0  0  0  0  0  0  0  0  0  0
  155.7927  139.5146  184.3755 C   0  0  0  0  0  0  0  0  0  0  0  0
  156.9259  143.3178  183.1182 H   0  0  0  0  0  0  0  0  0  0  0  0
 15 16  1  0  0  0
 16 17  2  0  0  0
 16  1  1  0  0  0
  1  2  2  0  0  0
  2  3  1  0  0  0
  3  4  2  0  0  0
  4  5  1  0  0  0
  5  6  1  0  0  0
  5  7  2  0  0  0
  7  8  1  0  0  0
  7  9  1  0  0  0
  9 10  2  0  0  0
 10 11  1  0  0  0
 11 12  2  0  0  0
 11 19  1  0  0  0
 19 20  2  0  0  0
 19 21  1  0  0  0
 21 22  2  0  0  0
 22 23  1  0  0  0
 23 24  2  0  0  0
 24 25  1  0  0  0
 24 26  1  0  0  0
 26 27  2  0  0  0
 12  1  1  0  0  0
 27 21  1  0  0  0
 10  3  1  0  0  0
 15 18  1  0  0  0
  6 13  1  0  0  0
  8 14  1  0  0  0
 25 28  1  0  0  0
M  END
> <minimizedAffinity>
-5.43200

> <CNNscore>
0.2583322823

> <CNNaffinity>
4.5492849350

> <CNN_VS>
1.1752271652

> <CNNaffinity_variance>
0.2096634358

$$$$
[H]OC(=O)c1nc(C(=O)c2c([H])c([H])c(O[H])c([H])c2[H])c2c([H])c(O[H])c(O[H])c([H])c2c1[H]


 28 30  0  0  0  0  0  0  0  0999 V2000
  155.4386  140.2217  183.5385 C   0  0  0  0  0  0  0  0  0  0  0  0
  156.0165  139.7047  184.6771 C   0  0  0  0  0  0  0  0  0  0  0  0
  155.4051  138.6877  185.3761 C   0  0  0  0  0  0  0  0  0  0  0  0
  156.0172  138.1789  186.5152 C   0  0  0  0  0  0  0  0  0  0  0  0
  155.3942  137.1536  187.1923 C   0  0  0  0  0  0  0  0  0  0  0  0
  156.0416  136.6747  188.3272 O   0  0  0  0  0  0  0  0  0  0  0  0
  154.1961  136.6597  186.7348 C   0  0  0  0  0  0  0  0  0  0  0  0
  153.5829  135.6285  187.4261 O   0  0  0  0  0  0  0  0  0  0  0  0
  153.5824  137.1765  185.5853 C   0  0  0  0  0  0  0  0  0  0  0  0
  154.1851  138.2007  184.8944 C   0  0  0  0  0  0  0  0  0  0  0  0
  153.6047  138.7130  183.7617 C   0  0  0  0  0  0  0  0  0  0  0  0
  154.2685  139.7171  183.1226 N   0  0  0  0  0  0  0  0  0  0  0  0
  155.6526  135.9235  188.8826 H   0  0  0  0  0  0  0  0  0  0  0  0
  152.7029  135.2215  187.1426 H   0  0  0  0  0  0  0  0  0  0  0  0
  156.0674  141.3606  181.4504 O   0  0  0  0  0  0  0  0  0  0  0  0
  156.1123  141.2992  182.8193 C   0  0  0  0  0  0  0  0  0  0  0  0
  156.7291  142.1631  183.4666 O   0  0  0  0  0  0  0  0  0  0  0  0
  156.6113  140.7602  180.8461 H   0  0  0  0  0  0  0  0  0  0  0  0
  152.3052  138.2806  183.2249 C   0  0  0  0  0  0  0  0  0  0  0  0
  151.5450  137.4735  183.7956 O   0  0  0  0  0  0  0  0  0  0  0  0
  151.8285  138.8034  181.9407 C   0  0  0  0  0  0  0  0  0  0  0  0
  152.7289  139.0010  180.9368 C   0  0  0  0  0  0  0  0  0  0  0  0
  152.3035  139.4940  179.7201 C   0  0  0  0  0  0  0  0  0  0  0  0
  150.9631  139.7812  179.5387 C   0  0  0  0  0  0  0  0  0  0  0  0
  150.4849  140.2825  178.3234 O   0  0  0  0  0  0  0  0  0  0  0  0
  150.0451  139.5841  180.5499 C   0  0  0  0  0  0  0  0  0  0  0  0
  150.5047  139.0905  181.7517 C   0  0  0  0  0  0  0  0  0  0  0  0
  150.1871  139.6054  177.6330 H   0  0  0  0  0  0  0  0  0  0  0  0
 15 16  1  0  0  0
 16 17  2  0  0  0
 16  1  1  0  0  0
  1  2  2  0  0  0
  2  3  1  0  0  0
  3  4  2  0  0  0
  4  5  1  0  0  0
  5  6  1  0  0  0
  5  7  2  0  0  0
  7  8  1  0  0  0
  7  9  1  0  0  0
  9 10  2  0  0  0
 10 11  1  0  0  0
 11 12  2  0  0  0
 11 19  1  0  0  0
 19 20  2  0  0  0
 19 21  1  0  0  0
 21 22  2  0  0  0
 22 23  1  0  0  0
 23 24  2  0  0  0
 24 25  1  0  0  0
 24 26  1  0  0  0
 26 27  2  0  0  0
 12  1  1  0  0  0
 27 21  1  0  0  0
 10  3  1  0  0  0
 15 18  1  0  0  0
  6 13  1  0  0  0
  8 14  1  0  0  0
 25 28  1  0  0  0
M  END
> <minimizedAffinity>
-6.97693

> <CNNscore>
0.2528746724

> <CNNaffinity>
4.7173442841

> <CNN_VS>
1.1928968430

> <CNNaffinity_variance>
0.2069810331

$$$$
[H]c1c([H])c([H])c2c(c1[H])c(C1=C(c3c([H])n(C([H])([H])[H])c4c([H])c([H])c([H])c([H])c34)C(=O)N([H])C1=O)c([H])n2[H]


 28 32  0  0  0  0  0  0  0  0999 V2000
  152.5095  136.1728  187.9808 C   0  0  0  0  0  0  0  0  0  0  0  0
  151.2585  135.9744  188.3199 C   0  0  0  0  0  0  0  0  0  0  0  0
  150.4181  136.5812  187.2493 C   0  0  0  0  0  0  0  0  0  0  0  0
  149.1744  136.5601  187.2711 O   0  0  0  0  0  0  0  0  0  0  0  0
  151.2527  137.1335  186.2886 N   0  0  0  0  0  0  0  0  0  0  0  0
  152.5756  136.9116  186.6893 C   0  0  0  0  0  0  0  0  0  0  0  0
  153.6665  137.2225  186.1595 O   0  0  0  0  0  0  0  0  0  0  0  0
  150.9986  137.6414  185.3959 H   0  0  0  0  0  0  0  0  0  0  0  0
  156.5491  133.8129  189.8930 C   0  0  0  0  0  0  0  0  0  0  0  0
  155.5495  134.8223  189.5835 N   0  0  0  0  0  0  0  0  0  0  0  0
  154.4642  134.6426  188.7734 C   0  0  0  0  0  0  0  0  0  0  0  0
  153.7298  135.7696  188.6961 C   0  0  0  0  0  0  0  0  0  0  0  0
  154.4115  136.6957  189.5116 C   0  0  0  0  0  0  0  0  0  0  0  0
  154.1801  138.0112  189.8408 C   0  0  0  0  0  0  0  0  0  0  0  0
  155.0483  138.6952  190.6861 C   0  0  0  0  0  0  0  0  0  0  0  0
  156.1467  138.0458  191.1951 C   0  0  0  0  0  0  0  0  0  0  0  0
  156.4073  136.7280  190.8836 C   0  0  0  0  0  0  0  0  0  0  0  0
  155.5274  136.0826  190.0434 C   0  0  0  0  0  0  0  0  0  0  0  0
  150.6697  135.3284  189.5011 C   0  0  0  0  0  0  0  0  0  0  0  0
  149.8477  134.1971  189.4256 C   0  0  0  0  0  0  0  0  0  0  0  0
  149.4059  133.8917  190.6607 N   0  0  0  0  0  0  0  0  0  0  0  0
  149.8996  134.7727  191.5502 C   0  0  0  0  0  0  0  0  0  0  0  0
  149.7158  134.8712  192.9058 C   0  0  0  0  0  0  0  0  0  0  0  0
  150.3394  135.9041  193.5710 C   0  0  0  0  0  0  0  0  0  0  0  0
  151.1171  136.7968  192.8787 C   0  0  0  0  0  0  0  0  0  0  0  0
  151.2930  136.6853  191.5164 C   0  0  0  0  0  0  0  0  0  0  0  0
  150.6898  135.6705  190.8206 C   0  0  0  0  0  0  0  0  0  0  0  0
  148.7630  133.0809  190.9095 H   0  0  0  0  0  0  0  0  0  0  0  0
  9 10  1  0  0  0
 10 11  1  0  0  0
 11 12  2  0  0  0
 12  1  1  0  0  0
  1  2  2  0  0  0
  2  3  1  0  0  0
  3  4  2  0  0  0
  3  5  1  0  0  0
  5  6  1  0  0  0
  6  7  2  0  0  0
  2 19  1  0  0  0
 19 20  2  0  0  0
 20 21  1  0  0  0
 21 22  1  0  0  0
 22 23  2  0  0  0
 23 24  1  0  0  0
 24 25  2  0  0  0
 25 26  1  0  0  0
 26 27  2  0  0  0
 12 13  1  0  0  0
 13 14  2  0  0  0
 14 15  1  0  0  0
 15 16  2  0  0  0
 16 17  1  0  0  0
 17 18  2  0  0  0
 18 10  1  0  0  0
  6  1  1  0  0  0
 27 19  1  0  0  0
 18 13  1  0  0  0
 27 22  1  0  0  0
  5  8  1  0  0  0
 21 28  1  0  0  0
M  END
> <minimizedAffinity>
-6.38095

> <CNNscore>
0.4376443028

> <CNNaffinity>
5.1217689514

> <CNN_VS>
2.2415130138

> <CNNaffinity_variance>
0.0413231477

$$$$
[H]c1c([H])c([H])c2c(c1[H])c(C1=C(c3c([H])n(C([H])([H])[H])c4c([H])c([H])c([H])c([H])c34)C(=O)N([H])C1=O)c([H])n2[H]


 28 32  0  0  0  0  0  0  0  0999 V2000
  153.5533  137.8189  186.0271 C   0  0  0  0  0  0  0  0  0  0  0  0
  153.9056  138.4195  184.9160 C   0  0  0  0  0  0  0  0  0  0  0  0
  152.9538  137.9711  183.8607 C   0  0  0  0  0  0  0  0  0  0  0  0
  153.0149  138.3647  182.6821 O   0  0  0  0  0  0  0  0  0  0  0  0
  152.0467  137.0872  184.4268 N   0  0  0  0  0  0  0  0  0  0  0  0
  152.3692  136.9493  185.7821 C   0  0  0  0  0  0  0  0  0  0  0  0
  151.8484  136.2677  186.6941 O   0  0  0  0  0  0  0  0  0  0  0  0
  151.2381  136.5781  183.9724 H   0  0  0  0  0  0  0  0  0  0  0  0
  154.8763  138.9572  190.7703 C   0  0  0  0  0  0  0  0  0  0  0  0
  154.8185  138.3354  189.4573 N   0  0  0  0  0  0  0  0  0  0  0  0
  153.9636  138.6844  188.4505 C   0  0  0  0  0  0  0  0  0  0  0  0
  154.1671  137.9199  187.3599 C   0  0  0  0  0  0  0  0  0  0  0  0
  155.2135  137.0489  187.7256 C   0  0  0  0  0  0  0  0  0  0  0  0
  155.8709  136.0361  187.0665 C   0  0  0  0  0  0  0  0  0  0  0  0
  156.8870  135.3223  187.6943 C   0  0  0  0  0  0  0  0  0  0  0  0
  157.2343  135.6360  188.9859 C   0  0  0  0  0  0  0  0  0  0  0  0
  156.5940  136.6447  189.6743 C   0  0  0  0  0  0  0  0  0  0  0  0
  155.5927  137.3295  189.0224 C   0  0  0  0  0  0  0  0  0  0  0  0
  155.0103  139.3444  184.6275 C   0  0  0  0  0  0  0  0  0  0  0  0
  156.3288  139.1154  185.0402 C   0  0  0  0  0  0  0  0  0  0  0  0
  157.0876  140.1729  184.6939 N   0  0  0  0  0  0  0  0  0  0  0  0
  156.3279  141.0922  184.0705 C   0  0  0  0  0  0  0  0  0  0  0  0
  156.6542  142.3220  183.5585 C   0  0  0  0  0  0  0  0  0  0  0  0
  155.6514  143.0712  182.9827 C   0  0  0  0  0  0  0  0  0  0  0  0
  154.3709  142.5826  182.9334 C   0  0  0  0  0  0  0  0  0  0  0  0
  154.0576  141.3448  183.4518 C   0  0  0  0  0  0  0  0  0  0  0  0
  155.0283  140.5702  184.0312 C   0  0  0  0  0  0  0  0  0  0  0  0
  158.1301  140.2790  184.8799 H   0  0  0  0  0  0  0  0  0  0  0  0
  9 10  1  0  0  0
 10 11  1  0  0  0
 11 12  2  0  0  0
 12  1  1  0  0  0
  1  2  2  0  0  0
  2  3  1  0  0  0
  3  4  2  0  0  0
  3  5  1  0  0  0
  5  6  1  0  0  0
  6  7  2  0  0  0
  2 19  1  0  0  0
 19 20  2  0  0  0
 20 21  1  0  0  0
 21 22  1  0  0  0
 22 23  2  0  0  0
 23 24  1  0  0  0
 24 25  2  0  0  0
 25 26  1  0  0  0
 26 27  2  0  0  0
 12 13  1  0  0  0
 13 14  2  0  0  0
 14 15  1  0  0  0
 15 16  2  0  0  0
 16 17  1  0  0  0
 17 18  2  0  0  0
 18 10  1  0  0  0
  6  1  1  0  0  0
 27 19  1  0  0  0
 18 13  1  0  0  0
 27 22  1  0  0  0
  5  8  1  0  0  0
 21 28  1  0  0  0
M  END
> <minimizedAffinity>
-7.59673

> <CNNscore>
0.4230296910

> <CNNaffinity>
5.4961452484

> <CNN_VS>
2.3250327110

> <CNNaffinity_variance>
0.0724222809

$$$$
[H]c1c([H])c([H])c2c(c1[H])c(C1=C(c3c([H])n(C([H])([H])[H])c4c([H])c([H])c([H])c([H])c34)C(=O)N([H])C1=O)c([H])n2[H]


 28 32  0  0  0  0  0  0  0  0999 V2000
  152.0520  135.0737  183.0601 C   0  0  0  0  0  0  0  0  0  0  0  0
  151.5832  136.2979  183.0925 C   0  0  0  0  0  0  0  0  0  0  0  0
  150.6204  136.3629  184.2282 C   0  0  0  0  0  0  0  0  0  0  0  0
  150.0001  137.3976  184.5316 O   0  0  0  0  0  0  0  0  0  0  0  0
  150.5657  135.1172  184.8363 N   0  0  0  0  0  0  0  0  0  0  0  0
  151.4394  134.2651  184.1504 C   0  0  0  0  0  0  0  0  0  0  0  0
  151.7277  133.0588  184.3221 O   0  0  0  0  0  0  0  0  0  0  0  0
  149.9907  134.8048  185.6677 H   0  0  0  0  0  0  0  0  0  0  0  0
  156.1691  133.4656  180.6090 C   0  0  0  0  0  0  0  0  0  0  0  0
  154.7868  133.7208  180.9805 N   0  0  0  0  0  0  0  0  0  0  0  0
  154.3765  134.4315  182.0727 C   0  0  0  0  0  0  0  0  0  0  0  0
  153.0316  134.4901  182.1311 C   0  0  0  0  0  0  0  0  0  0  0  0
  152.5943  133.7686  181.0017 C   0  0  0  0  0  0  0  0  0  0  0  0
  151.3494  133.4594  180.5046 C   0  0  0  0  0  0  0  0  0  0  0  0
  151.2157  132.7059  179.3425 C   0  0  0  0  0  0  0  0  0  0  0  0
  152.3415  132.2687  178.6877 C   0  0  0  0  0  0  0  0  0  0  0  0
  153.6034  132.5607  179.1607 C   0  0  0  0  0  0  0  0  0  0  0  0
  153.6981  133.3076  180.3138 C   0  0  0  0  0  0  0  0  0  0  0  0
  151.8467  137.4554  182.2267 C   0  0  0  0  0  0  0  0  0  0  0  0
  152.9116  138.3408  182.4344 C   0  0  0  0  0  0  0  0  0  0  0  0
  152.8408  139.3340  181.5275 N   0  0  0  0  0  0  0  0  0  0  0  0
  151.7743  139.1443  180.7289 C   0  0  0  0  0  0  0  0  0  0  0  0
  151.2956  139.8942  179.6852 C   0  0  0  0  0  0  0  0  0  0  0  0
  150.1519  139.4637  179.0488 C   0  0  0  0  0  0  0  0  0  0  0  0
  149.5261  138.3158  179.4629 C   0  0  0  0  0  0  0  0  0  0  0  0
  150.0186  137.5720  180.5132 C   0  0  0  0  0  0  0  0  0  0  0  0
  151.1545  137.9677  181.1699 C   0  0  0  0  0  0  0  0  0  0  0  0
  153.5176  140.1510  181.4444 H   0  0  0  0  0  0  0  0  0  0  0  0
  9 10  1  0  0  0
 10 11  1  0  0  0
 11 12  2  0  0  0
 12  1  1  0  0  0
  1  2  2  0  0  0
  2  3  1  0  0  0
  3  4  2  0  0  0
  3  5  1  0  0  0
  5  6  1  0  0  0
  6  7  2  0  0  0
  2 19  1  0  0  0
 19 20  2  0  0  0
 20 21  1  0  0  0
 21 22  1  0  0  0
 22 23  2  0  0  0
 23 24  1  0  0  0
 24 25  2  0  0  0
 25 26  1  0  0  0
 26 27  2  0  0  0
 12 13  1  0  0  0
 13 14  2  0  0  0
 14 15  1  0  0  0
 15 16  2  0  0  0
 16 17  1  0  0  0
 17 18  2  0  0  0
 18 10  1  0  0  0
  6  1  1  0  0  0
 27 19  1  0  0  0
 18 13  1  0  0  0
 27 22  1  0  0  0
  5  8  1  0  0  0
 21 28  1  0  0  0
M  END
> <minimizedAffinity>
-5.61735

> <CNNscore>
0.3942673206

> <CNNaffinity>
4.7986211777

> <CNN_VS>
1.8919395208

> <CNNaffinity_variance>
0.1164086610

$$$$
[H]c1c([H])c([H])c2c(c1[H])c(C1=C(c3c([H])n(C([H])([H])[H])c4c([H])c([H])c([H])c([H])c34)C(=O)N([H])C1=O)c([H])n2[H]


 28 32  0  0  0  0  0  0  0  0999 V2000
  151.2652  135.5384  189.0024 C   0  0  0  0  0  0  0  0  0  0  0  0
  152.1260  136.1684  188.2399 C   0  0  0  0  0  0  0  0  0  0  0  0
  151.3485  136.7892  187.1304 C   0  0  0  0  0  0  0  0  0  0  0  0
  151.8763  137.4659  186.2298 O   0  0  0  0  0  0  0  0  0  0  0  0
  150.0070  136.4798  187.3005 N   0  0  0  0  0  0  0  0  0  0  0  0
  149.8891  135.6973  188.4554 C   0  0  0  0  0  0  0  0  0  0  0  0
  148.8925  135.1806  189.0098 O   0  0  0  0  0  0  0  0  0  0  0  0
  149.1776  136.7540  186.7034 H   0  0  0  0  0  0  0  0  0  0  0  0
  152.2352  132.0165  192.4952 C   0  0  0  0  0  0  0  0  0  0  0  0
  151.9580  133.2878  191.8466 N   0  0  0  0  0  0  0  0  0  0  0  0
  151.7567  133.4687  190.5075 C   0  0  0  0  0  0  0  0  0  0  0  0
  151.5180  134.7649  190.2276 C   0  0  0  0  0  0  0  0  0  0  0  0
  151.5778  135.4159  191.4766 C   0  0  0  0  0  0  0  0  0  0  0  0
  151.4298  136.7275  191.8641 C   0  0  0  0  0  0  0  0  0  0  0  0
  151.5512  137.0910  193.2017 C   0  0  0  0  0  0  0  0  0  0  0  0
  151.8212  136.1264  194.1420 C   0  0  0  0  0  0  0  0  0  0  0  0
  151.9760  134.8033  193.7859 C   0  0  0  0  0  0  0  0  0  0  0  0
  151.8503  134.4798  192.4532 C   0  0  0  0  0  0  0  0  0  0  0  0
  153.5876  136.2900  188.3309 C   0  0  0  0  0  0  0  0  0  0  0  0
  154.4698  135.5144  187.5685 C   0  0  0  0  0  0  0  0  0  0  0  0
  155.7343  135.8022  187.9319 N   0  0  0  0  0  0  0  0  0  0  0  0
  155.7269  136.7344  188.9024 C   0  0  0  0  0  0  0  0  0  0  0  0
  156.7615  137.3202  189.5860 C   0  0  0  0  0  0  0  0  0  0  0  0
  156.4537  138.2457  190.5592 C   0  0  0  0  0  0  0  0  0  0  0  0
  155.1440  138.5577  190.8207 C   0  0  0  0  0  0  0  0  0  0  0  0
  154.1145  137.9612  190.1256 C   0  0  0  0  0  0  0  0  0  0  0  0
  154.3814  137.0369  189.1496 C   0  0  0  0  0  0  0  0  0  0  0  0
  156.6146  135.3656  187.5229 H   0  0  0  0  0  0  0  0  0  0  0  0
  9 10  1  0  0  0
 10 11  1  0  0  0
 11 12  2  0  0  0
 12  1  1  0  0  0
  1  2  2  0  0  0
  2  3  1  0  0  0
  3  4  2  0  0  0
  3  5  1  0  0  0
  5  6  1  0  0  0
  6  7  2  0  0  0
  2 19  1  0  0  0
 19 20  2  0  0  0
 20 21  1  0  0  0
 21 22  1  0  0  0
 22 23  2  0  0  0
 23 24  1  0  0  0
 24 25  2  0  0  0
 25 26  1  0  0  0
 26 27  2  0  0  0
 12 13  1  0  0  0
 13 14  2  0  0  0
 14 15  1  0  0  0
 15 16  2  0  0  0
 16 17  1  0  0  0
 17 18  2  0  0  0
 18 10  1  0  0  0
  6  1  1  0  0  0
 27 19  1  0  0  0
 18 13  1  0  0  0
 27 22  1  0  0  0
  5  8  1  0  0  0
 21 28  1  0  0  0
M  END
> <minimizedAffinity>
-6.26942

> <CNNscore>
0.3727332652

> <CNNaffinity>
4.9850006104

> <CNN_VS>
1.8580754995

> <CNNaffinity_variance>
0.0984637290

$$$$
[H]c1c([H])c([H])c2c(c1[H])c(C1=C(c3c([H])n(C([H])([H])[H])c4c([H])c([H])c([H])c([H])c34)C(=O)N([H])C1=O)c([H])n2[H]


 28 32  0  0  0  0  0  0  0  0999 V2000
  155.2061  136.3178  190.0765 C   0  0  0  0  0  0  0  0  0  0  0  0
  155.0614  136.4785  188.7832 C   0  0  0  0  0  0  0  0  0  0  0  0
  155.9921  137.5686  188.3754 C   0  0  0  0  0  0  0  0  0  0  0  0
  156.0990  137.9635  187.2005 O   0  0  0  0  0  0  0  0  0  0  0  0
  156.6696  138.0182  189.4994 N   0  0  0  0  0  0  0  0  0  0  0  0
  156.2212  137.2749  190.5977 C   0  0  0  0  0  0  0  0  0  0  0  0
  156.5313  137.3160  191.8101 O   0  0  0  0  0  0  0  0  0  0  0  0
  157.4013  138.7783  189.5782 H   0  0  0  0  0  0  0  0  0  0  0  0
  153.5422  132.3076  192.6637 C   0  0  0  0  0  0  0  0  0  0  0  0
  153.7260  133.6645  192.1748 N   0  0  0  0  0  0  0  0  0  0  0  0
  154.5924  134.0425  191.1886 C   0  0  0  0  0  0  0  0  0  0  0  0
  154.5192  135.3694  190.9665 C   0  0  0  0  0  0  0  0  0  0  0  0
  153.5454  135.8297  191.8760 C   0  0  0  0  0  0  0  0  0  0  0  0
  153.0235  137.0728  192.1493 C   0  0  0  0  0  0  0  0  0  0  0  0
  152.0514  137.2347  193.1316 C   0  0  0  0  0  0  0  0  0  0  0  0
  151.6109  136.1387  193.8331 C   0  0  0  0  0  0  0  0  0  0  0  0
  152.1146  134.8795  193.5838 C   0  0  0  0  0  0  0  0  0  0  0  0
  153.0761  134.7565  192.6055 C   0  0  0  0  0  0  0  0  0  0  0  0
  154.1763  135.8082  187.8206 C   0  0  0  0  0  0  0  0  0  0  0  0
  154.4844  134.5796  187.2233 C   0  0  0  0  0  0  0  0  0  0  0  0
  153.5197  134.2678  186.3368 N   0  0  0  0  0  0  0  0  0  0  0  0
  152.5867  135.2376  186.3212 C   0  0  0  0  0  0  0  0  0  0  0  0
  151.4418  135.3634  185.5767 C   0  0  0  0  0  0  0  0  0  0  0  0
  150.6720  136.4918  185.7573 C   0  0  0  0  0  0  0  0  0  0  0  0
  151.0576  137.4491  186.6605 C   0  0  0  0  0  0  0  0  0  0  0  0
  152.2107  137.3091  187.4021 C   0  0  0  0  0  0  0  0  0  0  0  0
  153.0014  136.2001  187.2510 C   0  0  0  0  0  0  0  0  0  0  0  0
  153.4880  133.3919  185.7331 H   0  0  0  0  0  0  0  0  0  0  0  0
  9 10  1  0  0  0
 10 11  1  0  0  0
 11 12  2  0  0  0
 12  1  1  0  0  0
  1  2  2  0  0  0
  2  3  1  0  0  0
  3  4  2  0  0  0
  3  5  1  0  0  0
  5  6  1  0  0  0
  6  7  2  0  0  0
  2 19  1  0  0  0
 19 20  2  0  0  0
 20 21  1  0  0  0
 21 22  1  0  0  0
 22 23  2  0  0  0
 23 24  1  0  0  0
 24 25  2  0  0  0
 25 26  1  0  0  0
 26 27  2  0  0  0
 12 13  1  0  0  0
 13 14  2  0  0  0
 14 15  1  0  0  0
 15 16  2  0  0  0
 16 17  1  0  0  0
 17 18  2  0  0  0
 18 10  1  0  0  0
  6  1  1  0  0  0
 27 19  1  0  0  0
 18 13  1  0  0  0
 27 22  1  0  0  0
  5  8  1  0  0  0
 21 28  1  0  0  0
M  END
> <minimizedAffinity>
-5.84200

> <CNNscore>
0.3533803821

> <CNNaffinity>
5.0914382935

> <CNN_VS>
1.7992143631

> <CNNaffinity_variance>
0.0743191242

$$$$
[H]c1c([H])c([H])c2c(c1[H])c(C1=C(c3c([H])n(C([H])([H])[H])c4c([H])c([H])c([H])c([H])c34)C(=O)N([H])C1=O)c([H])n2[H]


 28 32  0  0  0  0  0  0  0  0999 V2000
  155.7400  136.9733  189.4425 C   0  0  0  0  0  0  0  0  0  0  0  0
  156.2914  135.8239  189.7497 C   0  0  0  0  0  0  0  0  0  0  0  0
  156.5983  135.8667  191.2074 C   0  0  0  0  0  0  0  0  0  0  0  0
  157.1282  134.9199  191.8158 O   0  0  0  0  0  0  0  0  0  0  0  0
  156.1956  137.0953  191.7104 N   0  0  0  0  0  0  0  0  0  0  0  0
  155.6505  137.8348  190.6540 C   0  0  0  0  0  0  0  0  0  0  0  0
  155.1618  138.9867  190.6127 O   0  0  0  0  0  0  0  0  0  0  0  0
  156.2607  137.4655  192.6994 H   0  0  0  0  0  0  0  0  0  0  0  0
  155.1415  138.8739  184.7977 C   0  0  0  0  0  0  0  0  0  0  0  0
  154.8872  138.2348  186.0786 N   0  0  0  0  0  0  0  0  0  0  0  0
  155.8058  138.0587  187.0744 C   0  0  0  0  0  0  0  0  0  0  0  0
  155.2531  137.4375  188.1346 C   0  0  0  0  0  0  0  0  0  0  0  0
  153.9111  137.2211  187.7608 C   0  0  0  0  0  0  0  0  0  0  0  0
  152.8397  136.6332  188.3923 C   0  0  0  0  0  0  0  0  0  0  0  0
  151.6013  136.5521  187.7631 C   0  0  0  0  0  0  0  0  0  0  0  0
  151.4515  137.0664  186.4981 C   0  0  0  0  0  0  0  0  0  0  0  0
  152.5059  137.6610  185.8376 C   0  0  0  0  0  0  0  0  0  0  0  0
  153.7171  137.7228  186.4901 C   0  0  0  0  0  0  0  0  0  0  0  0
  156.6233  134.6596  188.9170 C   0  0  0  0  0  0  0  0  0  0  0  0
  155.6792  133.7004  188.5300 C   0  0  0  0  0  0  0  0  0  0  0  0
  156.3015  132.7238  187.8423 N   0  0  0  0  0  0  0  0  0  0  0  0
  157.6169  132.9951  187.7582 C   0  0  0  0  0  0  0  0  0  0  0  0
  158.6384  132.2907  187.1739 C   0  0  0  0  0  0  0  0  0  0  0  0
  159.9133  132.8060  187.2604 C   0  0  0  0  0  0  0  0  0  0  0  0
  160.1325  133.9903  187.9162 C   0  0  0  0  0  0  0  0  0  0  0  0
  159.0963  134.6875  188.4986 C   0  0  0  0  0  0  0  0  0  0  0  0
  157.8145  134.2073  188.4323 C   0  0  0  0  0  0  0  0  0  0  0  0
  155.8363  131.8626  187.4246 H   0  0  0  0  0  0  0  0  0  0  0  0
  9 10  1  0  0  0
 10 11  1  0  0  0
 11 12  2  0  0  0
 12  1  1  0  0  0
  1  2  2  0  0  0
  2  3  1  0  0  0
  3  4  2  0  0  0
  3  5  1  0  0  0
  5  6  1  0  0  0
  6  7  2  0  0  0
  2 19  1  0  0  0
 19 20  2  0  0  0
 20 21  1  0  0  0
 21 22  1  0  0  0
 22 23  2  0  0  0
 23 24  1  0  0  0
 24 25  2  0  0  0
 25 26  1  0  0  0
 26 27  2  0  0  0
 12 13  1  0  0  0
 13 14  2  0  0  0
 14 15  1  0  0  0
 15 16  2  0  0  0
 16 17  1  0  0  0
 17 18  2  0  0  0
 18 10  1  0  0  0
  6  1  1  0  0  0
 27 19  1  0  0  0
 18 13  1  0  0  0
 27 22  1  0  0  0
  5  8  1  0  0  0
 21 28  1  0  0  0
M  END
> <minimizedAffinity>
-6.36319

> <CNNscore>
0.3370427191

> <CNNaffinity>
5.0742001534

> <CNN_VS>
1.7102222443

> <CNNaffinity_variance>
0.2448578626

$$$$
[H]c1c([H])c([H])c2c(c1[H])c(C1=C(c3c([H])n(C([H])([H])[H])c4c([H])c([H])c([H])c([H])c34)C(=O)N([H])C1=O)c([H])n2[H]


 28 32  0  0  0  0  0  0  0  0999 V2000
  151.8644  135.3669  190.5108 C   0  0  0  0  0  0  0  0  0  0  0  0
  151.1569  135.5666  189.4251 C   0  0  0  0  0  0  0  0  0  0  0  0
  149.7331  135.6794  189.8506 C   0  0  0  0  0  0  0  0  0  0  0  0
  148.8009  135.8759  189.0506 O   0  0  0  0  0  0  0  0  0  0  0  0
  149.6682  135.5329  191.2285 N   0  0  0  0  0  0  0  0  0  0  0  0
  150.9706  135.3333  191.7017 C   0  0  0  0  0  0  0  0  0  0  0  0
  151.4148  135.1513  192.8580 O   0  0  0  0  0  0  0  0  0  0  0  0
  148.8221  135.5575  191.8634 H   0  0  0  0  0  0  0  0  0  0  0  0
  156.6165  133.6691  190.7932 C   0  0  0  0  0  0  0  0  0  0  0  0
  155.4551  134.5432  190.7610 N   0  0  0  0  0  0  0  0  0  0  0  0
  154.1581  134.1357  190.6274 C   0  0  0  0  0  0  0  0  0  0  0  0
  153.3188  135.1897  190.6393 C   0  0  0  0  0  0  0  0  0  0  0  0
  154.1586  136.3119  190.7899 C   0  0  0  0  0  0  0  0  0  0  0  0
  153.9200  137.6646  190.8653 C   0  0  0  0  0  0  0  0  0  0  0  0
  154.9713  138.5644  191.0110 C   0  0  0  0  0  0  0  0  0  0  0  0
  156.2596  138.0923  191.0804 C   0  0  0  0  0  0  0  0  0  0  0  0
  156.5323  136.7426  191.0070 C   0  0  0  0  0  0  0  0  0  0  0  0
  155.4676  135.8812  190.8618 C   0  0  0  0  0  0  0  0  0  0  0  0
  151.5580  135.6519  188.0140 C   0  0  0  0  0  0  0  0  0  0  0  0
  151.3872  134.6010  187.1042 C   0  0  0  0  0  0  0  0  0  0  0  0
  151.9202  134.9548  185.9191 N   0  0  0  0  0  0  0  0  0  0  0  0
  152.4370  136.1944  186.0056 C   0  0  0  0  0  0  0  0  0  0  0  0
  153.0874  136.9580  185.0703 C   0  0  0  0  0  0  0  0  0  0  0  0
  153.5341  138.2052  185.4489 C   0  0  0  0  0  0  0  0  0  0  0  0
  153.3239  138.6508  186.7288 C   0  0  0  0  0  0  0  0  0  0  0  0
  152.6685  137.8725  187.6582 C   0  0  0  0  0  0  0  0  0  0  0  0
  152.2087  136.6271  187.3184 C   0  0  0  0  0  0  0  0  0  0  0  0
  151.9379  134.3550  185.0402 H   0  0  0  0  0  0  0  0  0  0  0  0
  9 10  1  0  0  0
 10 11  1  0  0  0
 11 12  2  0  0  0
 12  1  1  0  0  0
  1  2  2  0  0  0
  2  3  1  0  0  0
  3  4  2  0  0  0
  3  5  1  0  0  0
  5  6  1  0  0  0
  6  7  2  0  0  0
  2 19  1  0  0  0
 19 20  2  0  0  0
 20 21  1  0  0  0
 21 22  1  0  0  0
 22 23  2  0  0  0
 23 24  1  0  0  0
 24 25  2  0  0  0
 25 26  1  0  0  0
 26 27  2  0  0  0
 12 13  1  0  0  0
 13 14  2  0  0  0
 14 15  1  0  0  0
 15 16  2  0  0  0
 16 17  1  0  0  0
 17 18  2  0  0  0
 18 10  1  0  0  0
  6  1  1  0  0  0
 27 19  1  0  0  0
 18 13  1  0  0  0
 27 22  1  0  0  0
  5  8  1  0  0  0
 21 28  1  0  0  0
M  END
> <minimizedAffinity>
-6.09749

> <CNNscore>
0.3328287601

> <CNNaffinity>
5.0186576843

> <CNN_VS>
1.6703536510

> <CNNaffinity_variance>
0.0532433614

$$$$
[H]c1c([H])c([H])c2c(c1[H])c(C1=C(c3c([H])n(C([H])([H])[H])c4c([H])c([H])c([H])c([H])c34)C(=O)N([H])C1=O)c([H])n2[H]


 28 32  0  0  0  0  0  0  0  0999 V2000
  156.5061  134.3010  188.5298 C   0  0  0  0  0  0  0  0  0  0  0  0
  156.4500  134.4836  189.8270 C   0  0  0  0  0  0  0  0  0  0  0  0
  157.7156  133.9402  190.3960 C   0  0  0  0  0  0  0  0  0  0  0  0
  157.9762  133.9636  191.6122 O   0  0  0  0  0  0  0  0  0  0  0  0
  158.4902  133.4402  189.3594 N   0  0  0  0  0  0  0  0  0  0  0  0
  157.7875  133.6356  188.1645 C   0  0  0  0  0  0  0  0  0  0  0  0
  158.0715  133.3517  186.9786 O   0  0  0  0  0  0  0  0  0  0  0  0
  159.4440  132.9838  189.3988 H   0  0  0  0  0  0  0  0  0  0  0  0
  152.7437  134.4695  185.1593 C   0  0  0  0  0  0  0  0  0  0  0  0
  153.8607  134.8435  186.0115 N   0  0  0  0  0  0  0  0  0  0  0  0
  154.5211  134.0080  186.8671 C   0  0  0  0  0  0  0  0  0  0  0  0
  155.5108  134.6600  187.5081 C   0  0  0  0  0  0  0  0  0  0  0  0
  155.4495  135.9778  187.0111 C   0  0  0  0  0  0  0  0  0  0  0  0
  156.1762  137.1171  187.2684 C   0  0  0  0  0  0  0  0  0  0  0  0
  155.8807  138.3105  186.6167 C   0  0  0  0  0  0  0  0  0  0  0  0
  154.8518  138.3464  185.7070 C   0  0  0  0  0  0  0  0  0  0  0  0
  154.1039  137.2221  185.4275 C   0  0  0  0  0  0  0  0  0  0  0  0
  154.4236  136.0589  186.0918 C   0  0  0  0  0  0  0  0  0  0  0  0
  155.4000  135.0641  190.6753 C   0  0  0  0  0  0  0  0  0  0  0  0
  154.3874  134.3017  191.2707 C   0  0  0  0  0  0  0  0  0  0  0  0
  153.5401  135.1249  191.9175 N   0  0  0  0  0  0  0  0  0  0  0  0
  153.9481  136.3994  191.7752 C   0  0  0  0  0  0  0  0  0  0  0  0
  153.4019  137.5689  192.2389 C   0  0  0  0  0  0  0  0  0  0  0  0
  154.0331  138.7509  191.9180 C   0  0  0  0  0  0  0  0  0  0  0  0
  155.1733  138.7359  191.1561 C   0  0  0  0  0  0  0  0  0  0  0  0
  155.7110  137.5529  190.6972 C   0  0  0  0  0  0  0  0  0  0  0  0
  155.1122  136.3573  190.9968 C   0  0  0  0  0  0  0  0  0  0  0  0
  152.6753  134.8265  192.4613 H   0  0  0  0  0  0  0  0  0  0  0  0
  9 10  1  0  0  0
 10 11  1  0  0  0
 11 12  2  0  0  0
 12  1  1  0  0  0
  1  2  2  0  0  0
  2  3  1  0  0  0
  3  4  2  0  0  0
  3  5  1  0  0  0
  5  6  1  0  0  0
  6  7  2  0  0  0
  2 19  1  0  0  0
 19 20  2  0  0  0
 20 21  1  0  0  0
 21 22  1  0  0  0
 22 23  2  0  0  0
 23 24  1  0  0  0
 24 25  2  0  0  0
 25 26  1  0  0  0
 26 27  2  0  0  0
 12 13  1  0  0  0
 13 14  2  0  0  0
 14 15  1  0  0  0
 15 16  2  0  0  0
 16 17  1  0  0  0
 17 18  2  0  0  0
 18 10  1  0  0  0
  6  1  1  0  0  0
 27 19  1  0  0  0
 18 13  1  0  0  0
 27 22  1  0  0  0
  5  8  1  0  0  0
 21 28  1  0  0  0
M  END
> <minimizedAffinity>
-5.55277

> <CNNscore>
0.3320301771

> <CNNaffinity>
5.1594882011

> <CNN_VS>
1.7131057978

> <CNNaffinity_variance>
0.1118882298

$$$$
[H]c1c([H])c([H])c2c(c1[H])c(C1=C(c3c([H])n(C([H])([H])[H])c4c([H])c([H])c([H])c([H])c34)C(=O)N([H])C1=O)c([H])n2[H]


 28 32  0  0  0  0  0  0  0  0999 V2000
  152.3521  136.2703  183.8982 C   0  0  0  0  0  0  0  0  0  0  0  0
  151.2493  135.9066  184.5070 C   0  0  0  0  0  0  0  0  0  0  0  0
  151.2377  134.4165  184.5285 C   0  0  0  0  0  0  0  0  0  0  0  0
  150.3191  133.7539  185.0429 O   0  0  0  0  0  0  0  0  0  0  0  0
  152.3857  133.9541  183.9018 N   0  0  0  0  0  0  0  0  0  0  0  0
  153.1253  135.0668  183.4836 C   0  0  0  0  0  0  0  0  0  0  0  0
  154.2177  135.1576  182.8787 O   0  0  0  0  0  0  0  0  0  0  0  0
  152.7018  132.9577  183.7382 H   0  0  0  0  0  0  0  0  0  0  0  0
  154.6566  140.7683  183.8533 C   0  0  0  0  0  0  0  0  0  0  0  0
  153.8174  139.6357  183.4969 N   0  0  0  0  0  0  0  0  0  0  0  0
  153.7017  138.4773  184.2117 C   0  0  0  0  0  0  0  0  0  0  0  0
  152.8404  137.6289  183.6169 C   0  0  0  0  0  0  0  0  0  0  0  0
  152.4030  138.3146  182.4654 C   0  0  0  0  0  0  0  0  0  0  0  0
  151.5348  137.9912  181.4485 C   0  0  0  0  0  0  0  0  0  0  0  0
  151.2927  138.8851  180.4100 C   0  0  0  0  0  0  0  0  0  0  0  0
  151.9294  140.1025  180.4046 C   0  0  0  0  0  0  0  0  0  0  0  0
  152.8060  140.4564  181.4085 C   0  0  0  0  0  0  0  0  0  0  0  0
  153.0224  139.5468  182.4196 C   0  0  0  0  0  0  0  0  0  0  0  0
  150.1513  136.7029  185.0723 C   0  0  0  0  0  0  0  0  0  0  0  0
  149.9402  136.8483  186.4490 C   0  0  0  0  0  0  0  0  0  0  0  0
  148.8188  137.5670  186.6482 N   0  0  0  0  0  0  0  0  0  0  0  0
  148.2782  137.9030  185.4624 C   0  0  0  0  0  0  0  0  0  0  0  0
  147.1407  138.6102  185.1678 C   0  0  0  0  0  0  0  0  0  0  0  0
  146.8135  138.7883  183.8413 C   0  0  0  0  0  0  0  0  0  0  0  0
  147.6159  138.2652  182.8597 C   0  0  0  0  0  0  0  0  0  0  0  0
  148.7563  137.5567  183.1706 C   0  0  0  0  0  0  0  0  0  0  0  0
  149.1149  137.3600  184.4785 C   0  0  0  0  0  0  0  0  0  0  0  0
  148.4103  137.8347  187.5937 H   0  0  0  0  0  0  0  0  0  0  0  0
  9 10  1  0  0  0
 10 11  1  0  0  0
 11 12  2  0  0  0
 12  1  1  0  0  0
  1  2  2  0  0  0
  2  3  1  0  0  0
  3  4  2  0  0  0
  3  5  1  0  0  0
  5  6  1  0  0  0
  6  7  2  0  0  0
  2 19  1  0  0  0
 19 20  2  0  0  0
 20 21  1  0  0  0
 21 22  1  0  0  0
 22 23  2  0  0  0
 23 24  1  0  0  0
 24 25  2  0  0  0
 25 26  1  0  0  0
 26 27  2  0  0  0
 12 13  1  0  0  0
 13 14  2  0  0  0
 14 15  1  0  0  0
 15 16  2  0  0  0
 16 17  1  0  0  0
 17 18  2  0  0  0
 18 10  1  0  0  0
  6  1  1  0  0  0
 27 19  1  0  0  0
 18 13  1  0  0  0
 27 22  1  0  0  0
  5  8  1  0  0  0
 21 28  1  0  0  0
M  END
> <minimizedAffinity>
-6.04874

> <CNNscore>
0.3227988780

> <CNNaffinity>
5.1431932449

> <CNN_VS>
1.6602170467

> <CNNaffinity_variance>
0.0583662465

$$$$
[H]OC([H])([H])C([H])(C(=O)N([H])[C@]([H])(C(=O)N([H])[C@]([H])(C(=O)N([H])[C@]([H])(C(=O)N([H])[C@]([H])(C(=O)N([H])[C@]([H])(C(=O)N([H])[C@]([H])(C(=O)N([H])[C@]([H])(C(=O)N([H])[H])C([H])([H])C([H])(C([H])([H])[H])C([H])([H])[H])C([H])([H])O[H])C([H])([H])O[H])C([H])([H])O[H])C([H])([H])O[H])C([H])([H])O[H])C([H])([H])O[H])C([H])([H])O[H]


 69 68  0  0  0  0  0  0  0  0999 V2000
  153.0150  137.0924  188.9381 N   0  0  0  0  0  0  0  0  0  0  0  0
  151.8859  136.7056  188.2032 C   0  0  0  0  0  0  0  0  0  0  0  0
  151.6561  137.2580  187.1006 O   0  0  0  0  0  0  0  0  0  0  0  0
  153.2446  136.6553  189.8385 H   0  0  0  0  0  0  0  0  0  0  0  0
  150.9986  135.6453  188.7752 C   0  0  0  0  0  0  0  0  0  0  0  0
  149.7676  135.4984  188.0765 N   0  0  0  0  0  0  0  0  0  0  0  0
  148.4912  135.2344  188.5997 C   0  0  0  0  0  0  0  0  0  0  0  0
  148.3296  135.1153  189.8268 O   0  0  0  0  0  0  0  0  0  0  0  0
  149.8370  135.6007  187.0145 H   0  0  0  0  0  0  0  0  0  0  0  0
  147.3302  135.0971  187.6927 C   0  0  0  0  0  0  0  0  0  0  0  0
  147.3835  135.9884  186.5574 N   0  0  0  0  0  0  0  0  0  0  0  0
  146.4080  136.9352  186.2530 C   0  0  0  0  0  0  0  0  0  0  0  0
  145.3907  137.1008  186.9606 O   0  0  0  0  0  0  0  0  0  0  0  0
  148.2249  135.9046  185.9203 H   0  0  0  0  0  0  0  0  0  0  0  0
  146.5508  137.8035  185.0367 C   0  0  0  0  0  0  0  0  0  0  0  0
  145.2782  138.1160  184.4513 N   0  0  0  0  0  0  0  0  0  0  0  0
  144.9602  138.0175  183.0906 C   0  0  0  0  0  0  0  0  0  0  0  0
  145.8596  137.6178  182.3055 O   0  0  0  0  0  0  0  0  0  0  0  0
  144.5148  138.4551  185.1104 H   0  0  0  0  0  0  0  0  0  0  0  0
  143.6128  138.3667  182.5550 C   0  0  0  0  0  0  0  0  0  0  0  0
  143.1691  137.3478  181.5221 C   0  0  0  0  0  0  0  0  0  0  0  0
  143.3514  136.0517  181.9727 O   0  0  0  0  0  0  0  0  0  0  0  0
  143.8365  136.0727  182.8459 H   0  0  0  0  0  0  0  0  0  0  0  0
  142.6234  138.4569  183.6859 C   0  0  0  0  0  0  0  0  0  0  0  0
  142.7797  139.6573  184.3769 O   0  0  0  0  0  0  0  0  0  0  0  0
  143.5177  139.5235  185.0244 H   0  0  0  0  0  0  0  0  0  0  0  0
  147.4298  138.9777  185.2489 C   0  0  0  0  0  0  0  0  0  0  0  0
  147.9670  139.0554  186.5269 O   0  0  0  0  0  0  0  0  0  0  0  0
  148.9442  139.0983  186.5667 H   0  0  0  0  0  0  0  0  0  0  0  0
  147.0985  133.6977  187.2010 C   0  0  0  0  0  0  0  0  0  0  0  0
  147.9361  132.7870  187.8756 O   0  0  0  0  0  0  0  0  0  0  0  0
  148.8535  133.1689  187.8956 H   0  0  0  0  0  0  0  0  0  0  0  0
  151.7442  134.3563  188.9018 C   0  0  0  0  0  0  0  0  0  0  0  0
  151.4660  133.6955  190.1025 O   0  0  0  0  0  0  0  0  0  0  0  0
  152.2574  133.4319  190.6060 H   0  0  0  0  0  0  0  0  0  0  0  0
  153.9135  138.1453  188.4466 C   0  0  0  0  0  0  0  0  0  0  0  0
  154.2139  138.2678  185.9644 N   0  0  0  0  0  0  0  0  0  0  0  0
  154.5880  137.7362  187.2100 C   0  0  0  0  0  0  0  0  0  0  0  0
  155.5303  136.8844  187.2411 O   0  0  0  0  0  0  0  0  0  0  0  0
  153.4343  138.9841  185.8604 H   0  0  0  0  0  0  0  0  0  0  0  0
  154.8256  137.9001  184.6908 C   0  0  0  0  0  0  0  0  0  0  0  0
  154.5463  139.9307  183.2426 N   0  0  0  0  0  0  0  0  0  0  0  0
  155.3597  139.1422  184.0745 C   0  0  0  0  0  0  0  0  0  0  0  0
  156.5403  139.4771  184.3029 O   0  0  0  0  0  0  0  0  0  0  0  0
  153.5347  139.6217  183.0821 H   0  0  0  0  0  0  0  0  0  0  0  0
  154.9098  141.1377  182.5666 C   0  0  0  0  0  0  0  0  0  0  0  0
  157.3275  141.7198  182.4977 N   0  0  0  0  0  0  0  0  0  0  0  0
  156.0636  141.8534  183.1195 C   0  0  0  0  0  0  0  0  0  0  0  0
  155.9921  142.5975  184.1363 O   0  0  0  0  0  0  0  0  0  0  0  0
  157.4299  141.1196  181.6567 H   0  0  0  0  0  0  0  0  0  0  0  0
  158.5049  142.3931  182.9866 C   0  0  0  0  0  0  0  0  0  0  0  0
  158.8526  143.6241  182.2542 C   0  0  0  0  0  0  0  0  0  0  0  0
  158.7392  143.7222  180.8486 N   0  0  0  0  0  0  0  0  0  0  0  0
  159.2641  144.6172  182.8965 O   0  0  0  0  0  0  0  0  0  0  0  0
  159.5310  144.0861  180.3147 H   0  0  0  0  0  0  0  0  0  0  0  0
  157.8602  143.4234  180.3929 H   0  0  0  0  0  0  0  0  0  0  0  0
  159.6544  141.4750  183.2046 C   0  0  0  0  0  0  0  0  0  0  0  0
  161.2980  142.4870  184.8527 C   0  0  0  0  0  0  0  0  0  0  0  0
  160.2471  141.4456  184.5641 C   0  0  0  0  0  0  0  0  0  0  0  0
  159.1028  141.7363  185.5477 C   0  0  0  0  0  0  0  0  0  0  0  0
  153.6904  142.0095  182.3848 C   0  0  0  0  0  0  0  0  0  0  0  0
  153.9230  143.3464  182.5844 O   0  0  0  0  0  0  0  0  0  0  0  0
  153.7713  143.9301  181.8242 H   0  0  0  0  0  0  0  0  0  0  0  0
  153.7928  137.2058  183.8656 C   0  0  0  0  0  0  0  0  0  0  0  0
  152.5403  137.7191  184.2745 O   0  0  0  0  0  0  0  0  0  0  0  0
  152.2857  138.5092  183.7693 H   0  0  0  0  0  0  0  0  0  0  0  0
  154.8055  138.5042  189.5777 C   0  0  0  0  0  0  0  0  0  0  0  0
  154.5436  137.8651  190.7549 O   0  0  0  0  0  0  0  0  0  0  0  0
  155.3706  137.6499  191.2280 H   0  0  0  0  0  0  0  0  0  0  0  0
 58 59  1  0  0  0
 59 60  1  0  0  0
 59 57  1  0  0  0
 57 51  1  0  0  0
 51 47  1  0  0  0
 47 48  1  0  0  0
 48 49  2  0  0  0
 48 46  1  0  0  0
 46 61  1  0  0  0
 61 62  1  0  0  0
 46 42  1  0  0  0
 42 43  1  0  0  0
 43 44  2  0  0  0
 43 41  1  0  0  0
 41 64  1  0  0  0
 64 65  1  0  0  0
 41 37  1  0  0  0
 37 38  1  0  0  0
 38 39  2  0  0  0
 38 36  1  0  0  0
 36 67  1  0  0  0
 67 68  1  0  0  0
 36  1  1  0  0  0
  1  2  1  0  0  0
  2  3  2  0  0  0
  2  5  1  0  0  0
  5 33  1  0  0  0
 33 34  1  0  0  0
  5  6  1  0  0  0
  6  7  1  0  0  0
  7  8  2  0  0  0
  7 10  1  0  0  0
 10 30  1  0  0  0
 30 31  1  0  0  0
 10 11  1  0  0  0
 11 12  1  0  0  0
 12 13  2  0  0  0
 12 15  1  0  0  0
 15 27  1  0  0  0
 27 28  1  0  0  0
 15 16  1  0  0  0
 16 17  1  0  0  0
 17 18  2  0  0  0
 17 20  1  0  0  0
 20 21  1  0  0  0
 21 22  1  0  0  0
 20 24  1  0  0  0
 24 25  1  0  0  0
 51 52  1  0  0  0
 52 53  1  0  0  0
 52 54  2  0  0  0
 47 50  1  0  0  0
 62 63  1  0  0  0
 42 45  1  0  0  0
 65 66  1  0  0  0
 37 40  1  0  0  0
 68 69  1  0  0  0
  1  4  1  0  0  0
 34 35  1  0  0  0
  6  9  1  0  0  0
 31 32  1  0  0  0
 11 14  1  0  0  0
 28 29  1  0  0  0
 16 19  1  0  0  0
 22 23  1  0  0  0
 25 26  1  0  0  0
 53 55  1  0  0  0
 53 56  1  0  0  0
M  END
> <minimizedAffinity>
-5.94390

> <CNNscore>
0.3566029072

> <CNNaffinity>
5.5511322021

> <CNN_VS>
1.9795498848

> <CNNaffinity_variance>
0.6665784121

$$$$
[H]OC([H])([H])C([H])(C(=O)N([H])[C@]([H])(C(=O)N([H])[C@]([H])(C(=O)N([H])[C@]([H])(C(=O)N([H])[C@]([H])(C(=O)N([H])[C@]([H])(C(=O)N([H])[C@]([H])(C(=O)N([H])[C@]([H])(C(=O)N([H])[H])C([H])([H])C([H])(C([H])([H])[H])C([H])([H])[H])C([H])([H])O[H])C([H])([H])O[H])C([H])([H])O[H])C([H])([H])O[H])C([H])([H])O[H])C([H])([H])O[H])C([H])([H])O[H]


 69 68  0  0  0  0  0  0  0  0999 V2000
  154.9895  136.4179  187.4854 N   0  0  0  0  0  0  0  0  0  0  0  0
  155.1296  135.0262  187.5742 C   0  0  0  0  0  0  0  0  0  0  0  0
  154.2091  134.2909  187.1432 O   0  0  0  0  0  0  0  0  0  0  0  0
  155.7257  137.0533  187.8151 H   0  0  0  0  0  0  0  0  0  0  0  0
  156.3799  134.4787  188.1871 C   0  0  0  0  0  0  0  0  0  0  0  0
  157.1448  133.6765  187.2945 N   0  0  0  0  0  0  0  0  0  0  0  0
  157.0193  132.3036  187.0266 C   0  0  0  0  0  0  0  0  0  0  0  0
  156.1377  131.6331  187.5918 O   0  0  0  0  0  0  0  0  0  0  0  0
  157.9153  134.1978  186.7675 H   0  0  0  0  0  0  0  0  0  0  0  0
  157.9359  131.6466  186.0686 C   0  0  0  0  0  0  0  0  0  0  0  0
  158.8264  130.6949  186.6908 N   0  0  0  0  0  0  0  0  0  0  0  0
  159.8317  131.0312  187.5949 C   0  0  0  0  0  0  0  0  0  0  0  0
  160.0408  132.2094  187.9568 O   0  0  0  0  0  0  0  0  0  0  0  0
  158.6973  129.6764  186.4321 H   0  0  0  0  0  0  0  0  0  0  0  0
  160.7162  129.9649  188.1730 C   0  0  0  0  0  0  0  0  0  0  0  0
  160.4082  129.7044  189.5503 N   0  0  0  0  0  0  0  0  0  0  0  0
  161.3317  129.6888  190.6036 C   0  0  0  0  0  0  0  0  0  0  0  0
  162.5374  129.9261  190.3302 O   0  0  0  0  0  0  0  0  0  0  0  0
  159.3907  129.5024  189.7868 H   0  0  0  0  0  0  0  0  0  0  0  0
  160.9354  129.4035  192.0128 C   0  0  0  0  0  0  0  0  0  0  0  0
  160.6904  127.9189  192.2077 C   0  0  0  0  0  0  0  0  0  0  0  0
  161.5598  127.1542  191.4491 O   0  0  0  0  0  0  0  0  0  0  0  0
  162.0932  127.7552  190.8553 H   0  0  0  0  0  0  0  0  0  0  0  0
  162.0000  129.9039  192.9521 C   0  0  0  0  0  0  0  0  0  0  0  0
  163.1179  129.0724  192.9106 O   0  0  0  0  0  0  0  0  0  0  0  0
  162.9329  128.3100  193.5159 H   0  0  0  0  0  0  0  0  0  0  0  0
  160.8077  128.7509  187.3279 C   0  0  0  0  0  0  0  0  0  0  0  0
  159.7253  127.8910  187.4583 O   0  0  0  0  0  0  0  0  0  0  0  0
  159.2574  127.6801  186.6246 H   0  0  0  0  0  0  0  0  0  0  0  0
  157.2430  130.9811  184.9151 C   0  0  0  0  0  0  0  0  0  0  0  0
  158.1245  130.1172  184.2350 O   0  0  0  0  0  0  0  0  0  0  0  0
  158.9829  130.5989  184.0974 H   0  0  0  0  0  0  0  0  0  0  0  0
  157.1829  135.5794  188.8011 C   0  0  0  0  0  0  0  0  0  0  0  0
  156.5939  136.0832  189.9651 O   0  0  0  0  0  0  0  0  0  0  0  0
  156.4948  137.0524  189.9754 H   0  0  0  0  0  0  0  0  0  0  0  0
  153.7764  137.0217  186.9184 C   0  0  0  0  0  0  0  0  0  0  0  0
  154.7378  138.5602  185.1935 N   0  0  0  0  0  0  0  0  0  0  0  0
  153.9826  137.4219  185.5224 C   0  0  0  0  0  0  0  0  0  0  0  0
  153.4763  136.7427  184.5755 O   0  0  0  0  0  0  0  0  0  0  0  0
  155.1913  139.1773  185.9319 H   0  0  0  0  0  0  0  0  0  0  0  0
  154.9745  139.0306  183.8318 C   0  0  0  0  0  0  0  0  0  0  0  0
  156.8453  140.1593  182.5969 N   0  0  0  0  0  0  0  0  0  0  0  0
  156.3416  139.6113  183.7891 C   0  0  0  0  0  0  0  0  0  0  0  0
  157.0388  139.6058  184.8244 O   0  0  0  0  0  0  0  0  0  0  0  0
  156.2137  140.1616  181.7333 H   0  0  0  0  0  0  0  0  0  0  0  0
  158.1355  140.7399  182.3868 C   0  0  0  0  0  0  0  0  0  0  0  0
  159.7371  142.3702  183.3697 N   0  0  0  0  0  0  0  0  0  0  0  0
  158.3997  141.9834  183.1169 C   0  0  0  0  0  0  0  0  0  0  0  0
  157.4853  142.7440  183.5389 O   0  0  0  0  0  0  0  0  0  0  0  0
  160.5198  141.7746  183.0372 H   0  0  0  0  0  0  0  0  0  0  0  0
  160.0711  143.5786  184.0816 C   0  0  0  0  0  0  0  0  0  0  0  0
  159.9405  144.8120  183.2852 C   0  0  0  0  0  0  0  0  0  0  0  0
  159.2288  144.8492  182.0644 N   0  0  0  0  0  0  0  0  0  0  0  0
  160.4787  145.8634  183.7012 O   0  0  0  0  0  0  0  0  0  0  0  0
  159.6736  145.2722  181.2474 H   0  0  0  0  0  0  0  0  0  0  0  0
  158.2765  144.4475  182.0251 H   0  0  0  0  0  0  0  0  0  0  0  0
  161.3499  143.4784  184.8342 C   0  0  0  0  0  0  0  0  0  0  0  0
  160.0925  142.6640  186.8830 C   0  0  0  0  0  0  0  0  0  0  0  0
  161.2605  143.4283  186.3141 C   0  0  0  0  0  0  0  0  0  0  0  0
  162.5129  142.6849  186.8041 C   0  0  0  0  0  0  0  0  0  0  0  0
  158.4173  140.8386  180.9068 C   0  0  0  0  0  0  0  0  0  0  0  0
  157.4159  141.4357  180.1844 O   0  0  0  0  0  0  0  0  0  0  0  0
  157.6469  142.2564  179.7210 H   0  0  0  0  0  0  0  0  0  0  0  0
  153.8910  139.9965  183.4818 C   0  0  0  0  0  0  0  0  0  0  0  0
  152.9344  139.2729  182.7328 O   0  0  0  0  0  0  0  0  0  0  0  0
  152.2618  138.8598  183.2997 H   0  0  0  0  0  0  0  0  0  0  0  0
  153.3694  138.1072  187.8457 C   0  0  0  0  0  0  0  0  0  0  0  0
  153.0791  137.7108  189.1191 O   0  0  0  0  0  0  0  0  0  0  0  0
  153.3861  138.3712  189.7699 H   0  0  0  0  0  0  0  0  0  0  0  0
 58 59  1  0  0  0
 59 60  1  0  0  0
 59 57  1  0  0  0
 57 51  1  0  0  0
 51 47  1  0  0  0
 47 48  1  0  0  0
 48 49  2  0  0  0
 48 46  1  0  0  0
 46 61  1  0  0  0
 61 62  1  0  0  0
 46 42  1  0  0  0
 42 43  1  0  0  0
 43 44  2  0  0  0
 43 41  1  0  0  0
 41 64  1  0  0  0
 64 65  1  0  0  0
 41 37  1  0  0  0
 37 38  1  0  0  0
 38 39  2  0  0  0
 38 36  1  0  0  0
 36 67  1  0  0  0
 67 68  1  0  0  0
 36  1  1  0  0  0
  1  2  1  0  0  0
  2  3  2  0  0  0
  2  5  1  0  0  0
  5 33  1  0  0  0
 33 34  1  0  0  0
  5  6  1  0  0  0
  6  7  1  0  0  0
  7  8  2  0  0  0
  7 10  1  0  0  0
 10 30  1  0  0  0
 30 31  1  0  0  0
 10 11  1  0  0  0
 11 12  1  0  0  0
 12 13  2  0  0  0
 12 15  1  0  0  0
 15 27  1  0  0  0
 27 28  1  0  0  0
 15 16  1  0  0  0
 16 17  1  0  0  0
 17 18  2  0  0  0
 17 20  1  0  0  0
 20 21  1  0  0  0
 21 22  1  0  0  0
 20 24  1  0  0  0
 24 25  1  0  0  0
 51 52  1  0  0  0
 52 53  1  0  0  0
 52 54  2  0  0  0
 47 50  1  0  0  0
 62 63  1  0  0  0
 42 45  1  0  0  0
 65 66  1  0  0  0
 37 40  1  0  0  0
 68 69  1  0  0  0
  1  4  1  0  0  0
 34 35  1  0  0  0
  6  9  1  0  0  0
 31 32  1  0  0  0
 11 14  1  0  0  0
 28 29  1  0  0  0
 16 19  1  0  0  0
 22 23  1  0  0  0
 25 26  1  0  0  0
 53 55  1  0  0  0
 53 56  1  0  0  0
M  END
> <minimizedAffinity>
-5.94704

> <CNNscore>
0.3496631980

> <CNNaffinity>
5.8066840172

> <CNN_VS>
2.0303835869

> <CNNaffinity_variance>
0.6007307172

$$$$
[H]OC([H])([H])C([H])(C(=O)N([H])[C@]([H])(C(=O)N([H])[C@]([H])(C(=O)N([H])[C@]([H])(C(=O)N([H])[C@]([H])(C(=O)N([H])[C@]([H])(C(=O)N([H])[C@]([H])(C(=O)N([H])[C@]([H])(C(=O)N([H])[H])C([H])([H])C([H])(C([H])([H])[H])C([H])([H])[H])C([H])([H])O[H])C([H])([H])O[H])C([H])([H])O[H])C([H])([H])O[H])C([H])([H])O[H])C([H])([H])O[H])C([H])([H])O[H]


 69 68  0  0  0  0  0  0  0  0999 V2000
  154.3445  136.3178  188.5262 N   0  0  0  0  0  0  0  0  0  0  0  0
  155.1777  137.3081  189.0644 C   0  0  0  0  0  0  0  0  0  0  0  0
  156.1024  137.7780  188.3589 O   0  0  0  0  0  0  0  0  0  0  0  0
  153.5689  135.9173  189.0671 H   0  0  0  0  0  0  0  0  0  0  0  0
  154.9244  137.7596  190.4683 C   0  0  0  0  0  0  0  0  0  0  0  0
  153.6138  137.4574  190.9334 N   0  0  0  0  0  0  0  0  0  0  0  0
  153.0860  136.2126  191.3132 C   0  0  0  0  0  0  0  0  0  0  0  0
  153.7988  135.1942  191.2821 O   0  0  0  0  0  0  0  0  0  0  0  0
  152.9524  138.2954  190.9935 H   0  0  0  0  0  0  0  0  0  0  0  0
  151.6775  136.1059  191.7538 C   0  0  0  0  0  0  0  0  0  0  0  0
  151.4176  134.9349  192.5583 N   0  0  0  0  0  0  0  0  0  0  0  0
  150.2360  134.1979  192.5179 C   0  0  0  0  0  0  0  0  0  0  0  0
  149.2888  134.4913  191.7565 O   0  0  0  0  0  0  0  0  0  0  0  0
  152.1842  134.6277  193.2208 H   0  0  0  0  0  0  0  0  0  0  0  0
  150.0592  133.0034  193.4098 C   0  0  0  0  0  0  0  0  0  0  0  0
  149.8319  133.3848  194.7745 N   0  0  0  0  0  0  0  0  0  0  0  0
  150.6891  133.1172  195.8498 C   0  0  0  0  0  0  0  0  0  0  0  0
  151.7550  132.4922  195.6087 O   0  0  0  0  0  0  0  0  0  0  0  0
  148.9320  133.9126  194.9839 H   0  0  0  0  0  0  0  0  0  0  0  0
  150.3807  133.5423  197.2456 C   0  0  0  0  0  0  0  0  0  0  0  0
  151.0066  132.5870  198.2445 C   0  0  0  0  0  0  0  0  0  0  0  0
  150.6576  131.2734  197.9822 O   0  0  0  0  0  0  0  0  0  0  0  0
  149.9799  131.2540  197.2484 H   0  0  0  0  0  0  0  0  0  0  0  0
  150.8645  134.9504  197.4674 C   0  0  0  0  0  0  0  0  0  0  0  0
  151.5092  135.4303  196.3285 O   0  0  0  0  0  0  0  0  0  0  0  0
  152.4418  135.0973  196.3631 H   0  0  0  0  0  0  0  0  0  0  0  0
  149.0917  132.0115  192.8840 C   0  0  0  0  0  0  0  0  0  0  0  0
  149.3711  131.5814  191.5938 O   0  0  0  0  0  0  0  0  0  0  0  0
  149.4717  130.6131  191.4895 H   0  0  0  0  0  0  0  0  0  0  0  0
  151.1691  137.3170  192.4807 C   0  0  0  0  0  0  0  0  0  0  0  0
  152.1419  137.8068  193.3750 O   0  0  0  0  0  0  0  0  0  0  0  0
  152.5131  137.0349  193.8794 H   0  0  0  0  0  0  0  0  0  0  0  0
  155.9902  137.2441  191.3803 C   0  0  0  0  0  0  0  0  0  0  0  0
  156.6324  136.1141  190.8642 O   0  0  0  0  0  0  0  0  0  0  0  0
  156.6725  135.3609  191.4811 H   0  0  0  0  0  0  0  0  0  0  0  0
  154.5541  135.8111  187.1637 C   0  0  0  0  0  0  0  0  0  0  0  0
  152.8090  135.4872  185.3983 N   0  0  0  0  0  0  0  0  0  0  0  0
  153.5466  136.3391  186.2376 C   0  0  0  0  0  0  0  0  0  0  0  0
  153.3207  137.5878  186.1743 O   0  0  0  0  0  0  0  0  0  0  0  0
  152.9437  134.4320  185.3955 H   0  0  0  0  0  0  0  0  0  0  0  0
  151.8024  135.9373  184.4415 C   0  0  0  0  0  0  0  0  0  0  0  0
  152.4133  138.1218  183.3675 N   0  0  0  0  0  0  0  0  0  0  0  0
  152.5016  136.7192  183.3891 C   0  0  0  0  0  0  0  0  0  0  0  0
  153.1678  136.1160  182.5229 O   0  0  0  0  0  0  0  0  0  0  0  0
  151.8469  138.6061  184.1351 H   0  0  0  0  0  0  0  0  0  0  0  0
  153.0103  139.0135  182.4219 C   0  0  0  0  0  0  0  0  0  0  0  0
  154.8110  140.6969  182.0858 N   0  0  0  0  0  0  0  0  0  0  0  0
  153.9873  139.9596  182.9691 C   0  0  0  0  0  0  0  0  0  0  0  0
  154.1371  140.1594  184.2061 O   0  0  0  0  0  0  0  0  0  0  0  0
  154.7183  140.5652  181.0602 H   0  0  0  0  0  0  0  0  0  0  0  0
  155.7931  141.6433  182.5529 C   0  0  0  0  0  0  0  0  0  0  0  0
  155.2860  143.0174  182.7188 C   0  0  0  0  0  0  0  0  0  0  0  0
  154.1269  143.3070  183.4741 N   0  0  0  0  0  0  0  0  0  0  0  0
  155.9003  143.9615  182.1715 O   0  0  0  0  0  0  0  0  0  0  0  0
  153.4055  143.9016  183.0612 H   0  0  0  0  0  0  0  0  0  0  0  0
  154.0344  142.9109  184.4250 H   0  0  0  0  0  0  0  0  0  0  0  0
  157.0815  141.5601  181.8149 C   0  0  0  0  0  0  0  0  0  0  0  0
  159.0981  142.4829  183.0493 C   0  0  0  0  0  0  0  0  0  0  0  0
  158.3004  141.2807  182.6130 C   0  0  0  0  0  0  0  0  0  0  0  0
  157.8293  140.6093  183.9124 C   0  0  0  0  0  0  0  0  0  0  0  0
  151.9358  139.6709  181.5894 C   0  0  0  0  0  0  0  0  0  0  0  0
  150.6750  139.1789  181.8123 O   0  0  0  0  0  0  0  0  0  0  0  0
  150.0197  139.8073  182.1550 H   0  0  0  0  0  0  0  0  0  0  0  0
  150.7675  136.7116  185.1894 C   0  0  0  0  0  0  0  0  0  0  0  0
  149.8868  137.2451  184.2204 O   0  0  0  0  0  0  0  0  0  0  0  0
  149.1568  136.6374  184.0149 H   0  0  0  0  0  0  0  0  0  0  0  0
  154.6209  134.3316  187.2666 C   0  0  0  0  0  0  0  0  0  0  0  0
  154.4671  133.8251  188.5247 O   0  0  0  0  0  0  0  0  0  0  0  0
  153.9564  132.9928  188.5070 H   0  0  0  0  0  0  0  0  0  0  0  0
 58 59  1  0  0  0
 59 60  1  0  0  0
 59 57  1  0  0  0
 57 51  1  0  0  0
 51 47  1  0  0  0
 47 48  1  0  0  0
 48 49  2  0  0  0
 48 46  1  0  0  0
 46 61  1  0  0  0
 61 62  1  0  0  0
 46 42  1  0  0  0
 42 43  1  0  0  0
 43 44  2  0  0  0
 43 41  1  0  0  0
 41 64  1  0  0  0
 64 65  1  0  0  0
 41 37  1  0  0  0
 37 38  1  0  0  0
 38 39  2  0  0  0
 38 36  1  0  0  0
 36 67  1  0  0  0
 67 68  1  0  0  0
 36  1  1  0  0  0
  1  2  1  0  0  0
  2  3  2  0  0  0
  2  5  1  0  0  0
  5 33  1  0  0  0
 33 34  1  0  0  0
  5  6  1  0  0  0
  6  7  1  0  0  0
  7  8  2  0  0  0
  7 10  1  0  0  0
 10 30  1  0  0  0
 30 31  1  0  0  0
 10 11  1  0  0  0
 11 12  1  0  0  0
 12 13  2  0  0  0
 12 15  1  0  0  0
 15 27  1  0  0  0
 27 28  1  0  0  0
 15 16  1  0  0  0
 16 17  1  0  0  0
 17 18  2  0  0  0
 17 20  1  0  0  0
 20 21  1  0  0  0
 21 22  1  0  0  0
 20 24  1  0  0  0
 24 25  1  0  0  0
 51 52  1  0  0  0
 52 53  1  0  0  0
 52 54  2  0  0  0
 47 50  1  0  0  0
 62 63  1  0  0  0
 42 45  1  0  0  0
 65 66  1  0  0  0
 37 40  1  0  0  0
 68 69  1  0  0  0
  1  4  1  0  0  0
 34 35  1  0  0  0
  6  9  1  0  0  0
 31 32  1  0  0  0
 11 14  1  0  0  0
 28 29  1  0  0  0
 16 19  1  0  0  0
 22 23  1  0  0  0
 25 26  1  0  0  0
 53 55  1  0  0  0
 53 56  1  0  0  0
M  END
> <minimizedAffinity>
-5.27186

> <CNNscore>
0.3205877841

> <CNNaffinity>
5.3762464523

> <CNN_VS>
1.7235589027

> <CNNaffinity_variance>
0.9852426648

$$$$
[H]OC([H])([H])C([H])(C(=O)N([H])[C@]([H])(C(=O)N([H])[C@]([H])(C(=O)N([H])[C@]([H])(C(=O)N([H])[C@]([H])(C(=O)N([H])[C@]([H])(C(=O)N([H])[C@]([H])(C(=O)N([H])[C@]([H])(C(=O)N([H])[H])C([H])([H])C([H])(C([H])([H])[H])C([H])([H])[H])C([H])([H])O[H])C([H])([H])O[H])C([H])([H])O[H])C([H])([H])O[H])C([H])([H])O[H])C([H])([H])O[H])C([H])([H])O[H]


 69 68  0  0  0  0  0  0  0  0999 V2000
  154.1448  136.6484  188.0591 N   0  0  0  0  0  0  0  0  0  0  0  0
  154.9447  137.5562  188.7666 C   0  0  0  0  0  0  0  0  0  0  0  0
  155.8913  138.1271  188.1737 O   0  0  0  0  0  0  0  0  0  0  0  0
  153.3529  136.1704  188.5051 H   0  0  0  0  0  0  0  0  0  0  0  0
  154.6308  137.8010  190.2089 C   0  0  0  0  0  0  0  0  0  0  0  0
  154.2961  136.6177  190.9252 N   0  0  0  0  0  0  0  0  0  0  0  0
  153.0412  136.0015  191.0585 C   0  0  0  0  0  0  0  0  0  0  0  0
  152.0437  136.4833  190.4935 O   0  0  0  0  0  0  0  0  0  0  0  0
  155.1151  136.1473  191.4265 H   0  0  0  0  0  0  0  0  0  0  0  0
  152.8987  134.7739  191.8721 C   0  0  0  0  0  0  0  0  0  0  0  0
  151.7370  134.7886  192.7301 N   0  0  0  0  0  0  0  0  0  0  0  0
  151.7733  134.5891  194.1084 C   0  0  0  0  0  0  0  0  0  0  0  0
  152.8400  134.3878  194.7286 O   0  0  0  0  0  0  0  0  0  0  0  0
  150.8006  134.9617  192.2674 H   0  0  0  0  0  0  0  0  0  0  0  0
  150.5032  134.6073  194.9086 C   0  0  0  0  0  0  0  0  0  0  0  0
  150.7195  135.0897  196.2428 N   0  0  0  0  0  0  0  0  0  0  0  0
  150.5238  134.3531  197.4182 C   0  0  0  0  0  0  0  0  0  0  0  0
  150.1277  133.1634  197.3056 O   0  0  0  0  0  0  0  0  0  0  0  0
  151.0535  136.0950  196.3436 H   0  0  0  0  0  0  0  0  0  0  0  0
  150.7653  134.9270  198.7734 C   0  0  0  0  0  0  0  0  0  0  0  0
  150.1091  134.0702  199.8399 C   0  0  0  0  0  0  0  0  0  0  0  0
  150.6956  132.8190  199.9217 O   0  0  0  0  0  0  0  0  0  0  0  0
  151.3597  132.7186  199.1820 H   0  0  0  0  0  0  0  0  0  0  0  0
  152.2455  135.0535  199.0160 C   0  0  0  0  0  0  0  0  0  0  0  0
  152.7079  136.2934  198.5781 O   0  0  0  0  0  0  0  0  0  0  0  0
  152.8677  136.2139  197.6035 H   0  0  0  0  0  0  0  0  0  0  0  0
  149.3698  135.2508  194.2032 C   0  0  0  0  0  0  0  0  0  0  0  0
  148.7394  134.4264  193.2808 O   0  0  0  0  0  0  0  0  0  0  0  0
  147.7773  134.3072  193.4169 H   0  0  0  0  0  0  0  0  0  0  0  0
  152.8945  133.5044  191.0707 C   0  0  0  0  0  0  0  0  0  0  0  0
  151.5812  133.0181  190.9139 O   0  0  0  0  0  0  0  0  0  0  0  0
  151.1304  133.0571  191.7989 H   0  0  0  0  0  0  0  0  0  0  0  0
  155.7346  138.5718  190.8575 C   0  0  0  0  0  0  0  0  0  0  0  0
  156.9837  137.9701  190.6746 O   0  0  0  0  0  0  0  0  0  0  0  0
  157.4897  137.8421  191.4973 H   0  0  0  0  0  0  0  0  0  0  0  0
  154.4140  136.3426  186.6479 C   0  0  0  0  0  0  0  0  0  0  0  0
  152.3891  135.7380  185.3061 N   0  0  0  0  0  0  0  0  0  0  0  0
  153.2773  136.7098  185.7967 C   0  0  0  0  0  0  0  0  0  0  0  0
  153.0732  137.9237  185.4819 O   0  0  0  0  0  0  0  0  0  0  0  0
  152.4967  134.7029  185.5269 H   0  0  0  0  0  0  0  0  0  0  0  0
  151.2463  136.0223  184.4432 C   0  0  0  0  0  0  0  0  0  0  0  0
  151.6016  137.9840  182.9186 N   0  0  0  0  0  0  0  0  0  0  0  0
  151.7704  136.6144  183.1851 C   0  0  0  0  0  0  0  0  0  0  0  0
  152.3615  135.8809  182.3662 O   0  0  0  0  0  0  0  0  0  0  0  0
  151.1043  138.5855  183.6504 H   0  0  0  0  0  0  0  0  0  0  0  0
  152.0309  138.7005  181.7576 C   0  0  0  0  0  0  0  0  0  0  0  0
  153.9019  139.5634  183.1518 N   0  0  0  0  0  0  0  0  0  0  0  0
  153.1385  139.6388  181.9628 C   0  0  0  0  0  0  0  0  0  0  0  0
  153.4573  140.5251  181.1230 O   0  0  0  0  0  0  0  0  0  0  0  0
  153.6752  138.8468  183.8680 H   0  0  0  0  0  0  0  0  0  0  0  0
  155.0039  140.4533  183.4209 C   0  0  0  0  0  0  0  0  0  0  0  0
  156.1584  139.8139  184.0773 C   0  0  0  0  0  0  0  0  0  0  0  0
  156.0338  139.0930  185.2868 N   0  0  0  0  0  0  0  0  0  0  0  0
  157.2892  139.9128  183.5483 O   0  0  0  0  0  0  0  0  0  0  0  0
  156.6784  139.3000  186.0524 H   0  0  0  0  0  0  0  0  0  0  0  0
  155.2944  138.3747  185.3702 H   0  0  0  0  0  0  0  0  0  0  0  0
  154.5814  141.7314  184.0531 C   0  0  0  0  0  0  0  0  0  0  0  0
  155.8627  142.8353  182.1606 C   0  0  0  0  0  0  0  0  0  0  0  0
  154.9599  142.9862  183.3582 C   0  0  0  0  0  0  0  0  0  0  0  0
  153.6585  143.5962  182.8147 C   0  0  0  0  0  0  0  0  0  0  0  0
  150.8383  139.3179  181.0673 C   0  0  0  0  0  0  0  0  0  0  0  0
  149.6573  139.1679  181.7484 O   0  0  0  0  0  0  0  0  0  0  0  0
  149.2162  139.9836  182.0345 H   0  0  0  0  0  0  0  0  0  0  0  0
  150.3117  136.9135  185.1929 C   0  0  0  0  0  0  0  0  0  0  0  0
  149.2681  137.2447  184.2981 O   0  0  0  0  0  0  0  0  0  0  0  0
  148.5402  136.6016  184.3304 H   0  0  0  0  0  0  0  0  0  0  0  0
  154.8248  134.9171  186.5934 C   0  0  0  0  0  0  0  0  0  0  0  0
  154.0258  134.0512  187.2824 O   0  0  0  0  0  0  0  0  0  0  0  0
  153.9336  133.2043  186.8046 H   0  0  0  0  0  0  0  0  0  0  0  0
 58 59  1  0  0  0
 59 60  1  0  0  0
 59 57  1  0  0  0
 57 51  1  0  0  0
 51 47  1  0  0  0
 47 48  1  0  0  0
 48 49  2  0  0  0
 48 46  1  0  0  0
 46 61  1  0  0  0
 61 62  1  0  0  0
 46 42  1  0  0  0
 42 43  1  0  0  0
 43 44  2  0  0  0
 43 41  1  0  0  0
 41 64  1  0  0  0
 64 65  1  0  0  0
 41 37  1  0  0  0
 37 38  1  0  0  0
 38 39  2  0  0  0
 38 36  1  0  0  0
 36 67  1  0  0  0
 67 68  1  0  0  0
 36  1  1  0  0  0
  1  2  1  0  0  0
  2  3  2  0  0  0
  2  5  1  0  0  0
  5 33  1  0  0  0
 33 34  1  0  0  0
  5  6  1  0  0  0
  6  7  1  0  0  0
  7  8  2  0  0  0
  7 10  1  0  0  0
 10 30  1  0  0  0
 30 31  1  0  0  0
 10 11  1  0  0  0
 11 12  1  0  0  0
 12 13  2  0  0  0
 12 15  1  0  0  0
 15 27  1  0  0  0
 27 28  1  0  0  0
 15 16  1  0  0  0
 16 17  1  0  0  0
 17 18  2  0  0  0
 17 20  1  0  0  0
 20 21  1  0  0  0
 21 22  1  0  0  0
 20 24  1  0  0  0
 24 25  1  0  0  0
 51 52  1  0  0  0
 52 53  1  0  0  0
 52 54  2  0  0  0
 47 50  1  0  0  0
 62 63  1  0  0  0
 42 45  1  0  0  0
 65 66  1  0  0  0
 37 40  1  0  0  0
 68 69  1  0  0  0
  1  4  1  0  0  0
 34 35  1  0  0  0
  6  9  1  0  0  0
 31 32  1  0  0  0
 11 14  1  0  0  0
 28 29  1  0  0  0
 16 19  1  0  0  0
 22 23  1  0  0  0
 25 26  1  0  0  0
 53 55  1  0  0  0
 53 56  1  0  0  0
M  END
> <minimizedAffinity>
-5.62548

> <CNNscore>
0.2627435923

> <CNNaffinity>
5.1021947861

> <CNN_VS>
1.3405690193

> <CNNaffinity_variance>
0.6058539152

$$$$
[H]OC([H])([H])C([H])(C(=O)N([H])[C@]([H])(C(=O)N([H])[C@]([H])(C(=O)N([H])[C@]([H])(C(=O)N([H])[C@]([H])(C(=O)N([H])[C@]([H])(C(=O)N([H])[C@]([H])(C(=O)N([H])[C@]([H])(C(=O)N([H])[H])C([H])([H])C([H])(C([H])([H])[H])C([H])([H])[H])C([H])([H])O[H])C([H])([H])O[H])C([H])([H])O[H])C([H])([H])O[H])C([H])([H])O[H])C([H])([H])O[H])C([H])([H])O[H]


 69 68  0  0  0  0  0  0  0  0999 V2000
  150.4769  136.0521  184.2715 N   0  0  0  0  0  0  0  0  0  0  0  0
  149.3967  136.7954  183.7767 C   0  0  0  0  0  0  0  0  0  0  0  0
  148.7496  137.5293  184.5618 O   0  0  0  0  0  0  0  0  0  0  0  0
  151.0391  135.4498  183.6585 H   0  0  0  0  0  0  0  0  0  0  0  0
  149.0614  136.6749  182.3234 C   0  0  0  0  0  0  0  0  0  0  0  0
  147.6768  136.8493  182.0445 N   0  0  0  0  0  0  0  0  0  0  0  0
  146.7116  135.8693  181.7612 C   0  0  0  0  0  0  0  0  0  0  0  0
  147.0255  134.6662  181.7489 O   0  0  0  0  0  0  0  0  0  0  0  0
  147.3401  137.8641  182.0506 H   0  0  0  0  0  0  0  0  0  0  0  0
  145.3141  136.2632  181.4762 C   0  0  0  0  0  0  0  0  0  0  0  0
  145.0494  136.4521  180.0691 N   0  0  0  0  0  0  0  0  0  0  0  0
  145.4019  137.5902  179.3471 C   0  0  0  0  0  0  0  0  0  0  0  0
  145.9995  138.5565  179.8689 O   0  0  0  0  0  0  0  0  0  0  0  0
  144.5511  135.6659  179.5645 H   0  0  0  0  0  0  0  0  0  0  0  0
  145.0650  137.6944  177.8879 C   0  0  0  0  0  0  0  0  0  0  0  0
  145.4143  136.5002  177.1727 N   0  0  0  0  0  0  0  0  0  0  0  0
  145.9037  136.4488  175.8611 C   0  0  0  0  0  0  0  0  0  0  0  0
  146.0578  137.5383  175.2494 O   0  0  0  0  0  0  0  0  0  0  0  0
  145.2852  135.5765  177.6848 H   0  0  0  0  0  0  0  0  0  0  0  0
  146.2402  135.1649  175.1808 C   0  0  0  0  0  0  0  0  0  0  0  0
  146.8635  134.1893  176.1615 C   0  0  0  0  0  0  0  0  0  0  0  0
  147.3915  133.0842  175.5164 O   0  0  0  0  0  0  0  0  0  0  0  0
  147.1510  133.1237  174.5474 H   0  0  0  0  0  0  0  0  0  0  0  0
  145.0029  134.5830  174.5513 C   0  0  0  0  0  0  0  0  0  0  0  0
  144.3219  135.5566  173.8223 O   0  0  0  0  0  0  0  0  0  0  0  0
  143.7643  136.0621  174.4669 H   0  0  0  0  0  0  0  0  0  0  0  0
  143.6874  138.1777  177.6327 C   0  0  0  0  0  0  0  0  0  0  0  0
  142.9756  138.4840  178.7848 O   0  0  0  0  0  0  0  0  0  0  0  0
  142.6215  139.3958  178.8263 H   0  0  0  0  0  0  0  0  0  0  0  0
  144.2858  135.3274  182.0425 C   0  0  0  0  0  0  0  0  0  0  0  0
  144.3940  135.2577  183.4458 O   0  0  0  0  0  0  0  0  0  0  0  0
  145.3550  135.1496  183.6758 H   0  0  0  0  0  0  0  0  0  0  0  0
  149.9290  137.5825  181.5129 C   0  0  0  0  0  0  0  0  0  0  0  0
  150.7196  138.4161  182.3101 O   0  0  0  0  0  0  0  0  0  0  0  0
  150.6615  139.3611  182.0802 H   0  0  0  0  0  0  0  0  0  0  0  0
  150.8436  136.1043  185.6928 C   0  0  0  0  0  0  0  0  0  0  0  0
  152.7075  137.6109  184.9699 N   0  0  0  0  0  0  0  0  0  0  0  0
  151.8039  137.1812  185.9564 C   0  0  0  0  0  0  0  0  0  0  0  0
  151.8392  137.7498  187.0920 O   0  0  0  0  0  0  0  0  0  0  0  0
  152.7369  137.1818  183.9970 H   0  0  0  0  0  0  0  0  0  0  0  0
  153.7011  138.6635  185.1605 C   0  0  0  0  0  0  0  0  0  0  0  0
  154.5972  140.5588  183.7809 N   0  0  0  0  0  0  0  0  0  0  0  0
  153.8815  139.3515  183.8559 C   0  0  0  0  0  0  0  0  0  0  0  0
  153.3889  138.8456  182.8266 O   0  0  0  0  0  0  0  0  0  0  0  0
  155.0194  140.9548  184.6807 H   0  0  0  0  0  0  0  0  0  0  0  0
  154.8467  141.3476  182.6141 C   0  0  0  0  0  0  0  0  0  0  0  0
  157.1116  141.7123  181.6515 N   0  0  0  0  0  0  0  0  0  0  0  0
  156.1216  142.0713  182.5965 C   0  0  0  0  0  0  0  0  0  0  0  0
  156.3907  143.0153  183.3896 O   0  0  0  0  0  0  0  0  0  0  0  0
  156.9299  140.9429  180.9783 H   0  0  0  0  0  0  0  0  0  0  0  0
  158.3875  142.3793  181.5770 C   0  0  0  0  0  0  0  0  0  0  0  0
  158.7375  142.8791  180.2352 C   0  0  0  0  0  0  0  0  0  0  0  0
  158.4495  142.1485  179.0599 N   0  0  0  0  0  0  0  0  0  0  0  0
  159.3110  143.9875  180.1306 O   0  0  0  0  0  0  0  0  0  0  0  0
  159.1920  142.0100  178.3715 H   0  0  0  0  0  0  0  0  0  0  0  0
  157.4965  141.7705  178.9237 H   0  0  0  0  0  0  0  0  0  0  0  0
  159.4811  141.6240  182.2443 C   0  0  0  0  0  0  0  0  0  0  0  0
  161.1714  141.5851  184.1372 C   0  0  0  0  0  0  0  0  0  0  0  0
  159.8124  142.0057  183.6390 C   0  0  0  0  0  0  0  0  0  0  0  0
  159.8181  143.5417  183.6836 C   0  0  0  0  0  0  0  0  0  0  0  0
  153.6521  142.2243  182.3241 C   0  0  0  0  0  0  0  0  0  0  0  0
  153.8083  143.5304  182.7128 O   0  0  0  0  0  0  0  0  0  0  0  0
  153.7727  144.1983  182.0096 H   0  0  0  0  0  0  0  0  0  0  0  0
  154.9452  138.0333  185.6942 C   0  0  0  0  0  0  0  0  0  0  0  0
  154.8922  138.1684  187.1008 O   0  0  0  0  0  0  0  0  0  0  0  0
  154.4377  137.4207  187.5236 H   0  0  0  0  0  0  0  0  0  0  0  0
  151.2896  134.7385  186.0665 C   0  0  0  0  0  0  0  0  0  0  0  0
  150.4515  133.7273  185.6954 O   0  0  0  0  0  0  0  0  0  0  0  0
  150.9562  132.9398  185.4140 H   0  0  0  0  0  0  0  0  0  0  0  0
 58 59  1  0  0  0
 59 60  1  0  0  0
 59 57  1  0  0  0
 57 51  1  0  0  0
 51 47  1  0  0  0
 47 48  1  0  0  0
 48 49  2  0  0  0
 48 46  1  0  0  0
 46 61  1  0  0  0
 61 62  1  0  0  0
 46 42  1  0  0  0
 42 43  1  0  0  0
 43 44  2  0  0  0
 43 41  1  0  0  0
 41 64  1  0  0  0
 64 65  1  0  0  0
 41 37  1  0  0  0
 37 38  1  0  0  0
 38 39  2  0  0  0
 38 36  1  0  0  0
 36 67  1  0  0  0
 67 68  1  0  0  0
 36  1  1  0  0  0
  1  2  1  0  0  0
  2  3  2  0  0  0
  2  5  1  0  0  0
  5 33  1  0  0  0
 33 34  1  0  0  0
  5  6  1  0  0  0
  6  7  1  0  0  0
  7  8  2  0  0  0
  7 10  1  0  0  0
 10 30  1  0  0  0
 30 31  1  0  0  0
 10 11  1  0  0  0
 11 12  1  0  0  0
 12 13  2  0  0  0
 12 15  1  0  0  0
 15 27  1  0  0  0
 27 28  1  0  0  0
 15 16  1  0  0  0
 16 17  1  0  0  0
 17 18  2  0  0  0
 17 20  1  0  0  0
 20 21  1  0  0  0
 21 22  1  0  0  0
 20 24  1  0  0  0
 24 25  1  0  0  0
 51 52  1  0  0  0
 52 53  1  0  0  0
 52 54  2  0  0  0
 47 50  1  0  0  0
 62 63  1  0  0  0
 42 45  1  0  0  0
 65 66  1  0  0  0
 37 40  1  0  0  0
 68 69  1  0  0  0
  1  4  1  0  0  0
 34 35  1  0  0  0
  6  9  1  0  0  0
 31 32  1  0  0  0
 11 14  1  0  0  0
 28 29  1  0  0  0
 16 19  1  0  0  0
 22 23  1  0  0  0
 25 26  1  0  0  0
 53 55  1  0  0  0
 53 56  1  0  0  0
M  END
> <minimizedAffinity>
-5.24947

> <CNNscore>
0.2528691888

> <CNNaffinity>
5.1194877625

> <CNN_VS>
1.2945606709

> <CNNaffinity_variance>
0.5466271639

$$$$
[H]OC([H])([H])C([H])(C(=O)N([H])[C@]([H])(C(=O)N([H])[C@]([H])(C(=O)N([H])[C@]([H])(C(=O)N([H])[C@]([H])(C(=O)N([H])[C@]([H])(C(=O)N([H])[C@]([H])(C(=O)N([H])[C@]([H])(C(=O)N([H])[H])C([H])([H])C([H])(C([H])([H])[H])C([H])([H])[H])C([H])([H])O[H])C([H])([H])O[H])C([H])([H])O[H])C([H])([H])O[H])C([H])([H])O[H])C([H])([H])O[H])C([H])([H])O[H]


 69 68  0  0  0  0  0  0  0  0999 V2000
  154.6976  138.0326  188.8217 N   0  0  0  0  0  0  0  0  0  0  0  0
  154.8980  138.0520  187.4347 C   0  0  0  0  0  0  0  0  0  0  0  0
  156.0503  137.8519  186.9812 O   0  0  0  0  0  0  0  0  0  0  0  0
  153.7675  138.1792  189.2315 H   0  0  0  0  0  0  0  0  0  0  0  0
  153.7181  138.3158  186.5531 C   0  0  0  0  0  0  0  0  0  0  0  0
  153.9558  139.3203  185.5733 N   0  0  0  0  0  0  0  0  0  0  0  0
  154.6188  139.2004  184.3411 C   0  0  0  0  0  0  0  0  0  0  0  0
  155.0734  138.1013  183.9786 O   0  0  0  0  0  0  0  0  0  0  0  0
  153.5787  140.2897  185.8209 H   0  0  0  0  0  0  0  0  0  0  0  0
  154.7798  140.3826  183.4659 C   0  0  0  0  0  0  0  0  0  0  0  0
  156.0970  140.4866  182.8827 N   0  0  0  0  0  0  0  0  0  0  0  0
  156.7900  141.6829  182.7107 C   0  0  0  0  0  0  0  0  0  0  0  0
  156.3212  142.7861  183.0658 O   0  0  0  0  0  0  0  0  0  0  0  0
  156.5547  139.5857  182.5667 H   0  0  0  0  0  0  0  0  0  0  0  0
  158.1508  141.6838  182.0767 C   0  0  0  0  0  0  0  0  0  0  0  0
  159.1300  142.3150  182.9149 N   0  0  0  0  0  0  0  0  0  0  0  0
  159.4123  141.9684  184.2426 C   0  0  0  0  0  0  0  0  0  0  0  0
  158.7593  141.0207  184.7529 O   0  0  0  0  0  0  0  0  0  0  0  0
  159.6841  143.1172  182.4887 H   0  0  0  0  0  0  0  0  0  0  0  0
  160.4437  142.6769  185.0540 C   0  0  0  0  0  0  0  0  0  0  0  0
  160.1729  142.4964  186.5359 C   0  0  0  0  0  0  0  0  0  0  0  0
  161.1401  143.1135  187.3104 O   0  0  0  0  0  0  0  0  0  0  0  0
  161.8669  143.4563  186.7166 H   0  0  0  0  0  0  0  0  0  0  0  0
  161.8139  142.1716  184.6889 C   0  0  0  0  0  0  0  0  0  0  0  0
  161.7178  141.0641  183.8479 O   0  0  0  0  0  0  0  0  0  0  0  0
  161.5733  140.2735  184.4276 H   0  0  0  0  0  0  0  0  0  0  0  0
  158.5591  140.3593  181.5521 C   0  0  0  0  0  0  0  0  0  0  0  0
  158.6438  139.3706  182.5233 O   0  0  0  0  0  0  0  0  0  0  0  0
  158.0978  138.5751  182.3574 H   0  0  0  0  0  0  0  0  0  0  0  0
  153.7556  140.4799  182.3726 C   0  0  0  0  0  0  0  0  0  0  0  0
  152.8197  139.4310  182.4712 O   0  0  0  0  0  0  0  0  0  0  0  0
  153.3197  138.5849  182.6196 H   0  0  0  0  0  0  0  0  0  0  0  0
  153.2188  137.0395  185.9573 C   0  0  0  0  0  0  0  0  0  0  0  0
  154.1101  135.9786  186.1463 O   0  0  0  0  0  0  0  0  0  0  0  0
  154.3325  135.4937  185.3310 H   0  0  0  0  0  0  0  0  0  0  0  0
  155.8172  137.8051  189.7449 C   0  0  0  0  0  0  0  0  0  0  0  0
  156.6194  135.5052  189.1673 N   0  0  0  0  0  0  0  0  0  0  0  0
  155.9709  136.3798  190.0554 C   0  0  0  0  0  0  0  0  0  0  0  0
  155.5150  135.9038  191.1416 O   0  0  0  0  0  0  0  0  0  0  0  0
  157.0257  135.8313  188.2398 H   0  0  0  0  0  0  0  0  0  0  0  0
  156.7978  134.0747  189.3978 C   0  0  0  0  0  0  0  0  0  0  0  0
  155.0237  132.9287  190.7536 N   0  0  0  0  0  0  0  0  0  0  0  0
  155.4470  133.4692  189.5272 C   0  0  0  0  0  0  0  0  0  0  0  0
  154.6923  133.4447  188.5333 O   0  0  0  0  0  0  0  0  0  0  0  0
  155.6909  132.9817  191.5884 H   0  0  0  0  0  0  0  0  0  0  0  0
  153.7699  132.3022  191.0382 C   0  0  0  0  0  0  0  0  0  0  0  0
  152.2586  133.6486  192.4848 N   0  0  0  0  0  0  0  0  0  0  0  0
  153.1962  132.5968  192.3548 C   0  0  0  0  0  0  0  0  0  0  0  0
  153.4948  131.9524  193.3979 O   0  0  0  0  0  0  0  0  0  0  0  0
  151.9828  134.2022  191.6509 H   0  0  0  0  0  0  0  0  0  0  0  0
  151.6548  133.9945  193.7475 C   0  0  0  0  0  0  0  0  0  0  0  0
  150.3192  133.4102  193.9657 C   0  0  0  0  0  0  0  0  0  0  0  0
  149.6824  132.6024  192.9963 N   0  0  0  0  0  0  0  0  0  0  0  0
  149.7260  133.6374  195.0449 O   0  0  0  0  0  0  0  0  0  0  0  0
  148.7152  132.8103  192.7399 H   0  0  0  0  0  0  0  0  0  0  0  0
  150.2085  131.8214  192.5683 H   0  0  0  0  0  0  0  0  0  0  0  0
  151.7361  135.4472  194.0551 C   0  0  0  0  0  0  0  0  0  0  0  0
  150.5011  136.4695  192.0875 C   0  0  0  0  0  0  0  0  0  0  0  0
  151.7657  136.3811  192.9028 C   0  0  0  0  0  0  0  0  0  0  0  0
  151.9765  137.7879  193.4839 C   0  0  0  0  0  0  0  0  0  0  0  0
  153.8551  130.8255  190.7348 C   0  0  0  0  0  0  0  0  0  0  0  0
  154.8935  130.1842  191.3605 O   0  0  0  0  0  0  0  0  0  0  0  0
  154.6544  129.4790  191.9828 H   0  0  0  0  0  0  0  0  0  0  0  0
  157.6597  133.9052  190.6054 C   0  0  0  0  0  0  0  0  0  0  0  0
  158.9316  133.5017  190.1376 O   0  0  0  0  0  0  0  0  0  0  0  0
  159.5072  134.2599  189.9419 H   0  0  0  0  0  0  0  0  0  0  0  0
  155.5943  138.6972  190.9104 C   0  0  0  0  0  0  0  0  0  0  0  0
  154.5153  138.3872  191.6865 O   0  0  0  0  0  0  0  0  0  0  0  0
  154.7082  138.5408  192.6316 H   0  0  0  0  0  0  0  0  0  0  0  0
 58 59  1  0  0  0
 59 60  1  0  0  0
 59 57  1  0  0  0
 57 51  1  0  0  0
 51 47  1  0  0  0
 47 48  1  0  0  0
 48 49  2  0  0  0
 48 46  1  0  0  0
 46 61  1  0  0  0
 61 62  1  0  0  0
 46 42  1  0  0  0
 42 43  1  0  0  0
 43 44  2  0  0  0
 43 41  1  0  0  0
 41 64  1  0  0  0
 64 65  1  0  0  0
 41 37  1  0  0  0
 37 38  1  0  0  0
 38 39  2  0  0  0
 38 36  1  0  0  0
 36 67  1  0  0  0
 67 68  1  0  0  0
 36  1  1  0  0  0
  1  2  1  0  0  0
  2  3  2  0  0  0
  2  5  1  0  0  0
  5 33  1  0  0  0
 33 34  1  0  0  0
  5  6  1  0  0  0
  6  7  1  0  0  0
  7  8  2  0  0  0
  7 10  1  0  0  0
 10 30  1  0  0  0
 30 31  1  0  0  0
 10 11  1  0  0  0
 11 12  1  0  0  0
 12 13  2  0  0  0
 12 15  1  0  0  0
 15 27  1  0  0  0
 27 28  1  0  0  0
 15 16  1  0  0  0
 16 17  1  0  0  0
 17 18  2  0  0  0
 17 20  1  0  0  0
 20 21  1  0  0  0
 21 22  1  0  0  0
 20 24  1  0  0  0
 24 25  1  0  0  0
 51 52  1  0  0  0
 52 53  1  0  0  0
 52 54  2  0  0  0
 47 50  1  0  0  0
 62 63  1  0  0  0
 42 45  1  0  0  0
 65 66  1  0  0  0
 37 40  1  0  0  0
 68 69  1  0  0  0
  1  4  1  0  0  0
 34 35  1  0  0  0
  6  9  1  0  0  0
 31 32  1  0  0  0
 11 14  1  0  0  0
 28 29  1  0  0  0
 16 19  1  0  0  0
 22 23  1  0  0  0
 25 26  1  0  0  0
 53 55  1  0  0  0
 53 56  1  0  0  0
M  END
> <minimizedAffinity>
-6.31894

> <CNNscore>
0.2376945317

> <CNNaffinity>
5.4739456177

> <CNN_VS>
1.3011269569

> <CNNaffinity_variance>
0.5326186419

$$$$
[H]OC([H])([H])C([H])(C(=O)N([H])[C@]([H])(C(=O)N([H])[C@]([H])(C(=O)N([H])[C@]([H])(C(=O)N([H])[C@]([H])(C(=O)N([H])[C@]([H])(C(=O)N([H])[C@]([H])(C(=O)N([H])[C@]([H])(C(=O)N([H])[H])C([H])([H])C([H])(C([H])([H])[H])C([H])([H])[H])C([H])([H])O[H])C([H])([H])O[H])C([H])([H])O[H])C([H])([H])O[H])C([H])([H])O[H])C([H])([H])O[H])C([H])([H])O[H]


 69 68  0  0  0  0  0  0  0  0999 V2000
  152.1353  138.3880  183.4584 N   0  0  0  0  0  0  0  0  0  0  0  0
  152.5696  137.1946  184.0513 C   0  0  0  0  0  0  0  0  0  0  0  0
  152.9568  136.2536  183.3176 O   0  0  0  0  0  0  0  0  0  0  0  0
  151.8228  139.1856  184.0247 H   0  0  0  0  0  0  0  0  0  0  0  0
  152.5475  137.0974  185.5443 C   0  0  0  0  0  0  0  0  0  0  0  0
  151.4555  136.3355  186.0468 N   0  0  0  0  0  0  0  0  0  0  0  0
  150.1324  136.7480  186.2736 C   0  0  0  0  0  0  0  0  0  0  0  0
  149.7858  137.9131  186.0115 O   0  0  0  0  0  0  0  0  0  0  0  0
  151.6861  135.3184  186.2824 H   0  0  0  0  0  0  0  0  0  0  0  0
  149.1420  135.7975  186.8257 C   0  0  0  0  0  0  0  0  0  0  0  0
  147.7904  136.0644  186.3922 N   0  0  0  0  0  0  0  0  0  0  0  0
  146.7978  136.6137  187.2009 C   0  0  0  0  0  0  0  0  0  0  0  0
  147.0054  136.9374  188.3904 O   0  0  0  0  0  0  0  0  0  0  0  0
  147.5503  135.8195  185.3906 H   0  0  0  0  0  0  0  0  0  0  0  0
  145.4165  136.8363  186.6567 C   0  0  0  0  0  0  0  0  0  0  0  0
  144.5017  137.2590  187.6784 N   0  0  0  0  0  0  0  0  0  0  0  0
  143.4970  136.4686  188.2515 C   0  0  0  0  0  0  0  0  0  0  0  0
  143.3803  135.2828  187.8452 O   0  0  0  0  0  0  0  0  0  0  0  0
  144.5955  138.2607  188.0249 H   0  0  0  0  0  0  0  0  0  0  0  0
  142.5783  136.9820  189.3082 C   0  0  0  0  0  0  0  0  0  0  0  0
  142.1254  135.8532  190.2153 C   0  0  0  0  0  0  0  0  0  0  0  0
  143.2007  135.1940  190.7857 O   0  0  0  0  0  0  0  0  0  0  0  0
  144.0483  135.5438  190.3888 H   0  0  0  0  0  0  0  0  0  0  0  0
  143.2637  138.0667  190.0953 C   0  0  0  0  0  0  0  0  0  0  0  0
  143.2127  139.2770  189.4056 O   0  0  0  0  0  0  0  0  0  0  0  0
  143.9590  139.2692  188.7538 H   0  0  0  0  0  0  0  0  0  0  0  0
  145.3913  137.6702  185.4318 C   0  0  0  0  0  0  0  0  0  0  0  0
  144.2013  137.5909  184.7209 O   0  0  0  0  0  0  0  0  0  0  0  0
  143.7519  138.4463  184.5632 H   0  0  0  0  0  0  0  0  0  0  0  0
  149.4616  134.3551  186.5587 C   0  0  0  0  0  0  0  0  0  0  0  0
  149.8172  134.1648  185.2085 O   0  0  0  0  0  0  0  0  0  0  0  0
  149.1558  134.6473  184.6447 H   0  0  0  0  0  0  0  0  0  0  0  0
  153.8669  136.6143  186.0533 C   0  0  0  0  0  0  0  0  0  0  0  0
  154.1871  135.3390  185.5773 O   0  0  0  0  0  0  0  0  0  0  0  0
  154.4398  134.7050  186.2726 H   0  0  0  0  0  0  0  0  0  0  0  0
  152.1070  138.5406  181.9978 C   0  0  0  0  0  0  0  0  0  0  0  0
  153.6519  140.4492  182.4849 N   0  0  0  0  0  0  0  0  0  0  0  0
  152.8963  139.6998  181.5676 C   0  0  0  0  0  0  0  0  0  0  0  0
  152.9105  140.0529  180.3472 O   0  0  0  0  0  0  0  0  0  0  0  0
  153.6880  140.2139  183.5217 H   0  0  0  0  0  0  0  0  0  0  0  0
  154.4490  141.6219  182.1371 C   0  0  0  0  0  0  0  0  0  0  0  0
  156.7502  141.6432  181.1357 N   0  0  0  0  0  0  0  0  0  0  0  0
  155.8775  141.2133  182.1502 C   0  0  0  0  0  0  0  0  0  0  0  0
  156.2941  140.4823  183.0722 O   0  0  0  0  0  0  0  0  0  0  0  0
  156.3623  142.2821  180.3702 H   0  0  0  0  0  0  0  0  0  0  0  0
  158.1387  141.3298  180.9963 C   0  0  0  0  0  0  0  0  0  0  0  0
  158.9974  142.1605  183.1785 N   0  0  0  0  0  0  0  0  0  0  0  0
  158.8680  141.1027  182.2476 C   0  0  0  0  0  0  0  0  0  0  0  0
  159.3952  139.9963  182.5485 O   0  0  0  0  0  0  0  0  0  0  0  0
  158.5760  143.0865  182.9716 H   0  0  0  0  0  0  0  0  0  0  0  0
  159.7009  142.0094  184.4278 C   0  0  0  0  0  0  0  0  0  0  0  0
  158.8934  141.4310  185.5169 C   0  0  0  0  0  0  0  0  0  0  0  0
  158.0079  140.3496  185.3061 N   0  0  0  0  0  0  0  0  0  0  0  0
  158.9922  141.9135  186.6683 O   0  0  0  0  0  0  0  0  0  0  0  0
  157.0508  140.4207  185.6575 H   0  0  0  0  0  0  0  0  0  0  0  0
  158.3471  139.5129  184.8014 H   0  0  0  0  0  0  0  0  0  0  0  0
  160.4616  143.2255  184.8204 C   0  0  0  0  0  0  0  0  0  0  0  0
  162.3010  142.7641  186.5073 C   0  0  0  0  0  0  0  0  0  0  0  0
  161.9125  143.0597  185.0812 C   0  0  0  0  0  0  0  0  0  0  0  0
  162.3665  141.8350  184.2717 C   0  0  0  0  0  0  0  0  0  0  0  0
  158.8017  142.3363  180.0867 C   0  0  0  0  0  0  0  0  0  0  0  0
  158.7879  143.6206  180.5679 O   0  0  0  0  0  0  0  0  0  0  0  0
  159.6520  144.0293  180.7351 H   0  0  0  0  0  0  0  0  0  0  0  0
  154.1174  142.7095  183.1049 C   0  0  0  0  0  0  0  0  0  0  0  0
  155.2477  143.5575  183.1589 O   0  0  0  0  0  0  0  0  0  0  0  0
  155.2095  144.2616  182.4902 H   0  0  0  0  0  0  0  0  0  0  0  0
  150.6768  138.5525  181.5999 C   0  0  0  0  0  0  0  0  0  0  0  0
  150.4436  138.5568  180.2551 O   0  0  0  0  0  0  0  0  0  0  0  0
  149.6650  138.0106  180.0331 H   0  0  0  0  0  0  0  0  0  0  0  0
 58 59  1  0  0  0
 59 60  1  0  0  0
 59 57  1  0  0  0
 57 51  1  0  0  0
 51 47  1  0  0  0
 47 48  1  0  0  0
 48 49  2  0  0  0
 48 46  1  0  0  0
 46 61  1  0  0  0
 61 62  1  0  0  0
 46 42  1  0  0  0
 42 43  1  0  0  0
 43 44  2  0  0  0
 43 41  1  0  0  0
 41 64  1  0  0  0
 64 65  1  0  0  0
 41 37  1  0  0  0
 37 38  1  0  0  0
 38 39  2  0  0  0
 38 36  1  0  0  0
 36 67  1  0  0  0
 67 68  1  0  0  0
 36  1  1  0  0  0
  1  2  1  0  0  0
  2  3  2  0  0  0
  2  5  1  0  0  0
  5 33  1  0  0  0
 33 34  1  0  0  0
  5  6  1  0  0  0
  6  7  1  0  0  0
  7  8  2  0  0  0
  7 10  1  0  0  0
 10 30  1  0  0  0
 30 31  1  0  0  0
 10 11  1  0  0  0
 11 12  1  0  0  0
 12 13  2  0  0  0
 12 15  1  0  0  0
 15 27  1  0  0  0
 27 28  1  0  0  0
 15 16  1  0  0  0
 16 17  1  0  0  0
 17 18  2  0  0  0
 17 20  1  0  0  0
 20 21  1  0  0  0
 21 22  1  0  0  0
 20 24  1  0  0  0
 24 25  1  0  0  0
 51 52  1  0  0  0
 52 53  1  0  0  0
 52 54  2  0  0  0
 47 50  1  0  0  0
 62 63  1  0  0  0
 42 45  1  0  0  0
 65 66  1  0  0  0
 37 40  1  0  0  0
 68 69  1  0  0  0
  1  4  1  0  0  0
 34 35  1  0  0  0
  6  9  1  0  0  0
 31 32  1  0  0  0
 11 14  1  0  0  0
 28 29  1  0  0  0
 16 19  1  0  0  0
 22 23  1  0  0  0
 25 26  1  0  0  0
 53 55  1  0  0  0
 53 56  1  0  0  0
M  END
> <minimizedAffinity>
-6.74071

> <CNNscore>
0.2231581360

> <CNNaffinity>
5.1862354279

> <CNN_VS>
1.1573506594

> <CNNaffinity_variance>
0.5433688164

$$$$
[H]OC([H])([H])C([H])(C(=O)N([H])[C@]([H])(C(=O)N([H])[C@]([H])(C(=O)N([H])[C@]([H])(C(=O)N([H])[C@]([H])(C(=O)N([H])[C@]([H])(C(=O)N([H])[C@]([H])(C(=O)N([H])[C@]([H])(C(=O)N([H])[H])C([H])([H])C([H])(C([H])([H])[H])C([H])([H])[H])C([H])([H])O[H])C([H])([H])O[H])C([H])([H])O[H])C([H])([H])O[H])C([H])([H])O[H])C([H])([H])O[H])C([H])([H])O[H]


 69 68  0  0  0  0  0  0  0  0999 V2000
  151.3479  138.0704  181.4781 N   0  0  0  0  0  0  0  0  0  0  0  0
  150.0119  138.4908  181.4254 C   0  0  0  0  0  0  0  0  0  0  0  0
  149.6290  139.4064  182.1926 O   0  0  0  0  0  0  0  0  0  0  0  0
  151.7031  137.3330  180.8580 H   0  0  0  0  0  0  0  0  0  0  0  0
  149.0970  137.8195  180.4502 C   0  0  0  0  0  0  0  0  0  0  0  0
  147.7307  137.8401  180.8478 N   0  0  0  0  0  0  0  0  0  0  0  0
  146.7069  136.9413  180.5066 C   0  0  0  0  0  0  0  0  0  0  0  0
  146.9491  135.9636  179.7775 O   0  0  0  0  0  0  0  0  0  0  0  0
  147.4594  138.6533  181.4869 H   0  0  0  0  0  0  0  0  0  0  0  0
  145.3331  137.1525  181.0138 C   0  0  0  0  0  0  0  0  0  0  0  0
  145.2868  137.9238  182.2340 N   0  0  0  0  0  0  0  0  0  0  0  0
  145.4362  137.3875  183.5111 C   0  0  0  0  0  0  0  0  0  0  0  0
  145.6382  136.1694  183.7070 O   0  0  0  0  0  0  0  0  0  0  0  0
  145.1256  138.9658  182.1375 H   0  0  0  0  0  0  0  0  0  0  0  0
  145.3546  138.2759  184.7184 C   0  0  0  0  0  0  0  0  0  0  0  0
  144.9403  137.5526  185.8867 N   0  0  0  0  0  0  0  0  0  0  0  0
  143.6893  137.6556  186.5086 C   0  0  0  0  0  0  0  0  0  0  0  0
  142.8472  138.4447  186.0055 O   0  0  0  0  0  0  0  0  0  0  0  0
  145.6485  136.8849  186.3164 H   0  0  0  0  0  0  0  0  0  0  0  0
  143.3331  136.8729  187.7272 C   0  0  0  0  0  0  0  0  0  0  0  0
  143.0517  135.4259  187.3682 C   0  0  0  0  0  0  0  0  0  0  0  0
  143.6793  135.0611  186.1896 O   0  0  0  0  0  0  0  0  0  0  0  0
  144.0983  135.8688  185.7769 H   0  0  0  0  0  0  0  0  0  0  0  0
  144.4433  136.9733  188.7389 C   0  0  0  0  0  0  0  0  0  0  0  0
  144.1483  137.9461  189.6926 O   0  0  0  0  0  0  0  0  0  0  0  0
  144.4131  138.8190  189.3057 H   0  0  0  0  0  0  0  0  0  0  0  0
  146.5593  139.1162  184.9161 C   0  0  0  0  0  0  0  0  0  0  0  0
  147.6496  138.7266  184.1498 O   0  0  0  0  0  0  0  0  0  0  0  0
  148.0216  139.4221  183.5698 H   0  0  0  0  0  0  0  0  0  0  0  0
  144.3984  137.7690  180.0138 C   0  0  0  0  0  0  0  0  0  0  0  0
  143.3051  138.3774  180.6622 O   0  0  0  0  0  0  0  0  0  0  0  0
  142.9632  137.7450  181.3487 H   0  0  0  0  0  0  0  0  0  0  0  0
  149.3038  138.3731  179.0776 C   0  0  0  0  0  0  0  0  0  0  0  0
  150.2817  139.3723  179.0478 O   0  0  0  0  0  0  0  0  0  0  0  0
  149.9972  140.1969  178.6137 H   0  0  0  0  0  0  0  0  0  0  0  0
  152.2926  138.6692  182.4302 C   0  0  0  0  0  0  0  0  0  0  0  0
  153.7960  140.6630  182.6073 N   0  0  0  0  0  0  0  0  0  0  0  0
  153.0196  139.7908  181.8259 C   0  0  0  0  0  0  0  0  0  0  0  0
  152.9591  139.9985  180.5739 O   0  0  0  0  0  0  0  0  0  0  0  0
  153.8933  140.5521  183.6607 H   0  0  0  0  0  0  0  0  0  0  0  0
  154.5345  141.8079  182.0826 C   0  0  0  0  0  0  0  0  0  0  0  0
  156.4132  140.4466  183.0398 N   0  0  0  0  0  0  0  0  0  0  0  0
  155.9496  141.6641  182.5124 C   0  0  0  0  0  0  0  0  0  0  0  0
  156.7224  142.6380  182.4010 O   0  0  0  0  0  0  0  0  0  0  0  0
  155.7270  139.6284  183.1056 H   0  0  0  0  0  0  0  0  0  0  0  0
  157.7317  140.1511  183.5089 C   0  0  0  0  0  0  0  0  0  0  0  0
  159.3669  142.0228  183.6196 N   0  0  0  0  0  0  0  0  0  0  0  0
  158.3935  141.2211  184.2615 C   0  0  0  0  0  0  0  0  0  0  0  0
  158.1384  141.4740  185.4713 O   0  0  0  0  0  0  0  0  0  0  0  0
  159.6047  141.8504  182.6238 H   0  0  0  0  0  0  0  0  0  0  0  0
  160.0579  143.0912  184.2975 C   0  0  0  0  0  0  0  0  0  0  0  0
  159.9993  144.3915  183.6058 C   0  0  0  0  0  0  0  0  0  0  0  0
  159.0984  144.6414  182.5456 N   0  0  0  0  0  0  0  0  0  0  0  0
  160.7741  145.3068  183.9667 O   0  0  0  0  0  0  0  0  0  0  0  0
  159.4560  145.0553  181.6823 H   0  0  0  0  0  0  0  0  0  0  0  0
  158.1001  144.3994  182.6665 H   0  0  0  0  0  0  0  0  0  0  0  0
  161.4218  142.7093  184.7509 C   0  0  0  0  0  0  0  0  0  0  0  0
  162.8912  142.7524  186.8199 C   0  0  0  0  0  0  0  0  0  0  0  0
  161.5837  142.3568  186.1827 C   0  0  0  0  0  0  0  0  0  0  0  0
  160.5033  143.1342  186.9505 C   0  0  0  0  0  0  0  0  0  0  0  0
  158.5675  139.6054  182.3760 C   0  0  0  0  0  0  0  0  0  0  0  0
  158.5779  140.3968  181.2558 O   0  0  0  0  0  0  0  0  0  0  0  0
  159.4392  140.7527  180.9854 H   0  0  0  0  0  0  0  0  0  0  0  0
  153.8711  143.0512  182.5764 C   0  0  0  0  0  0  0  0  0  0  0  0
  154.2237  143.1803  183.9397 O   0  0  0  0  0  0  0  0  0  0  0  0
  155.0491  143.6791  184.0588 H   0  0  0  0  0  0  0  0  0  0  0  0
  153.1340  137.5609  182.9473 C   0  0  0  0  0  0  0  0  0  0  0  0
  152.7405  136.3068  182.5794 O   0  0  0  0  0  0  0  0  0  0  0  0
  153.5126  135.7340  182.4071 H   0  0  0  0  0  0  0  0  0  0  0  0
 58 59  1  0  0  0
 59 60  1  0  0  0
 59 57  1  0  0  0
 57 51  1  0  0  0
 51 47  1  0  0  0
 47 48  1  0  0  0
 48 49  2  0  0  0
 48 46  1  0  0  0
 46 61  1  0  0  0
 61 62  1  0  0  0
 46 42  1  0  0  0
 42 43  1  0  0  0
 43 44  2  0  0  0
 43 41  1  0  0  0
 41 64  1  0  0  0
 64 65  1  0  0  0
 41 37  1  0  0  0
 37 38  1  0  0  0
 38 39  2  0  0  0
 38 36  1  0  0  0
 36 67  1  0  0  0
 67 68  1  0  0  0
 36  1  1  0  0  0
  1  2  1  0  0  0
  2  3  2  0  0  0
  2  5  1  0  0  0
  5 33  1  0  0  0
 33 34  1  0  0  0
  5  6  1  0  0  0
  6  7  1  0  0  0
  7  8  2  0  0  0
  7 10  1  0  0  0
 10 30  1  0  0  0
 30 31  1  0  0  0
 10 11  1  0  0  0
 11 12  1  0  0  0
 12 13  2  0  0  0
 12 15  1  0  0  0
 15 27  1  0  0  0
 27 28  1  0  0  0
 15 16  1  0  0  0
 16 17  1  0  0  0
 17 18  2  0  0  0
 17 20  1  0  0  0
 20 21  1  0  0  0
 21 22  1  0  0  0
 20 24  1  0  0  0
 24 25  1  0  0  0
 51 52  1  0  0  0
 52 53  1  0  0  0
 52 54  2  0  0  0
 47 50  1  0  0  0
 62 63  1  0  0  0
 42 45  1  0  0  0
 65 66  1  0  0  0
 37 40  1  0  0  0
 68 69  1  0  0  0
  1  4  1  0  0  0
 34 35  1  0  0  0
  6  9  1  0  0  0
 31 32  1  0  0  0
 11 14  1  0  0  0
 28 29  1  0  0  0
 16 19  1  0  0  0
 22 23  1  0  0  0
 25 26  1  0  0  0
 53 55  1  0  0  0
 53 56  1  0  0  0
M  END
> <minimizedAffinity>
-7.05569

> <CNNscore>
0.2173596025

> <CNNaffinity>
5.1573743820

> <CNN_VS>
1.1210048199

> <CNNaffinity_variance>
0.5507403612

$$$$
[H]OC([H])([H])C([H])(C(=O)N([H])[C@]([H])(C(=O)N([H])[C@]([H])(C(=O)N([H])[C@]([H])(C(=O)N([H])[C@]([H])(C(=O)N([H])[C@]([H])(C(=O)N([H])[C@]([H])(C(=O)N([H])[C@]([H])(C(=O)N([H])[H])C([H])([H])C([H])(C([H])([H])[H])C([H])([H])[H])C([H])([H])O[H])C([H])([H])O[H])C([H])([H])O[H])C([H])([H])O[H])C([H])([H])O[H])C([H])([H])O[H])C([H])([H])O[H]


 69 68  0  0  0  0  0  0  0  0999 V2000
  148.3912  134.8116  189.4270 N   0  0  0  0  0  0  0  0  0  0  0  0
  149.6239  134.6694  188.7753 C   0  0  0  0  0  0  0  0  0  0  0  0
  149.8842  133.5912  188.1893 O   0  0  0  0  0  0  0  0  0  0  0  0
  148.1356  135.6827  189.9070 H   0  0  0  0  0  0  0  0  0  0  0  0
  150.5807  135.8192  188.8126 C   0  0  0  0  0  0  0  0  0  0  0  0
  151.4752  135.7770  189.9186 N   0  0  0  0  0  0  0  0  0  0  0  0
  151.2021  136.0230  191.2741 C   0  0  0  0  0  0  0  0  0  0  0  0
  150.0476  136.3059  191.6391 O   0  0  0  0  0  0  0  0  0  0  0  0
  152.4854  135.5279  189.6722 H   0  0  0  0  0  0  0  0  0  0  0  0
  152.2876  135.9462  192.2767 C   0  0  0  0  0  0  0  0  0  0  0  0
  153.5561  136.4296  191.7836 N   0  0  0  0  0  0  0  0  0  0  0  0
  154.6661  135.6233  191.5417 C   0  0  0  0  0  0  0  0  0  0  0  0
  154.6492  134.3868  191.7256 O   0  0  0  0  0  0  0  0  0  0  0  0
  153.6350  137.4693  191.5997 H   0  0  0  0  0  0  0  0  0  0  0  0
  155.9464  136.2290  191.0440 C   0  0  0  0  0  0  0  0  0  0  0  0
  156.3082  135.7246  189.7501 N   0  0  0  0  0  0  0  0  0  0  0  0
  157.2244  134.6939  189.5034 C   0  0  0  0  0  0  0  0  0  0  0  0
  157.7812  134.1543  190.4952 O   0  0  0  0  0  0  0  0  0  0  0  0
  155.8411  136.1778  188.9083 H   0  0  0  0  0  0  0  0  0  0  0  0
  157.5538  134.2271  188.1258 C   0  0  0  0  0  0  0  0  0  0  0  0
  156.3840  134.4630  187.1888 C   0  0  0  0  0  0  0  0  0  0  0  0
  156.1617  133.3727  186.3654 O   0  0  0  0  0  0  0  0  0  0  0  0
  156.8931  132.7054  186.4994 H   0  0  0  0  0  0  0  0  0  0  0  0
  158.7915  134.9282  187.6332 C   0  0  0  0  0  0  0  0  0  0  0  0
  159.9123  134.4941  188.3392 O   0  0  0  0  0  0  0  0  0  0  0  0
  159.9432  135.0164  189.1807 H   0  0  0  0  0  0  0  0  0  0  0  0
  155.9836  137.7063  191.1555 C   0  0  0  0  0  0  0  0  0  0  0  0
  155.1641  138.3605  190.2454 O   0  0  0  0  0  0  0  0  0  0  0  0
  154.5056  138.9687  190.6391 H   0  0  0  0  0  0  0  0  0  0  0  0
  151.9752  136.6368  193.5725 C   0  0  0  0  0  0  0  0  0  0  0  0
  151.2082  135.8024  194.4100 O   0  0  0  0  0  0  0  0  0  0  0  0
  150.4805  135.4026  193.8636 H   0  0  0  0  0  0  0  0  0  0  0  0
  151.2913  135.9466  187.5041 C   0  0  0  0  0  0  0  0  0  0  0  0
  150.4125  136.1736  186.4403 O   0  0  0  0  0  0  0  0  0  0  0  0
  150.5323  135.5673  185.6870 H   0  0  0  0  0  0  0  0  0  0  0  0
  147.4169  133.7128  189.4511 C   0  0  0  0  0  0  0  0  0  0  0  0
  145.8678  135.4949  188.6196 N   0  0  0  0  0  0  0  0  0  0  0  0
  146.0876  134.1697  189.0316 C   0  0  0  0  0  0  0  0  0  0  0  0
  145.1004  133.3700  189.0345 O   0  0  0  0  0  0  0  0  0  0  0  0
  146.6454  136.2204  188.5916 H   0  0  0  0  0  0  0  0  0  0  0  0
  144.5740  136.0278  188.2033 C   0  0  0  0  0  0  0  0  0  0  0  0
  143.7575  136.7090  185.9299 N   0  0  0  0  0  0  0  0  0  0  0  0
  144.7712  136.7202  186.9034 C   0  0  0  0  0  0  0  0  0  0  0  0
  145.8486  137.3113  186.6850 O   0  0  0  0  0  0  0  0  0  0  0  0
  142.8410  136.2063  186.1579 H   0  0  0  0  0  0  0  0  0  0  0  0
  143.7947  137.3104  184.6328 C   0  0  0  0  0  0  0  0  0  0  0  0
  146.0456  138.1694  184.0124 N   0  0  0  0  0  0  0  0  0  0  0  0
  145.0560  137.1643  183.9000 C   0  0  0  0  0  0  0  0  0  0  0  0
  145.3153  136.1736  183.1626 O   0  0  0  0  0  0  0  0  0  0  0  0
  145.8740  139.0000  184.6113 H   0  0  0  0  0  0  0  0  0  0  0  0
  147.3081  138.0923  183.3206 C   0  0  0  0  0  0  0  0  0  0  0  0
  148.3135  137.2386  183.9786 C   0  0  0  0  0  0  0  0  0  0  0  0
  147.9556  136.1041  184.7420 N   0  0  0  0  0  0  0  0  0  0  0  0
  149.5263  137.5272  183.8602 O   0  0  0  0  0  0  0  0  0  0  0  0
  148.3574  135.9911  185.6748 H   0  0  0  0  0  0  0  0  0  0  0  0
  147.2958  135.4159  184.3410 H   0  0  0  0  0  0  0  0  0  0  0  0
  147.8262  139.4218  182.9011 C   0  0  0  0  0  0  0  0  0  0  0  0
  149.1378  139.1205  180.7491 C   0  0  0  0  0  0  0  0  0  0  0  0
  147.9224  139.6799  181.4434 C   0  0  0  0  0  0  0  0  0  0  0  0
  146.7206  138.9769  180.7933 C   0  0  0  0  0  0  0  0  0  0  0  0
  143.3081  138.7374  184.7162 C   0  0  0  0  0  0  0  0  0  0  0  0
  143.9452  139.4916  185.6682 O   0  0  0  0  0  0  0  0  0  0  0  0
  144.4409  140.2624  185.3492 H   0  0  0  0  0  0  0  0  0  0  0  0
  144.0660  136.9123  189.2939 C   0  0  0  0  0  0  0  0  0  0  0  0
  143.6598  138.1180  188.6767 O   0  0  0  0  0  0  0  0  0  0  0  0
  142.7319  138.0878  188.3894 H   0  0  0  0  0  0  0  0  0  0  0  0
  147.4919  133.1086  190.8050 C   0  0  0  0  0  0  0  0  0  0  0  0
  148.1906  133.8296  191.7296 O   0  0  0  0  0  0  0  0  0  0  0  0
  147.7708  133.7707  192.6096 H   0  0  0  0  0  0  0  0  0  0  0  0
 58 59  1  0  0  0
 59 60  1  0  0  0
 59 57  1  0  0  0
 57 51  1  0  0  0
 51 47  1  0  0  0
 47 48  1  0  0  0
 48 49  2  0  0  0
 48 46  1  0  0  0
 46 61  1  0  0  0
 61 62  1  0  0  0
 46 42  1  0  0  0
 42 43  1  0  0  0
 43 44  2  0  0  0
 43 41  1  0  0  0
 41 64  1  0  0  0
 64 65  1  0  0  0
 41 37  1  0  0  0
 37 38  1  0  0  0
 38 39  2  0  0  0
 38 36  1  0  0  0
 36 67  1  0  0  0
 67 68  1  0  0  0
 36  1  1  0  0  0
  1  2  1  0  0  0
  2  3  2  0  0  0
  2  5  1  0  0  0
  5 33  1  0  0  0
 33 34  1  0  0  0
  5  6  1  0  0  0
  6  7  1  0  0  0
  7  8  2  0  0  0
  7 10  1  0  0  0
 10 30  1  0  0  0
 30 31  1  0  0  0
 10 11  1  0  0  0
 11 12  1  0  0  0
 12 13  2  0  0  0
 12 15  1  0  0  0
 15 27  1  0  0  0
 27 28  1  0  0  0
 15 16  1  0  0  0
 16 17  1  0  0  0
 17 18  2  0  0  0
 17 20  1  0  0  0
 20 21  1  0  0  0
 21 22  1  0  0  0
 20 24  1  0  0  0
 24 25  1  0  0  0
 51 52  1  0  0  0
 52 53  1  0  0  0
 52 54  2  0  0  0
 47 50  1  0  0  0
 62 63  1  0  0  0
 42 45  1  0  0  0
 65 66  1  0  0  0
 37 40  1  0  0  0
 68 69  1  0  0  0
  1  4  1  0  0  0
 34 35  1  0  0  0
  6  9  1  0  0  0
 31 32  1  0  0  0
 11 14  1  0  0  0
 28 29  1  0  0  0
 16 19  1  0  0  0
 22 23  1  0  0  0
 25 26  1  0  0  0
 53 55  1  0  0  0
 53 56  1  0  0  0
M  END
> <minimizedAffinity>
-5.14546

> <CNNscore>
0.2149542868

> <CNNaffinity>
4.4302778244

> <CNN_VS>
0.9523072243

> <CNNaffinity_variance>
1.2544062138

$$$$
[H]N=C(N([H])[H])N([H])C([H])([H])C([H])([H])C([H])([H])[C@@]([H])(C(=O)N([H])[C@]([H])(C(=O)N([H])[C@]([H])(C(=O)N([H])[C@]([H])(C(=O)N([H])[H])C([H])([H])O[H])C([H])([H])C([H])([H])C([H])([H])N=C(N([H])[H])N([H])[H])C([H])([H])c1c([H])c([H])c([H])c([H])c1[H])N([H])C(=O)[C@@]([H])(N([H])[H])C([H])([H])c1c([H])c([H])c(O[H])c([H])c1[H]


 70 71  0  0  0  0  0  0  0  0999 V2000
  154.7467  138.0894  186.0142 C   0  0  0  0  0  0  0  0  0  0  0  0
  155.3835  138.9358  185.0235 C   0  0  0  0  0  0  0  0  0  0  0  0
  154.8565  139.0276  183.8848 O   0  0  0  0  0  0  0  0  0  0  0  0
  156.5622  139.6630  185.2701 N   0  0  0  0  0  0  0  0  0  0  0  0
  157.0201  139.6262  186.1893 H   0  0  0  0  0  0  0  0  0  0  0  0
  157.1540  140.4963  184.1855 C   0  0  0  0  0  0  0  0  0  0  0  0
  158.5688  140.6208  184.4356 C   0  0  0  0  0  0  0  0  0  0  0  0
  159.3324  139.6589  184.0581 O   0  0  0  0  0  0  0  0  0  0  0  0
  159.2517  141.6907  185.0577 N   0  0  0  0  0  0  0  0  0  0  0  0
  158.7179  142.5264  185.3730 H   0  0  0  0  0  0  0  0  0  0  0  0
  160.6878  141.7165  185.2868 C   0  0  0  0  0  0  0  0  0  0  0  0
  160.9677  142.5439  186.4569 C   0  0  0  0  0  0  0  0  0  0  0  0
  162.2571  142.8980  186.9227 N   0  0  0  0  0  0  0  0  0  0  0  0
  159.9910  143.0025  187.1381 O   0  0  0  0  0  0  0  0  0  0  0  0
  162.6852  142.5163  187.8086 H   0  0  0  0  0  0  0  0  0  0  0  0
  162.8274  143.5788  186.3657 H   0  0  0  0  0  0  0  0  0  0  0  0
  161.4758  142.1082  184.0615 C   0  0  0  0  0  0  0  0  0  0  0  0
  162.8008  141.7190  184.2666 O   0  0  0  0  0  0  0  0  0  0  0  0
  162.8768  140.7663  184.5592 H   0  0  0  0  0  0  0  0  0  0  0  0
  156.4100  141.8203  184.1824 C   0  0  0  0  0  0  0  0  0  0  0  0
  156.1768  142.4426  182.8670 C   0  0  0  0  0  0  0  0  0  0  0  0
  157.4546  143.1248  182.3802 C   0  0  0  0  0  0  0  0  0  0  0  0
  157.5761  143.1308  180.9438 N   0  0  0  0  0  0  0  0  0  0  0  0
  158.2699  142.2111  180.3846 C   0  0  0  0  0  0  0  0  0  0  0  0
  158.8912  141.2286  181.1732 N   0  0  0  0  0  0  0  0  0  0  0  0
  158.4033  142.1939  178.9912 N   0  0  0  0  0  0  0  0  0  0  0  0
  158.6141  140.2242  181.2343 H   0  0  0  0  0  0  0  0  0  0  0  0
  159.7116  141.5183  181.7608 H   0  0  0  0  0  0  0  0  0  0  0  0
  159.2632  142.5554  178.5464 H   0  0  0  0  0  0  0  0  0  0  0  0
  157.6476  141.8214  178.3889 H   0  0  0  0  0  0  0  0  0  0  0  0
  152.5100  137.0527  185.6750 C   0  0  0  0  0  0  0  0  0  0  0  0
  152.0522  137.9471  186.4765 O   0  0  0  0  0  0  0  0  0  0  0  0
  153.8716  137.0736  185.4189 N   0  0  0  0  0  0  0  0  0  0  0  0
  154.3214  136.3770  184.8122 H   0  0  0  0  0  0  0  0  0  0  0  0
  151.4670  136.1248  185.1535 C   0  0  0  0  0  0  0  0  0  0  0  0
  150.4718  136.0750  186.2986 N   0  0  0  0  0  0  0  0  0  0  0  0
  150.4923  135.0529  187.2346 C   0  0  0  0  0  0  0  0  0  0  0  0
  151.3707  134.1336  187.1242 O   0  0  0  0  0  0  0  0  0  0  0  0
  149.8059  136.8465  186.3132 H   0  0  0  0  0  0  0  0  0  0  0  0
  149.5397  134.9889  188.3500 C   0  0  0  0  0  0  0  0  0  0  0  0
  148.3771  134.2073  187.9455 N   0  0  0  0  0  0  0  0  0  0  0  0
  148.3351  134.2406  186.9096 H   0  0  0  0  0  0  0  0  0  0  0  0
  147.5502  134.6901  188.3951 H   0  0  0  0  0  0  0  0  0  0  0  0
  150.1658  134.2172  189.5205 C   0  0  0  0  0  0  0  0  0  0  0  0
  150.6939  135.1551  190.5428 C   0  0  0  0  0  0  0  0  0  0  0  0
  149.9577  135.4164  191.7052 C   0  0  0  0  0  0  0  0  0  0  0  0
  150.3884  136.2579  192.6906 C   0  0  0  0  0  0  0  0  0  0  0  0
  151.6169  136.8986  192.5535 C   0  0  0  0  0  0  0  0  0  0  0  0
  152.0553  137.7533  193.5548 O   0  0  0  0  0  0  0  0  0  0  0  0
  152.3700  136.6610  191.4130 C   0  0  0  0  0  0  0  0  0  0  0  0
  151.8970  135.8072  190.4491 C   0  0  0  0  0  0  0  0  0  0  0  0
  152.6166  137.3908  194.3322 H   0  0  0  0  0  0  0  0  0  0  0  0
  150.7183  136.7511  184.0154 C   0  0  0  0  0  0  0  0  0  0  0  0
  151.3772  136.8252  182.7063 C   0  0  0  0  0  0  0  0  0  0  0  0
  150.9676  137.9147  181.7847 C   0  0  0  0  0  0  0  0  0  0  0  0
  151.4432  139.2239  181.9600 N   0  0  0  0  0  0  0  0  0  0  0  0
  151.0802  139.8362  182.7268 H   0  0  0  0  0  0  0  0  0  0  0  0
  153.4467  140.6256  181.5904 N   0  0  0  0  0  0  0  0  0  0  0  0
  152.4487  139.7675  181.0806 C   0  0  0  0  0  0  0  0  0  0  0  0
  152.4290  139.4542  179.8465 N   0  0  0  0  0  0  0  0  0  0  0  0
  153.9632  141.3484  181.0602 H   0  0  0  0  0  0  0  0  0  0  0  0
  153.6746  140.5052  182.6223 H   0  0  0  0  0  0  0  0  0  0  0  0
  153.1418  139.8210  179.1969 H   0  0  0  0  0  0  0  0  0  0  0  0
  155.7710  137.3996  186.9115 C   0  0  0  0  0  0  0  0  0  0  0  0
  155.7009  137.7837  188.3149 C   0  0  0  0  0  0  0  0  0  0  0  0
  154.6129  138.4942  188.7706 C   0  0  0  0  0  0  0  0  0  0  0  0
  154.4694  138.8957  190.0804 C   0  0  0  0  0  0  0  0  0  0  0  0
  155.4577  138.5806  191.0087 C   0  0  0  0  0  0  0  0  0  0  0  0
  156.5575  137.8702  190.5814 C   0  0  0  0  0  0  0  0  0  0  0  0
  156.6618  137.4873  189.2589 C   0  0  0  0  0  0  0  0  0  0  0  0
 58 59  1  0  0  0
 59 60  2  0  0  0
 59 56  1  0  0  0
 56 55  1  0  0  0
 55 54  1  0  0  0
 54 53  1  0  0  0
 53 35  1  0  0  0
 35 36  1  0  0  0
 36 37  1  0  0  0
 37 38  2  0  0  0
 37 40  1  0  0  0
 40 41  1  0  0  0
 40 44  1  0  0  0
 44 45  1  0  0  0
 45 46  2  0  0  0
 46 47  1  0  0  0
 47 48  2  0  0  0
 48 49  1  0  0  0
 48 50  1  0  0  0
 50 51  2  0  0  0
 35 31  1  0  0  0
 31 32  2  0  0  0
 31 33  1  0  0  0
 33  1  1  0  0  0
  1 64  1  0  0  0
 64 65  1  0  0  0
 65 66  2  0  0  0
 66 67  1  0  0  0
 67 68  2  0  0  0
 68 69  1  0  0  0
 69 70  2  0  0  0
  1  2  1  0  0  0
  2  3  2  0  0  0
  2  4  1  0  0  0
  4  6  1  0  0  0
  6 20  1  0  0  0
 20 21  1  0  0  0
 21 22  1  0  0  0
 22 23  1  0  0  0
 23 24  2  0  0  0
 24 25  1  0  0  0
 24 26  1  0  0  0
  6  7  1  0  0  0
  7  8  2  0  0  0
  7  9  1  0  0  0
  9 11  1  0  0  0
 11 17  1  0  0  0
 17 18  1  0  0  0
 11 12  1  0  0  0
 12 13  1  0  0  0
 12 14  2  0  0  0
 51 45  1  0  0  0
 70 65  1  0  0  0
 58 61  1  0  0  0
 58 62  1  0  0  0
 60 63  1  0  0  0
 56 57  1  0  0  0
 36 39  1  0  0  0
 41 42  1  0  0  0
 41 43  1  0  0  0
 49 52  1  0  0  0
 33 34  1  0  0  0
  4  5  1  0  0  0
 25 27  1  0  0  0
 25 28  1  0  0  0
 26 29  1  0  0  0
 26 30  1  0  0  0
  9 10  1  0  0  0
 18 19  1  0  0  0
 13 15  1  0  0  0
 13 16  1  0  0  0
M  END
> <minimizedAffinity>
-7.96841

> <CNNscore>
0.2727990746

> <CNNaffinity>
6.8622717857

> <CNN_VS>
1.8720214367

> <CNNaffinity_variance>
0.3824963570

$$$$
[H]N=C(N([H])[H])N([H])C([H])([H])C([H])([H])C([H])([H])[C@@]([H])(C(=O)N([H])[C@]([H])(C(=O)N([H])[C@]([H])(C(=O)N([H])[C@]([H])(C(=O)N([H])[H])C([H])([H])O[H])C([H])([H])C([H])([H])C([H])([H])N=C(N([H])[H])N([H])[H])C([H])([H])c1c([H])c([H])c([H])c([H])c1[H])N([H])C(=O)[C@@]([H])(N([H])[H])C([H])([H])c1c([H])c([H])c(O[H])c([H])c1[H]


 70 71  0  0  0  0  0  0  0  0999 V2000
  156.6066  139.8209  184.9039 C   0  0  0  0  0  0  0  0  0  0  0  0
  155.8094  140.3411  183.8096 C   0  0  0  0  0  0  0  0  0  0  0  0
  155.9916  139.8696  182.6576 O   0  0  0  0  0  0  0  0  0  0  0  0
  154.8392  141.3472  183.9695 N   0  0  0  0  0  0  0  0  0  0  0  0
  154.6497  141.7525  184.8945 H   0  0  0  0  0  0  0  0  0  0  0  0
  154.0775  141.8309  182.7835 C   0  0  0  0  0  0  0  0  0  0  0  0
  153.4779  140.6890  182.1382 C   0  0  0  0  0  0  0  0  0  0  0  0
  153.4119  140.6902  180.8551 O   0  0  0  0  0  0  0  0  0  0  0  0
  152.9373  139.5317  182.7436 N   0  0  0  0  0  0  0  0  0  0  0  0
  152.9707  139.4305  183.7787 H   0  0  0  0  0  0  0  0  0  0  0  0
  152.3303  138.4350  182.0060 C   0  0  0  0  0  0  0  0  0  0  0  0
  150.9048  138.7046  181.8408 C   0  0  0  0  0  0  0  0  0  0  0  0
  150.3351  139.5238  180.8361 N   0  0  0  0  0  0  0  0  0  0  0  0
  150.0766  138.1725  182.6526 O   0  0  0  0  0  0  0  0  0  0  0  0
  149.9020  140.4674  181.0255 H   0  0  0  0  0  0  0  0  0  0  0  0
  150.3357  139.1833  179.8446 H   0  0  0  0  0  0  0  0  0  0  0  0
  152.6289  137.0824  182.6038 C   0  0  0  0  0  0  0  0  0  0  0  0
  152.0077  136.1194  181.8065 O   0  0  0  0  0  0  0  0  0  0  0  0
  152.2193  136.2340  180.8365 H   0  0  0  0  0  0  0  0  0  0  0  0
  155.0544  142.5926  181.9049 C   0  0  0  0  0  0  0  0  0  0  0  0
  155.9737  143.5186  182.5902 C   0  0  0  0  0  0  0  0  0  0  0  0
  157.4214  143.1227  182.3023 C   0  0  0  0  0  0  0  0  0  0  0  0
  157.7559  143.1956  180.9021 N   0  0  0  0  0  0  0  0  0  0  0  0
  158.0561  142.1130  180.2874 C   0  0  0  0  0  0  0  0  0  0  0  0
  158.0541  140.8924  180.9825 N   0  0  0  0  0  0  0  0  0  0  0  0
  158.3843  142.1564  178.9272 N   0  0  0  0  0  0  0  0  0  0  0  0
  157.3603  140.1211  180.8676 H   0  0  0  0  0  0  0  0  0  0  0  0
  158.8157  140.7279  181.6863 H   0  0  0  0  0  0  0  0  0  0  0  0
  159.3734  142.1259  178.6295 H   0  0  0  0  0  0  0  0  0  0  0  0
  157.6461  142.2193  178.2035 H   0  0  0  0  0  0  0  0  0  0  0  0
  154.7437  138.4307  185.7925 C   0  0  0  0  0  0  0  0  0  0  0  0
  153.9940  139.4634  185.6395 O   0  0  0  0  0  0  0  0  0  0  0  0
  156.0789  138.5645  185.4470 N   0  0  0  0  0  0  0  0  0  0  0  0
  156.7505  137.7960  185.5650 H   0  0  0  0  0  0  0  0  0  0  0  0
  154.0246  137.2427  186.3332 C   0  0  0  0  0  0  0  0  0  0  0  0
  154.3300  137.3237  187.8179 N   0  0  0  0  0  0  0  0  0  0  0  0
  154.6358  136.1930  188.5591 C   0  0  0  0  0  0  0  0  0  0  0  0
  154.6577  135.0593  187.9733 O   0  0  0  0  0  0  0  0  0  0  0  0
  154.2913  138.2652  188.2063 H   0  0  0  0  0  0  0  0  0  0  0  0
  154.9362  136.2516  189.9951 C   0  0  0  0  0  0  0  0  0  0  0  0
  156.3656  136.4728  190.1790 N   0  0  0  0  0  0  0  0  0  0  0  0
  156.8367  136.1432  189.3156 H   0  0  0  0  0  0  0  0  0  0  0  0
  156.6279  135.8931  191.0240 H   0  0  0  0  0  0  0  0  0  0  0  0
  154.2484  137.4754  190.6172 C   0  0  0  0  0  0  0  0  0  0  0  0
  153.0466  137.0656  191.3862 C   0  0  0  0  0  0  0  0  0  0  0  0
  151.9880  136.4127  190.7424 C   0  0  0  0  0  0  0  0  0  0  0  0
  150.8595  135.9982  191.3900 C   0  0  0  0  0  0  0  0  0  0  0  0
  150.7339  136.2260  192.7578 C   0  0  0  0  0  0  0  0  0  0  0  0
  149.5876  135.8045  193.4164 O   0  0  0  0  0  0  0  0  0  0  0  0
  151.7652  136.8711  193.4245 C   0  0  0  0  0  0  0  0  0  0  0  0
  152.8806  137.2695  192.7324 C   0  0  0  0  0  0  0  0  0  0  0  0
  149.5444  134.8654  193.8253 H   0  0  0  0  0  0  0  0  0  0  0  0
  152.5401  137.4273  186.2316 C   0  0  0  0  0  0  0  0  0  0  0  0
  151.6864  136.2345  186.2726 C   0  0  0  0  0  0  0  0  0  0  0  0
  150.2213  136.4348  186.4054 C   0  0  0  0  0  0  0  0  0  0  0  0
  149.4937  137.1123  185.4142 N   0  0  0  0  0  0  0  0  0  0  0  0
  149.9222  137.3448  184.4884 H   0  0  0  0  0  0  0  0  0  0  0  0
  147.8228  138.4218  186.6825 N   0  0  0  0  0  0  0  0  0  0  0  0
  148.1281  137.5135  185.6460 C   0  0  0  0  0  0  0  0  0  0  0  0
  147.2087  137.0473  184.8985 N   0  0  0  0  0  0  0  0  0  0  0  0
  146.9214  138.4991  187.1842 H   0  0  0  0  0  0  0  0  0  0  0  0
  148.6089  139.0807  186.9639 H   0  0  0  0  0  0  0  0  0  0  0  0
  146.2245  137.3249  185.0359 H   0  0  0  0  0  0  0  0  0  0  0  0
  158.0625  139.6135  184.4947 C   0  0  0  0  0  0  0  0  0  0  0  0
  158.9543  140.7060  184.8597 C   0  0  0  0  0  0  0  0  0  0  0  0
  158.7744  141.3570  186.0597 C   0  0  0  0  0  0  0  0  0  0  0  0
  159.5723  142.3983  186.4796 C   0  0  0  0  0  0  0  0  0  0  0  0
  160.6184  142.8329  185.6706 C   0  0  0  0  0  0  0  0  0  0  0  0
  160.8224  142.2000  184.4646 C   0  0  0  0  0  0  0  0  0  0  0  0
  159.9988  141.1599  184.0818 C   0  0  0  0  0  0  0  0  0  0  0  0
 58 59  1  0  0  0
 59 60  2  0  0  0
 59 56  1  0  0  0
 56 55  1  0  0  0
 55 54  1  0  0  0
 54 53  1  0  0  0
 53 35  1  0  0  0
 35 36  1  0  0  0
 36 37  1  0  0  0
 37 38  2  0  0  0
 37 40  1  0  0  0
 40 41  1  0  0  0
 40 44  1  0  0  0
 44 45  1  0  0  0
 45 46  2  0  0  0
 46 47  1  0  0  0
 47 48  2  0  0  0
 48 49  1  0  0  0
 48 50  1  0  0  0
 50 51  2  0  0  0
 35 31  1  0  0  0
 31 32  2  0  0  0
 31 33  1  0  0  0
 33  1  1  0  0  0
  1 64  1  0  0  0
 64 65  1  0  0  0
 65 66  2  0  0  0
 66 67  1  0  0  0
 67 68  2  0  0  0
 68 69  1  0  0  0
 69 70  2  0  0  0
  1  2  1  0  0  0
  2  3  2  0  0  0
  2  4  1  0  0  0
  4  6  1  0  0  0
  6 20  1  0  0  0
 20 21  1  0  0  0
 21 22  1  0  0  0
 22 23  1  0  0  0
 23 24  2  0  0  0
 24 25  1  0  0  0
 24 26  1  0  0  0
  6  7  1  0  0  0
  7  8  2  0  0  0
  7  9  1  0  0  0
  9 11  1  0  0  0
 11 17  1  0  0  0
 17 18  1  0  0  0
 11 12  1  0  0  0
 12 13  1  0  0  0
 12 14  2  0  0  0
 51 45  1  0  0  0
 70 65  1  0  0  0
 58 61  1  0  0  0
 58 62  1  0  0  0
 60 63  1  0  0  0
 56 57  1  0  0  0
 36 39  1  0  0  0
 41 42  1  0  0  0
 41 43  1  0  0  0
 49 52  1  0  0  0
 33 34  1  0  0  0
  4  5  1  0  0  0
 25 27  1  0  0  0
 25 28  1  0  0  0
 26 29  1  0  0  0
 26 30  1  0  0  0
  9 10  1  0  0  0
 18 19  1  0  0  0
 13 15  1  0  0  0
 13 16  1  0  0  0
M  END
> <minimizedAffinity>
-7.64495

> <CNNscore>
0.1929922700

> <CNNaffinity>
6.6973810196

> <CNN_VS>
1.2925428152

> <CNNaffinity_variance>
0.2682353854

$$$$
[H]N=C(N([H])[H])N([H])C([H])([H])C([H])([H])C([H])([H])[C@@]([H])(C(=O)N([H])[C@]([H])(C(=O)N([H])[C@]([H])(C(=O)N([H])[C@]([H])(C(=O)N([H])[H])C([H])([H])O[H])C([H])([H])C([H])([H])C([H])([H])N=C(N([H])[H])N([H])[H])C([H])([H])c1c([H])c([H])c([H])c([H])c1[H])N([H])C(=O)[C@@]([H])(N([H])[H])C([H])([H])c1c([H])c([H])c(O[H])c([H])c1[H]


 70 71  0  0  0  0  0  0  0  0999 V2000
  152.0508  138.6030  180.7563 C   0  0  0  0  0  0  0  0  0  0  0  0
  152.6703  139.5185  181.6953 C   0  0  0  0  0  0  0  0  0  0  0  0
  152.1865  140.6736  181.8151 O   0  0  0  0  0  0  0  0  0  0  0  0
  153.7864  139.1812  182.4826 N   0  0  0  0  0  0  0  0  0  0  0  0
  154.2068  138.2453  182.4251 H   0  0  0  0  0  0  0  0  0  0  0  0
  154.3658  140.1930  183.4106 C   0  0  0  0  0  0  0  0  0  0  0  0
  155.5641  140.7220  182.8073 C   0  0  0  0  0  0  0  0  0  0  0  0
  155.4845  141.1688  181.6054 O   0  0  0  0  0  0  0  0  0  0  0  0
  156.8544  140.8203  183.3762 N   0  0  0  0  0  0  0  0  0  0  0  0
  157.0085  140.5072  184.3565 H   0  0  0  0  0  0  0  0  0  0  0  0
  158.0139  141.3521  182.6774 C   0  0  0  0  0  0  0  0  0  0  0  0
  159.1910  140.5709  183.0466 C   0  0  0  0  0  0  0  0  0  0  0  0
  160.5080  141.0770  183.1659 N   0  0  0  0  0  0  0  0  0  0  0  0
  159.0556  139.3256  183.2893 O   0  0  0  0  0  0  0  0  0  0  0  0
  161.2855  140.8523  182.4884 H   0  0  0  0  0  0  0  0  0  0  0  0
  160.7363  141.7100  183.9697 H   0  0  0  0  0  0  0  0  0  0  0  0
  158.1869  142.8391  182.8637 C   0  0  0  0  0  0  0  0  0  0  0  0
  158.9234  143.3199  181.7796 O   0  0  0  0  0  0  0  0  0  0  0  0
  158.5485  143.0217  180.9024 H   0  0  0  0  0  0  0  0  0  0  0  0
  154.6007  139.4975  184.7402 C   0  0  0  0  0  0  0  0  0  0  0  0
  153.7204  138.3575  185.0525 C   0  0  0  0  0  0  0  0  0  0  0  0
  153.0174  138.5936  186.3887 C   0  0  0  0  0  0  0  0  0  0  0  0
  152.8949  137.3942  187.1787 N   0  0  0  0  0  0  0  0  0  0  0  0
  153.4160  137.3759  188.3484 C   0  0  0  0  0  0  0  0  0  0  0  0
  154.0887  138.5109  188.8304 N   0  0  0  0  0  0  0  0  0  0  0  0
  153.3107  136.2236  189.1362 N   0  0  0  0  0  0  0  0  0  0  0  0
  153.7539  139.1489  189.5857 H   0  0  0  0  0  0  0  0  0  0  0  0
  155.0152  138.7515  188.3993 H   0  0  0  0  0  0  0  0  0  0  0  0
  154.1071  135.5691  189.2097 H   0  0  0  0  0  0  0  0  0  0  0  0
  152.4392  136.0106  189.6537 H   0  0  0  0  0  0  0  0  0  0  0  0
  151.7999  136.4010  181.8880 C   0  0  0  0  0  0  0  0  0  0  0  0
  153.0616  136.2415  181.7027 O   0  0  0  0  0  0  0  0  0  0  0  0
  151.2369  137.5753  181.4145 N   0  0  0  0  0  0  0  0  0  0  0  0
  150.2311  137.7679  181.4972 H   0  0  0  0  0  0  0  0  0  0  0  0
  151.1488  135.2616  182.5942 C   0  0  0  0  0  0  0  0  0  0  0  0
  151.9957  134.0798  182.1576 N   0  0  0  0  0  0  0  0  0  0  0  0
  151.6390  133.2913  181.0749 C   0  0  0  0  0  0  0  0  0  0  0  0
  150.5705  133.5701  180.4348 O   0  0  0  0  0  0  0  0  0  0  0  0
  152.8308  133.9275  182.7217 H   0  0  0  0  0  0  0  0  0  0  0  0
  152.4462  132.1460  180.6364 C   0  0  0  0  0  0  0  0  0  0  0  0
  151.5610  131.0689  180.2093 N   0  0  0  0  0  0  0  0  0  0  0  0
  150.6489  131.2221  180.6790 H   0  0  0  0  0  0  0  0  0  0  0  0
  152.0330  130.1793  180.5326 H   0  0  0  0  0  0  0  0  0  0  0  0
  153.2550  132.5312  179.3894 C   0  0  0  0  0  0  0  0  0  0  0  0
  154.7098  132.5169  179.6842 C   0  0  0  0  0  0  0  0  0  0  0  0
  155.3002  133.5885  180.3659 C   0  0  0  0  0  0  0  0  0  0  0  0
  156.6284  133.6354  180.6797 C   0  0  0  0  0  0  0  0  0  0  0  0
  157.4549  132.5766  180.3131 C   0  0  0  0  0  0  0  0  0  0  0  0
  158.8045  132.6236  180.6323 O   0  0  0  0  0  0  0  0  0  0  0  0
  156.9004  131.5003  179.6362 C   0  0  0  0  0  0  0  0  0  0  0  0
  155.5604  131.4967  179.3424 C   0  0  0  0  0  0  0  0  0  0  0  0
  159.1363  132.2426  181.5242 H   0  0  0  0  0  0  0  0  0  0  0  0
  151.3586  135.3634  184.0753 C   0  0  0  0  0  0  0  0  0  0  0  0
  150.1785  135.4936  184.9376 C   0  0  0  0  0  0  0  0  0  0  0  0
  149.1124  136.4369  184.5160 C   0  0  0  0  0  0  0  0  0  0  0  0
  147.9987  136.6790  185.3359 N   0  0  0  0  0  0  0  0  0  0  0  0
  147.8080  136.0925  186.1811 H   0  0  0  0  0  0  0  0  0  0  0  0
  146.1162  137.5838  184.0119 N   0  0  0  0  0  0  0  0  0  0  0  0
  147.0775  137.7462  185.0326 C   0  0  0  0  0  0  0  0  0  0  0  0
  147.1370  138.8269  185.7035 N   0  0  0  0  0  0  0  0  0  0  0  0
  145.6772  138.3388  183.4573 H   0  0  0  0  0  0  0  0  0  0  0  0
  145.8298  136.5807  183.8043 H   0  0  0  0  0  0  0  0  0  0  0  0
  146.4839  139.6030  185.5141 H   0  0  0  0  0  0  0  0  0  0  0  0
  151.1904  139.3390  179.7325 C   0  0  0  0  0  0  0  0  0  0  0  0
  149.7574  139.1222  179.8800 C   0  0  0  0  0  0  0  0  0  0  0  0
  149.0674  138.4518  178.8948 C   0  0  0  0  0  0  0  0  0  0  0  0
  147.7136  138.2056  178.9568 C   0  0  0  0  0  0  0  0  0  0  0  0
  146.9841  138.6449  180.0580 C   0  0  0  0  0  0  0  0  0  0  0  0
  147.6481  139.3182  181.0593 C   0  0  0  0  0  0  0  0  0  0  0  0
  149.0065  139.5441  180.9573 C   0  0  0  0  0  0  0  0  0  0  0  0
 58 59  1  0  0  0
 59 60  2  0  0  0
 59 56  1  0  0  0
 56 55  1  0  0  0
 55 54  1  0  0  0
 54 53  1  0  0  0
 53 35  1  0  0  0
 35 36  1  0  0  0
 36 37  1  0  0  0
 37 38  2  0  0  0
 37 40  1  0  0  0
 40 41  1  0  0  0
 40 44  1  0  0  0
 44 45  1  0  0  0
 45 46  2  0  0  0
 46 47  1  0  0  0
 47 48  2  0  0  0
 48 49  1  0  0  0
 48 50  1  0  0  0
 50 51  2  0  0  0
 35 31  1  0  0  0
 31 32  2  0  0  0
 31 33  1  0  0  0
 33  1  1  0  0  0
  1 64  1  0  0  0
 64 65  1  0  0  0
 65 66  2  0  0  0
 66 67  1  0  0  0
 67 68  2  0  0  0
 68 69  1  0  0  0
 69 70  2  0  0  0
  1  2  1  0  0  0
  2  3  2  0  0  0
  2  4  1  0  0  0
  4  6  1  0  0  0
  6 20  1  0  0  0
 20 21  1  0  0  0
 21 22  1  0  0  0
 22 23  1  0  0  0
 23 24  2  0  0  0
 24 25  1  0  0  0
 24 26  1  0  0  0
  6  7  1  0  0  0
  7  8  2  0  0  0
  7  9  1  0  0  0
  9 11  1  0  0  0
 11 17  1  0  0  0
 17 18  1  0  0  0
 11 12  1  0  0  0
 12 13  1  0  0  0
 12 14  2  0  0  0
 51 45  1  0  0  0
 70 65  1  0  0  0
 58 61  1  0  0  0
 58 62  1  0  0  0
 60 63  1  0  0  0
 56 57  1  0  0  0
 36 39  1  0  0  0
 41 42  1  0  0  0
 41 43  1  0  0  0
 49 52  1  0  0  0
 33 34  1  0  0  0
  4  5  1  0  0  0
 25 27  1  0  0  0
 25 28  1  0  0  0
 26 29  1  0  0  0
 26 30  1  0  0  0
  9 10  1  0  0  0
 18 19  1  0  0  0
 13 15  1  0  0  0
 13 16  1  0  0  0
M  END
> <minimizedAffinity>
-6.71469

> <CNNscore>
0.1895315647

> <CNNaffinity>
6.3486213684

> <CNN_VS>
1.2032641172

> <CNNaffinity_variance>
0.2853111625

$$$$
[H]N=C(N([H])[H])N([H])C([H])([H])C([H])([H])C([H])([H])[C@@]([H])(C(=O)N([H])[C@]([H])(C(=O)N([H])[C@]([H])(C(=O)N([H])[C@]([H])(C(=O)N([H])[H])C([H])([H])O[H])C([H])([H])C([H])([H])C([H])([H])N=C(N([H])[H])N([H])[H])C([H])([H])c1c([H])c([H])c([H])c([H])c1[H])N([H])C(=O)[C@@]([H])(N([H])[H])C([H])([H])c1c([H])c([H])c(O[H])c([H])c1[H]


 70 71  0  0  0  0  0  0  0  0999 V2000
  154.6509  136.2415  186.6746 C   0  0  0  0  0  0  0  0  0  0  0  0
  153.8031  135.6217  187.6749 C   0  0  0  0  0  0  0  0  0  0  0  0
  154.1613  134.5204  188.1662 O   0  0  0  0  0  0  0  0  0  0  0  0
  152.5981  136.1899  188.1271 N   0  0  0  0  0  0  0  0  0  0  0  0
  152.2730  137.0934  187.7612 H   0  0  0  0  0  0  0  0  0  0  0  0
  151.7834  135.4729  189.1484 C   0  0  0  0  0  0  0  0  0  0  0  0
  150.4749  135.2329  188.5919 C   0  0  0  0  0  0  0  0  0  0  0  0
  150.4059  134.6489  187.4496 O   0  0  0  0  0  0  0  0  0  0  0  0
  149.2183  135.5615  189.1497 N   0  0  0  0  0  0  0  0  0  0  0  0
  149.1747  136.0137  190.0859 H   0  0  0  0  0  0  0  0  0  0  0  0
  147.9446  135.2973  188.4992 C   0  0  0  0  0  0  0  0  0  0  0  0
  147.3220  136.5681  188.1393 C   0  0  0  0  0  0  0  0  0  0  0  0
  146.1652  137.1163  188.7446 N   0  0  0  0  0  0  0  0  0  0  0  0
  147.8392  137.2677  187.2059 O   0  0  0  0  0  0  0  0  0  0  0  0
  145.2280  137.1825  188.2639 H   0  0  0  0  0  0  0  0  0  0  0  0
  146.2318  137.4825  189.7246 H   0  0  0  0  0  0  0  0  0  0  0  0
  147.0485  134.3856  189.3003 C   0  0  0  0  0  0  0  0  0  0  0  0
  145.8863  134.1721  188.5568 O   0  0  0  0  0  0  0  0  0  0  0  0
  146.0814  133.8919  187.6175 H   0  0  0  0  0  0  0  0  0  0  0  0
  151.7728  136.3359  190.3981 C   0  0  0  0  0  0  0  0  0  0  0  0
  152.7921  136.0318  191.4182 C   0  0  0  0  0  0  0  0  0  0  0  0
  152.3478  136.5746  192.7758 C   0  0  0  0  0  0  0  0  0  0  0  0
  150.9587  136.3129  193.0582 N   0  0  0  0  0  0  0  0  0  0  0  0
  150.6685  135.5324  194.0312 C   0  0  0  0  0  0  0  0  0  0  0  0
  151.6975  134.9542  194.7926 N   0  0  0  0  0  0  0  0  0  0  0  0
  149.3271  135.2622  194.3267 N   0  0  0  0  0  0  0  0  0  0  0  0
  151.9438  135.1969  195.7775 H   0  0  0  0  0  0  0  0  0  0  0  0
  152.2811  134.2073  194.3411 H   0  0  0  0  0  0  0  0  0  0  0  0
  148.8938  134.3774  194.0148 H   0  0  0  0  0  0  0  0  0  0  0  0
  148.7524  135.9401  194.8584 H   0  0  0  0  0  0  0  0  0  0  0  0
  153.6017  137.1650  184.6158 C   0  0  0  0  0  0  0  0  0  0  0  0
  153.8959  136.0490  184.0503 O   0  0  0  0  0  0  0  0  0  0  0  0
  153.9751  137.3174  185.9414 N   0  0  0  0  0  0  0  0  0  0  0  0
  153.8023  138.1885  186.4581 H   0  0  0  0  0  0  0  0  0  0  0  0
  152.8962  138.1237  183.7191 C   0  0  0  0  0  0  0  0  0  0  0  0
  154.0474  138.8386  183.0349 N   0  0  0  0  0  0  0  0  0  0  0  0
  154.6152  139.9824  183.5739 C   0  0  0  0  0  0  0  0  0  0  0  0
  154.1532  140.4413  184.6716 O   0  0  0  0  0  0  0  0  0  0  0  0
  154.3553  138.4065  182.1647 H   0  0  0  0  0  0  0  0  0  0  0  0
  155.7301  140.6861  182.9281 C   0  0  0  0  0  0  0  0  0  0  0  0
  155.2242  141.4514  181.7948 N   0  0  0  0  0  0  0  0  0  0  0  0
  154.3331  141.0077  181.5032 H   0  0  0  0  0  0  0  0  0  0  0  0
  155.9727  141.3713  181.0517 H   0  0  0  0  0  0  0  0  0  0  0  0
  156.3154  141.7247  183.8958 C   0  0  0  0  0  0  0  0  0  0  0  0
  157.7948  141.6134  183.9508 C   0  0  0  0  0  0  0  0  0  0  0  0
  158.5206  141.3023  182.7941 C   0  0  0  0  0  0  0  0  0  0  0  0
  159.8817  141.1959  182.7706 C   0  0  0  0  0  0  0  0  0  0  0  0
  160.6037  141.4024  183.9430 C   0  0  0  0  0  0  0  0  0  0  0  0
  161.9869  141.2950  183.9194 O   0  0  0  0  0  0  0  0  0  0  0  0
  159.9138  141.7117  185.1060 C   0  0  0  0  0  0  0  0  0  0  0  0
  158.5456  141.8083  185.0820 C   0  0  0  0  0  0  0  0  0  0  0  0
  162.5641  142.1179  183.7182 H   0  0  0  0  0  0  0  0  0  0  0  0
  152.1819  137.3970  182.6194 C   0  0  0  0  0  0  0  0  0  0  0  0
  150.7964  136.9726  182.8514 C   0  0  0  0  0  0  0  0  0  0  0  0
  149.7489  137.4961  181.9388 C   0  0  0  0  0  0  0  0  0  0  0  0
  149.0964  138.7090  182.2110 N   0  0  0  0  0  0  0  0  0  0  0  0
  149.6208  139.5397  182.5711 H   0  0  0  0  0  0  0  0  0  0  0  0
  147.1715  139.1468  180.7216 N   0  0  0  0  0  0  0  0  0  0  0  0
  147.6756  138.8448  182.0050 C   0  0  0  0  0  0  0  0  0  0  0  0
  146.8868  138.6780  182.9905 N   0  0  0  0  0  0  0  0  0  0  0  0
  146.2774  139.6226  180.5104 H   0  0  0  0  0  0  0  0  0  0  0  0
  147.7852  138.8519  179.9044 H   0  0  0  0  0  0  0  0  0  0  0  0
  145.8654  138.7597  182.8694 H   0  0  0  0  0  0  0  0  0  0  0  0
  155.9390  136.7879  187.2847 C   0  0  0  0  0  0  0  0  0  0  0  0
  155.7884  137.3313  188.6280 C   0  0  0  0  0  0  0  0  0  0  0  0
  156.5074  136.7829  189.6666 C   0  0  0  0  0  0  0  0  0  0  0  0
  156.4230  137.2369  190.9642 C   0  0  0  0  0  0  0  0  0  0  0  0
  155.5777  138.3005  191.2674 C   0  0  0  0  0  0  0  0  0  0  0  0
  154.8463  138.8691  190.2484 C   0  0  0  0  0  0  0  0  0  0  0  0
  154.9607  138.3831  188.9610 C   0  0  0  0  0  0  0  0  0  0  0  0
 58 59  1  0  0  0
 59 60  2  0  0  0
 59 56  1  0  0  0
 56 55  1  0  0  0
 55 54  1  0  0  0
 54 53  1  0  0  0
 53 35  1  0  0  0
 35 36  1  0  0  0
 36 37  1  0  0  0
 37 38  2  0  0  0
 37 40  1  0  0  0
 40 41  1  0  0  0
 40 44  1  0  0  0
 44 45  1  0  0  0
 45 46  2  0  0  0
 46 47  1  0  0  0
 47 48  2  0  0  0
 48 49  1  0  0  0
 48 50  1  0  0  0
 50 51  2  0  0  0
 35 31  1  0  0  0
 31 32  2  0  0  0
 31 33  1  0  0  0
 33  1  1  0  0  0
  1 64  1  0  0  0
 64 65  1  0  0  0
 65 66  2  0  0  0
 66 67  1  0  0  0
 67 68  2  0  0  0
 68 69  1  0  0  0
 69 70  2  0  0  0
  1  2  1  0  0  0
  2  3  2  0  0  0
  2  4  1  0  0  0
  4  6  1  0  0  0
  6 20  1  0  0  0
 20 21  1  0  0  0
 21 22  1  0  0  0
 22 23  1  0  0  0
 23 24  2  0  0  0
 24 25  1  0  0  0
 24 26  1  0  0  0
  6  7  1  0  0  0
  7  8  2  0  0  0
  7  9  1  0  0  0
  9 11  1  0  0  0
 11 17  1  0  0  0
 17 18  1  0  0  0
 11 12  1  0  0  0
 12 13  1  0  0  0
 12 14  2  0  0  0
 51 45  1  0  0  0
 70 65  1  0  0  0
 58 61  1  0  0  0
 58 62  1  0  0  0
 60 63  1  0  0  0
 56 57  1  0  0  0
 36 39  1  0  0  0
 41 42  1  0  0  0
 41 43  1  0  0  0
 49 52  1  0  0  0
 33 34  1  0  0  0
  4  5  1  0  0  0
 25 27  1  0  0  0
 25 28  1  0  0  0
 26 29  1  0  0  0
 26 30  1  0  0  0
  9 10  1  0  0  0
 18 19  1  0  0  0
 13 15  1  0  0  0
 13 16  1  0  0  0
M  END
> <minimizedAffinity>
-7.01077

> <CNNscore>
0.1881512105

> <CNNaffinity>
6.4597840309

> <CNN_VS>
1.2154161930

> <CNNaffinity_variance>
0.2880525291

$$$$
[H]N=C(N([H])[H])N([H])C([H])([H])C([H])([H])C([H])([H])[C@@]([H])(C(=O)N([H])[C@]([H])(C(=O)N([H])[C@]([H])(C(=O)N([H])[C@]([H])(C(=O)N([H])[H])C([H])([H])O[H])C([H])([H])C([H])([H])C([H])([H])N=C(N([H])[H])N([H])[H])C([H])([H])c1c([H])c([H])c([H])c([H])c1[H])N([H])C(=O)[C@@]([H])(N([H])[H])C([H])([H])c1c([H])c([H])c(O[H])c([H])c1[H]


 70 71  0  0  0  0  0  0  0  0999 V2000
  154.4630  138.1206  184.2154 C   0  0  0  0  0  0  0  0  0  0  0  0
  155.5461  139.0317  184.5323 C   0  0  0  0  0  0  0  0  0  0  0  0
  156.0950  138.9418  185.6606 O   0  0  0  0  0  0  0  0  0  0  0  0
  156.0175  140.0127  183.6409 N   0  0  0  0  0  0  0  0  0  0  0  0
  155.6058  140.1139  182.7048 H   0  0  0  0  0  0  0  0  0  0  0  0
  157.1268  140.9158  184.0590 C   0  0  0  0  0  0  0  0  0  0  0  0
  157.1894  142.0127  183.1251 C   0  0  0  0  0  0  0  0  0  0  0  0
  156.2378  142.8757  183.1474 O   0  0  0  0  0  0  0  0  0  0  0  0
  158.1869  142.2773  182.1590 N   0  0  0  0  0  0  0  0  0  0  0  0
  159.0108  141.6460  182.0857 H   0  0  0  0  0  0  0  0  0  0  0  0
  158.1523  143.4046  181.2406 C   0  0  0  0  0  0  0  0  0  0  0  0
  158.7385  142.9980  179.9666 C   0  0  0  0  0  0  0  0  0  0  0  0
  158.3813  141.8428  179.2298 N   0  0  0  0  0  0  0  0  0  0  0  0
  159.6509  143.7226  179.4464 O   0  0  0  0  0  0  0  0  0  0  0  0
  159.0051  140.9977  179.1267 H   0  0  0  0  0  0  0  0  0  0  0  0
  157.4480  141.8147  178.7534 H   0  0  0  0  0  0  0  0  0  0  0  0
  158.7611  144.6580  181.8187 C   0  0  0  0  0  0  0  0  0  0  0  0
  157.7444  145.3659  182.4624 O   0  0  0  0  0  0  0  0  0  0  0  0
  157.2218  144.7929  183.0929 H   0  0  0  0  0  0  0  0  0  0  0  0
  158.3916  140.0766  184.1097 C   0  0  0  0  0  0  0  0  0  0  0  0
  159.5617  140.6864  184.7662 C   0  0  0  0  0  0  0  0  0  0  0  0
  159.1071  141.7951  185.7146 C   0  0  0  0  0  0  0  0  0  0  0  0
  160.1089  142.1459  186.6899 N   0  0  0  0  0  0  0  0  0  0  0  0
  160.9592  143.0565  186.3934 C   0  0  0  0  0  0  0  0  0  0  0  0
  160.8990  143.6856  185.1390 N   0  0  0  0  0  0  0  0  0  0  0  0
  161.9421  143.4162  187.3231 N   0  0  0  0  0  0  0  0  0  0  0  0
  160.6022  144.6700  184.9591 H   0  0  0  0  0  0  0  0  0  0  0  0
  161.1752  143.1248  184.2956 H   0  0  0  0  0  0  0  0  0  0  0  0
  162.9043  143.0508  187.2306 H   0  0  0  0  0  0  0  0  0  0  0  0
  161.7216  144.0494  188.1124 H   0  0  0  0  0  0  0  0  0  0  0  0
  153.4972  137.2292  186.3284 C   0  0  0  0  0  0  0  0  0  0  0  0
  152.9191  138.3692  186.4623 O   0  0  0  0  0  0  0  0  0  0  0  0
  154.3015  137.0576  185.2133 N   0  0  0  0  0  0  0  0  0  0  0  0
  154.8209  136.1870  185.0464 H   0  0  0  0  0  0  0  0  0  0  0  0
  153.1946  136.2707  187.4287 C   0  0  0  0  0  0  0  0  0  0  0  0
  153.8875  136.9098  188.6185 N   0  0  0  0  0  0  0  0  0  0  0  0
  154.4497  136.1449  189.6285 C   0  0  0  0  0  0  0  0  0  0  0  0
  154.3781  134.8730  189.5509 O   0  0  0  0  0  0  0  0  0  0  0  0
  153.9006  137.9288  188.6023 H   0  0  0  0  0  0  0  0  0  0  0  0
  155.1257  136.7447  190.7856 C   0  0  0  0  0  0  0  0  0  0  0  0
  156.1625  137.6569  190.3175 N   0  0  0  0  0  0  0  0  0  0  0  0
  156.4174  137.3587  189.3573 H   0  0  0  0  0  0  0  0  0  0  0  0
  156.9627  137.5380  190.9990 H   0  0  0  0  0  0  0  0  0  0  0  0
  154.1341  137.6176  191.5680 C   0  0  0  0  0  0  0  0  0  0  0  0
  153.1231  136.7744  192.2542 C   0  0  0  0  0  0  0  0  0  0  0  0
  151.7594  137.0671  192.1270 C   0  0  0  0  0  0  0  0  0  0  0  0
  150.7766  136.3277  192.7205 C   0  0  0  0  0  0  0  0  0  0  0  0
  151.1250  135.2244  193.4950 C   0  0  0  0  0  0  0  0  0  0  0  0
  150.1267  134.4724  194.0977 O   0  0  0  0  0  0  0  0  0  0  0  0
  152.4678  134.9084  193.6409 C   0  0  0  0  0  0  0  0  0  0  0  0
  153.4206  135.6801  193.0257 C   0  0  0  0  0  0  0  0  0  0  0  0
  149.7118  133.6762  193.6029 H   0  0  0  0  0  0  0  0  0  0  0  0
  151.7349  136.2957  187.7701 C   0  0  0  0  0  0  0  0  0  0  0  0
  150.8906  135.1931  187.2960 C   0  0  0  0  0  0  0  0  0  0  0  0
  149.5723  135.5341  186.7045 C   0  0  0  0  0  0  0  0  0  0  0  0
  149.2071  135.0581  185.4352 N   0  0  0  0  0  0  0  0  0  0  0  0
  148.6417  134.1848  185.3239 H   0  0  0  0  0  0  0  0  0  0  0  0
  150.2445  135.0665  183.1905 N   0  0  0  0  0  0  0  0  0  0  0  0
  149.6065  135.7607  184.2409 C   0  0  0  0  0  0  0  0  0  0  0  0
  149.3660  137.0074  184.1444 N   0  0  0  0  0  0  0  0  0  0  0  0
  150.8896  135.4719  182.4905 H   0  0  0  0  0  0  0  0  0  0  0  0
  150.0322  134.0261  183.1301 H   0  0  0  0  0  0  0  0  0  0  0  0
  149.6322  137.5329  183.2973 H   0  0  0  0  0  0  0  0  0  0  0  0
  153.1351  138.8555  184.0518 C   0  0  0  0  0  0  0  0  0  0  0  0
  152.6916  139.0022  182.6720 C   0  0  0  0  0  0  0  0  0  0  0  0
  152.1452  137.9218  182.0160 C   0  0  0  0  0  0  0  0  0  0  0  0
  151.7019  137.9761  180.7131 C   0  0  0  0  0  0  0  0  0  0  0  0
  151.7993  139.1691  180.0024 C   0  0  0  0  0  0  0  0  0  0  0  0
  152.3415  140.2668  180.6332 C   0  0  0  0  0  0  0  0  0  0  0  0
  152.7739  140.1689  181.9409 C   0  0  0  0  0  0  0  0  0  0  0  0
 58 59  1  0  0  0
 59 60  2  0  0  0
 59 56  1  0  0  0
 56 55  1  0  0  0
 55 54  1  0  0  0
 54 53  1  0  0  0
 53 35  1  0  0  0
 35 36  1  0  0  0
 36 37  1  0  0  0
 37 38  2  0  0  0
 37 40  1  0  0  0
 40 41  1  0  0  0
 40 44  1  0  0  0
 44 45  1  0  0  0
 45 46  2  0  0  0
 46 47  1  0  0  0
 47 48  2  0  0  0
 48 49  1  0  0  0
 48 50  1  0  0  0
 50 51  2  0  0  0
 35 31  1  0  0  0
 31 32  2  0  0  0
 31 33  1  0  0  0
 33  1  1  0  0  0
  1 64  1  0  0  0
 64 65  1  0  0  0
 65 66  2  0  0  0
 66 67  1  0  0  0
 67 68  2  0  0  0
 68 69  1  0  0  0
 69 70  2  0  0  0
  1  2  1  0  0  0
  2  3  2  0  0  0
  2  4  1  0  0  0
  4  6  1  0  0  0
  6 20  1  0  0  0
 20 21  1  0  0  0
 21 22  1  0  0  0
 22 23  1  0  0  0
 23 24  2  0  0  0
 24 25  1  0  0  0
 24 26  1  0  0  0
  6  7  1  0  0  0
  7  8  2  0  0  0
  7  9  1  0  0  0
  9 11  1  0  0  0
 11 17  1  0  0  0
 17 18  1  0  0  0
 11 12  1  0  0  0
 12 13  1  0  0  0
 12 14  2  0  0  0
 51 45  1  0  0  0
 70 65  1  0  0  0
 58 61  1  0  0  0
 58 62  1  0  0  0
 60 63  1  0  0  0
 56 57  1  0  0  0
 36 39  1  0  0  0
 41 42  1  0  0  0
 41 43  1  0  0  0
 49 52  1  0  0  0
 33 34  1  0  0  0
  4  5  1  0  0  0
 25 27  1  0  0  0
 25 28  1  0  0  0
 26 29  1  0  0  0
 26 30  1  0  0  0
  9 10  1  0  0  0
 18 19  1  0  0  0
 13 15  1  0  0  0
 13 16  1  0  0  0
M  END
> <minimizedAffinity>
-7.46942

> <CNNscore>
0.1865814179

> <CNNaffinity>
6.8187842369

> <CNN_VS>
1.2722584009

> <CNNaffinity_variance>
0.2945681214

$$$$
[H]N=C(N([H])[H])N([H])C([H])([H])C([H])([H])C([H])([H])[C@@]([H])(C(=O)N([H])[C@]([H])(C(=O)N([H])[C@]([H])(C(=O)N([H])[C@]([H])(C(=O)N([H])[H])C([H])([H])O[H])C([H])([H])C([H])([H])C([H])([H])N=C(N([H])[H])N([H])[H])C([H])([H])c1c([H])c([H])c([H])c([H])c1[H])N([H])C(=O)[C@@]([H])(N([H])[H])C([H])([H])c1c([H])c([H])c(O[H])c([H])c1[H]


 70 71  0  0  0  0  0  0  0  0999 V2000
  156.4557  139.7693  184.8989 C   0  0  0  0  0  0  0  0  0  0  0  0
  155.6914  140.3163  183.7943 C   0  0  0  0  0  0  0  0  0  0  0  0
  155.8408  139.8101  182.6524 O   0  0  0  0  0  0  0  0  0  0  0  0
  154.7878  141.3856  183.9335 N   0  0  0  0  0  0  0  0  0  0  0  0
  154.6264  141.8216  184.8499 H   0  0  0  0  0  0  0  0  0  0  0  0
  154.0563  141.8920  182.7380 C   0  0  0  0  0  0  0  0  0  0  0  0
  153.4288  140.7691  182.0861 C   0  0  0  0  0  0  0  0  0  0  0  0
  153.5024  140.7001  180.8053 O   0  0  0  0  0  0  0  0  0  0  0  0
  152.7228  139.6996  182.6828 N   0  0  0  0  0  0  0  0  0  0  0  0
  152.6347  139.6573  183.7188 H   0  0  0  0  0  0  0  0  0  0  0  0
  152.1019  138.6168  181.9363 C   0  0  0  0  0  0  0  0  0  0  0  0
  150.7685  139.0348  181.5129 C   0  0  0  0  0  0  0  0  0  0  0  0
  150.4716  139.7649  180.3365 N   0  0  0  0  0  0  0  0  0  0  0  0
  149.7653  138.7322  182.2411 O   0  0  0  0  0  0  0  0  0  0  0  0
  150.1572  140.7723  180.3361 H   0  0  0  0  0  0  0  0  0  0  0  0
  150.5636  139.2876  179.4077 H   0  0  0  0  0  0  0  0  0  0  0  0
  152.1220  137.3012  182.6743 C   0  0  0  0  0  0  0  0  0  0  0  0
  151.5051  136.3488  181.8611 O   0  0  0  0  0  0  0  0  0  0  0  0
  151.8747  136.3441  180.9325 H   0  0  0  0  0  0  0  0  0  0  0  0
  155.0676  142.6215  181.8709 C   0  0  0  0  0  0  0  0  0  0  0  0
  155.9194  143.6165  182.5466 C   0  0  0  0  0  0  0  0  0  0  0  0
  157.3924  143.2998  182.2909 C   0  0  0  0  0  0  0  0  0  0  0  0
  157.5918  142.4298  181.1591 N   0  0  0  0  0  0  0  0  0  0  0  0
  158.4261  142.7840  180.2544 C   0  0  0  0  0  0  0  0  0  0  0  0
  159.1201  143.9985  180.3822 N   0  0  0  0  0  0  0  0  0  0  0  0
  158.6385  141.9567  179.1452 N   0  0  0  0  0  0  0  0  0  0  0  0
  160.1371  144.1059  180.5913 H   0  0  0  0  0  0  0  0  0  0  0  0
  158.5772  144.8886  180.2585 H   0  0  0  0  0  0  0  0  0  0  0  0
  158.1835  142.1702  178.2423 H   0  0  0  0  0  0  0  0  0  0  0  0
  159.2504  141.1238  179.2121 H   0  0  0  0  0  0  0  0  0  0  0  0
  154.5535  138.4286  185.7800 C   0  0  0  0  0  0  0  0  0  0  0  0
  153.8400  139.4905  185.6569 O   0  0  0  0  0  0  0  0  0  0  0  0
  155.8889  138.5215  185.4221 N   0  0  0  0  0  0  0  0  0  0  0  0
  156.5336  137.7272  185.5166 H   0  0  0  0  0  0  0  0  0  0  0  0
  153.7978  137.2561  186.3045 C   0  0  0  0  0  0  0  0  0  0  0  0
  154.3287  136.1175  185.4524 N   0  0  0  0  0  0  0  0  0  0  0  0
  153.5316  135.0385  185.1039 C   0  0  0  0  0  0  0  0  0  0  0  0
  152.3233  135.0068  185.5139 O   0  0  0  0  0  0  0  0  0  0  0  0
  155.3017  136.2214  185.1675 H   0  0  0  0  0  0  0  0  0  0  0  0
  154.0264  133.9293  184.2790 C   0  0  0  0  0  0  0  0  0  0  0  0
  152.9139  133.0515  183.9355 N   0  0  0  0  0  0  0  0  0  0  0  0
  152.1799  133.1975  184.6538 H   0  0  0  0  0  0  0  0  0  0  0  0
  153.3148  132.0732  183.9663 H   0  0  0  0  0  0  0  0  0  0  0  0
  154.5480  134.4730  182.9412 C   0  0  0  0  0  0  0  0  0  0  0  0
  155.6366  133.6118  182.4149 C   0  0  0  0  0  0  0  0  0  0  0  0
  155.9979  133.6810  181.0636 C   0  0  0  0  0  0  0  0  0  0  0  0
  156.9962  132.9271  180.5161 C   0  0  0  0  0  0  0  0  0  0  0  0
  157.7025  132.0389  181.3227 C   0  0  0  0  0  0  0  0  0  0  0  0
  158.7174  131.2731  180.7669 O   0  0  0  0  0  0  0  0  0  0  0  0
  157.3683  131.9465  182.6658 C   0  0  0  0  0  0  0  0  0  0  0  0
  156.3579  132.7241  183.1721 C   0  0  0  0  0  0  0  0  0  0  0  0
  159.6793  131.6273  180.7494 H   0  0  0  0  0  0  0  0  0  0  0  0
  154.2278  136.9278  187.7028 C   0  0  0  0  0  0  0  0  0  0  0  0
  153.8677  137.8591  188.7781 C   0  0  0  0  0  0  0  0  0  0  0  0
  153.9209  137.3592  190.1750 C   0  0  0  0  0  0  0  0  0  0  0  0
  154.7778  137.9473  191.1188 N   0  0  0  0  0  0  0  0  0  0  0  0
  154.4272  138.6552  191.8048 H   0  0  0  0  0  0  0  0  0  0  0  0
  157.0928  138.2107  190.2903 N   0  0  0  0  0  0  0  0  0  0  0  0
  156.1751  137.5940  191.1676 C   0  0  0  0  0  0  0  0  0  0  0  0
  156.5677  136.7304  192.0170 N   0  0  0  0  0  0  0  0  0  0  0  0
  157.9902  137.8132  189.9631 H   0  0  0  0  0  0  0  0  0  0  0  0
  156.8170  139.1760  189.9391 H   0  0  0  0  0  0  0  0  0  0  0  0
  157.5630  136.4659  192.0802 H   0  0  0  0  0  0  0  0  0  0  0  0
  157.9137  139.5308  184.5148 C   0  0  0  0  0  0  0  0  0  0  0  0
  158.8148  140.6237  184.8550 C   0  0  0  0  0  0  0  0  0  0  0  0
  159.8003  140.9925  183.9666 C   0  0  0  0  0  0  0  0  0  0  0  0
  160.6919  142.0135  184.2110 C   0  0  0  0  0  0  0  0  0  0  0  0
  160.6147  142.7231  185.4061 C   0  0  0  0  0  0  0  0  0  0  0  0
  159.6385  142.3764  186.3136 C   0  0  0  0  0  0  0  0  0  0  0  0
  158.7646  141.3460  186.0289 C   0  0  0  0  0  0  0  0  0  0  0  0
 58 59  1  0  0  0
 59 60  2  0  0  0
 59 56  1  0  0  0
 56 55  1  0  0  0
 55 54  1  0  0  0
 54 53  1  0  0  0
 53 35  1  0  0  0
 35 36  1  0  0  0
 36 37  1  0  0  0
 37 38  2  0  0  0
 37 40  1  0  0  0
 40 41  1  0  0  0
 40 44  1  0  0  0
 44 45  1  0  0  0
 45 46  2  0  0  0
 46 47  1  0  0  0
 47 48  2  0  0  0
 48 49  1  0  0  0
 48 50  1  0  0  0
 50 51  2  0  0  0
 35 31  1  0  0  0
 31 32  2  0  0  0
 31 33  1  0  0  0
 33  1  1  0  0  0
  1 64  1  0  0  0
 64 65  1  0  0  0
 65 66  2  0  0  0
 66 67  1  0  0  0
 67 68  2  0  0  0
 68 69  1  0  0  0
 69 70  2  0  0  0
  1  2  1  0  0  0
  2  3  2  0  0  0
  2  4  1  0  0  0
  4  6  1  0  0  0
  6 20  1  0  0  0
 20 21  1  0  0  0
 21 22  1  0  0  0
 22 23  1  0  0  0
 23 24  2  0  0  0
 24 25  1  0  0  0
 24 26  1  0  0  0
  6  7  1  0  0  0
  7  8  2  0  0  0
  7  9  1  0  0  0
  9 11  1  0  0  0
 11 17  1  0  0  0
 17 18  1  0  0  0
 11 12  1  0  0  0
 12 13  1  0  0  0
 12 14  2  0  0  0
 51 45  1  0  0  0
 70 65  1  0  0  0
 58 61  1  0  0  0
 58 62  1  0  0  0
 60 63  1  0  0  0
 56 57  1  0  0  0
 36 39  1  0  0  0
 41 42  1  0  0  0
 41 43  1  0  0  0
 49 52  1  0  0  0
 33 34  1  0  0  0
  4  5  1  0  0  0
 25 27  1  0  0  0
 25 28  1  0  0  0
 26 29  1  0  0  0
 26 30  1  0  0  0
  9 10  1  0  0  0
 18 19  1  0  0  0
 13 15  1  0  0  0
 13 16  1  0  0  0
M  END
> <minimizedAffinity>
-7.45602

> <CNNscore>
0.1820378900

> <CNNaffinity>
7.0171394348

> <CNN_VS>
1.2773852348

> <CNNaffinity_variance>
0.1780041754

$$$$
[H]N=C(N([H])[H])N([H])C([H])([H])C([H])([H])C([H])([H])[C@@]([H])(C(=O)N([H])[C@]([H])(C(=O)N([H])[C@]([H])(C(=O)N([H])[C@]([H])(C(=O)N([H])[H])C([H])([H])O[H])C([H])([H])C([H])([H])C([H])([H])N=C(N([H])[H])N([H])[H])C([H])([H])c1c([H])c([H])c([H])c([H])c1[H])N([H])C(=O)[C@@]([H])(N([H])[H])C([H])([H])c1c([H])c([H])c(O[H])c([H])c1[H]


 70 71  0  0  0  0  0  0  0  0999 V2000
  153.3420  137.8209  187.5241 C   0  0  0  0  0  0  0  0  0  0  0  0
  152.0670  137.1337  187.5995 C   0  0  0  0  0  0  0  0  0  0  0  0
  151.1587  137.4643  186.7943 O   0  0  0  0  0  0  0  0  0  0  0  0
  151.7924  136.1126  188.5274 N   0  0  0  0  0  0  0  0  0  0  0  0
  152.5088  135.8032  189.1960 H   0  0  0  0  0  0  0  0  0  0  0  0
  150.4467  135.4724  188.5412 C   0  0  0  0  0  0  0  0  0  0  0  0
  150.1318  135.1177  189.9031 C   0  0  0  0  0  0  0  0  0  0  0  0
  148.8954  134.9501  190.2095 O   0  0  0  0  0  0  0  0  0  0  0  0
  151.0259  134.9217  190.9803 N   0  0  0  0  0  0  0  0  0  0  0  0
  152.0501  135.0102  190.8199 H   0  0  0  0  0  0  0  0  0  0  0  0
  150.6098  134.5848  192.3327 C   0  0  0  0  0  0  0  0  0  0  0  0
  150.3643  135.8177  193.0755 C   0  0  0  0  0  0  0  0  0  0  0  0
  150.9309  137.0813  192.7796 N   0  0  0  0  0  0  0  0  0  0  0  0
  149.5780  135.7884  194.0799 O   0  0  0  0  0  0  0  0  0  0  0  0
  151.6642  137.5488  193.3775 H   0  0  0  0  0  0  0  0  0  0  0  0
  150.6100  137.5917  191.9221 H   0  0  0  0  0  0  0  0  0  0  0  0
  151.5567  133.6356  193.0242 C   0  0  0  0  0  0  0  0  0  0  0  0
  152.4839  134.4020  193.7328 O   0  0  0  0  0  0  0  0  0  0  0  0
  152.0467  135.0927  194.3080 H   0  0  0  0  0  0  0  0  0  0  0  0
  150.5058  134.2870  187.5936 C   0  0  0  0  0  0  0  0  0  0  0  0
  149.2236  133.8294  187.0292 C   0  0  0  0  0  0  0  0  0  0  0  0
  148.6647  134.8893  186.0808 C   0  0  0  0  0  0  0  0  0  0  0  0
  147.3404  135.3268  186.4448 N   0  0  0  0  0  0  0  0  0  0  0  0
  147.1597  136.5633  186.7245 C   0  0  0  0  0  0  0  0  0  0  0  0
  148.2428  137.4561  186.6723 N   0  0  0  0  0  0  0  0  0  0  0  0
  145.8830  137.0140  187.0806 N   0  0  0  0  0  0  0  0  0  0  0  0
  148.3895  138.2030  185.9581 H   0  0  0  0  0  0  0  0  0  0  0  0
  148.9809  137.3752  187.4146 H   0  0  0  0  0  0  0  0  0  0  0  0
  145.6444  137.1692  188.0740 H   0  0  0  0  0  0  0  0  0  0  0  0
  145.1630  137.1974  186.3590 H   0  0  0  0  0  0  0  0  0  0  0  0
  154.6296  138.8226  185.6450 C   0  0  0  0  0  0  0  0  0  0  0  0
  155.6375  138.1469  186.0686 O   0  0  0  0  0  0  0  0  0  0  0  0
  153.4466  138.7024  186.3562 N   0  0  0  0  0  0  0  0  0  0  0  0
  152.6027  139.2298  186.1007 H   0  0  0  0  0  0  0  0  0  0  0  0
  154.9224  139.6404  184.4341 C   0  0  0  0  0  0  0  0  0  0  0  0
  156.3938  139.3540  184.1942 N   0  0  0  0  0  0  0  0  0  0  0  0
  157.3207  140.3761  184.0636 C   0  0  0  0  0  0  0  0  0  0  0  0
  156.9207  141.5853  184.1464 O   0  0  0  0  0  0  0  0  0  0  0  0
  156.6280  138.3634  184.1418 H   0  0  0  0  0  0  0  0  0  0  0  0
  158.7478  140.1188  183.8336 C   0  0  0  0  0  0  0  0  0  0  0  0
  158.8990  139.2514  182.6713 N   0  0  0  0  0  0  0  0  0  0  0  0
  158.0051  138.7377  182.5583 H   0  0  0  0  0  0  0  0  0  0  0  0
  159.7031  138.6072  182.9107 H   0  0  0  0  0  0  0  0  0  0  0  0
  159.4558  141.4297  183.4621 C   0  0  0  0  0  0  0  0  0  0  0  0
  160.3249  141.8885  184.5746 C   0  0  0  0  0  0  0  0  0  0  0  0
  159.7701  142.1788  185.8273 C   0  0  0  0  0  0  0  0  0  0  0  0
  160.5116  142.5936  186.8964 C   0  0  0  0  0  0  0  0  0  0  0  0
  161.8888  142.7424  186.7563 C   0  0  0  0  0  0  0  0  0  0  0  0
  162.6427  143.1633  187.8425 O   0  0  0  0  0  0  0  0  0  0  0  0
  162.4688  142.4632  185.5275 C   0  0  0  0  0  0  0  0  0  0  0  0
  161.6840  142.0490  184.4814 C   0  0  0  0  0  0  0  0  0  0  0  0
  163.0378  142.4761  188.4925 H   0  0  0  0  0  0  0  0  0  0  0  0
  154.2178  139.0845  183.2331 C   0  0  0  0  0  0  0  0  0  0  0  0
  153.1131  139.8581  182.6548 C   0  0  0  0  0  0  0  0  0  0  0  0
  153.4529  140.9559  181.7148 C   0  0  0  0  0  0  0  0  0  0  0  0
  154.7130  141.5737  181.7536 N   0  0  0  0  0  0  0  0  0  0  0  0
  155.5403  141.1524  181.2711 H   0  0  0  0  0  0  0  0  0  0  0  0
  153.9974  143.1966  183.4768 N   0  0  0  0  0  0  0  0  0  0  0  0
  154.9058  142.8119  182.4673 C   0  0  0  0  0  0  0  0  0  0  0  0
  155.9086  143.5430  182.1822 N   0  0  0  0  0  0  0  0  0  0  0  0
  153.7965  144.1636  183.7848 H   0  0  0  0  0  0  0  0  0  0  0  0
  153.4755  142.4021  183.9541 H   0  0  0  0  0  0  0  0  0  0  0  0
  156.0760  144.4291  182.6836 H   0  0  0  0  0  0  0  0  0  0  0  0
  153.6230  138.6319  188.7864 C   0  0  0  0  0  0  0  0  0  0  0  0
  154.5907  138.0258  189.6911 C   0  0  0  0  0  0  0  0  0  0  0  0
  154.1463  137.2725  190.7548 C   0  0  0  0  0  0  0  0  0  0  0  0
  154.9938  136.6661  191.6554 C   0  0  0  0  0  0  0  0  0  0  0  0
  156.3707  136.8055  191.5058 C   0  0  0  0  0  0  0  0  0  0  0  0
  156.8442  137.5532  190.4506 C   0  0  0  0  0  0  0  0  0  0  0  0
  155.9595  138.1444  189.5705 C   0  0  0  0  0  0  0  0  0  0  0  0
 58 59  1  0  0  0
 59 60  2  0  0  0
 59 56  1  0  0  0
 56 55  1  0  0  0
 55 54  1  0  0  0
 54 53  1  0  0  0
 53 35  1  0  0  0
 35 36  1  0  0  0
 36 37  1  0  0  0
 37 38  2  0  0  0
 37 40  1  0  0  0
 40 41  1  0  0  0
 40 44  1  0  0  0
 44 45  1  0  0  0
 45 46  2  0  0  0
 46 47  1  0  0  0
 47 48  2  0  0  0
 48 49  1  0  0  0
 48 50  1  0  0  0
 50 51  2  0  0  0
 35 31  1  0  0  0
 31 32  2  0  0  0
 31 33  1  0  0  0
 33  1  1  0  0  0
  1 64  1  0  0  0
 64 65  1  0  0  0
 65 66  2  0  0  0
 66 67  1  0  0  0
 67 68  2  0  0  0
 68 69  1  0  0  0
 69 70  2  0  0  0
  1  2  1  0  0  0
  2  3  2  0  0  0
  2  4  1  0  0  0
  4  6  1  0  0  0
  6 20  1  0  0  0
 20 21  1  0  0  0
 21 22  1  0  0  0
 22 23  1  0  0  0
 23 24  2  0  0  0
 24 25  1  0  0  0
 24 26  1  0  0  0
  6  7  1  0  0  0
  7  8  2  0  0  0
  7  9  1  0  0  0
  9 11  1  0  0  0
 11 17  1  0  0  0
 17 18  1  0  0  0
 11 12  1  0  0  0
 12 13  1  0  0  0
 12 14  2  0  0  0
 51 45  1  0  0  0
 70 65  1  0  0  0
 58 61  1  0  0  0
 58 62  1  0  0  0
 60 63  1  0  0  0
 56 57  1  0  0  0
 36 39  1  0  0  0
 41 42  1  0  0  0
 41 43  1  0  0  0
 49 52  1  0  0  0
 33 34  1  0  0  0
  4  5  1  0  0  0
 25 27  1  0  0  0
 25 28  1  0  0  0
 26 29  1  0  0  0
 26 30  1  0  0  0
  9 10  1  0  0  0
 18 19  1  0  0  0
 13 15  1  0  0  0
 13 16  1  0  0  0
M  END
> <minimizedAffinity>
-7.90130

> <CNNscore>
0.1774788052

> <CNNaffinity>
6.7402968407

> <CNN_VS>
1.1962598562

> <CNNaffinity_variance>
0.1284511387

$$$$
[H]N=C(N([H])[H])N([H])C([H])([H])C([H])([H])C([H])([H])[C@@]([H])(C(=O)N([H])[C@]([H])(C(=O)N([H])[C@]([H])(C(=O)N([H])[C@]([H])(C(=O)N([H])[H])C([H])([H])O[H])C([H])([H])C([H])([H])C([H])([H])N=C(N([H])[H])N([H])[H])C([H])([H])c1c([H])c([H])c([H])c([H])c1[H])N([H])C(=O)[C@@]([H])(N([H])[H])C([H])([H])c1c([H])c([H])c(O[H])c([H])c1[H]


 70 71  0  0  0  0  0  0  0  0999 V2000
  154.2053  138.0593  186.0234 C   0  0  0  0  0  0  0  0  0  0  0  0
  153.6286  136.8153  185.5508 C   0  0  0  0  0  0  0  0  0  0  0  0
  153.7609  135.7849  186.2602 O   0  0  0  0  0  0  0  0  0  0  0  0
  152.9254  136.7004  184.3377 N   0  0  0  0  0  0  0  0  0  0  0  0
  152.7839  137.5188  183.7326 H   0  0  0  0  0  0  0  0  0  0  0  0
  152.3797  135.3764  183.9254 C   0  0  0  0  0  0  0  0  0  0  0  0
  152.8041  135.1173  182.5717 C   0  0  0  0  0  0  0  0  0  0  0  0
  152.3710  135.8969  181.6468 O   0  0  0  0  0  0  0  0  0  0  0  0
  153.6596  134.0914  182.1092 N   0  0  0  0  0  0  0  0  0  0  0  0
  154.0802  133.4274  182.7910 H   0  0  0  0  0  0  0  0  0  0  0  0
  154.0150  133.8957  180.7125 C   0  0  0  0  0  0  0  0  0  0  0  0
  153.2968  132.7333  180.1976 C   0  0  0  0  0  0  0  0  0  0  0  0
  152.9907  131.5641  180.9355 N   0  0  0  0  0  0  0  0  0  0  0  0
  152.8974  132.7399  178.9858 O   0  0  0  0  0  0  0  0  0  0  0  0
  153.4519  130.6294  180.7699 H   0  0  0  0  0  0  0  0  0  0  0  0
  152.2649  131.6172  181.6900 H   0  0  0  0  0  0  0  0  0  0  0  0
  155.5050  133.8417  180.4827 C   0  0  0  0  0  0  0  0  0  0  0  0
  155.9289  132.5387  180.7502 O   0  0  0  0  0  0  0  0  0  0  0  0
  155.3796  131.8539  180.2725 H   0  0  0  0  0  0  0  0  0  0  0  0
  150.8720  135.4412  184.0967 C   0  0  0  0  0  0  0  0  0  0  0  0
  150.3164  136.7224  184.5678 C   0  0  0  0  0  0  0  0  0  0  0  0
  148.8751  136.5241  185.0353 C   0  0  0  0  0  0  0  0  0  0  0  0
  147.9857  137.5579  184.5682 N   0  0  0  0  0  0  0  0  0  0  0  0
  147.4678  138.3538  185.4275 C   0  0  0  0  0  0  0  0  0  0  0  0
  147.7729  138.2037  186.7903 N   0  0  0  0  0  0  0  0  0  0  0  0
  146.6012  139.3667  185.0000 N   0  0  0  0  0  0  0  0  0  0  0  0
  148.3635  138.8469  187.3621 H   0  0  0  0  0  0  0  0  0  0  0  0
  147.3765  137.3712  187.2925 H   0  0  0  0  0  0  0  0  0  0  0  0
  145.5785  139.2486  185.0898 H   0  0  0  0  0  0  0  0  0  0  0  0
  146.9690  140.2436  184.5898 H   0  0  0  0  0  0  0  0  0  0  0  0
  155.1498  139.7529  184.4639 C   0  0  0  0  0  0  0  0  0  0  0  0
  156.3095  139.3135  184.8014 O   0  0  0  0  0  0  0  0  0  0  0  0
  154.0516  139.1595  185.0654 N   0  0  0  0  0  0  0  0  0  0  0  0
  153.0916  139.4707  184.8720 H   0  0  0  0  0  0  0  0  0  0  0  0
  155.1946  140.8553  183.4621 C   0  0  0  0  0  0  0  0  0  0  0  0
  156.6596  140.8766  183.0650 N   0  0  0  0  0  0  0  0  0  0  0  0
  157.3039  142.0571  182.7296 C   0  0  0  0  0  0  0  0  0  0  0  0
  156.6432  143.1488  182.7556 O   0  0  0  0  0  0  0  0  0  0  0  0
  157.1119  139.9633  183.0706 H   0  0  0  0  0  0  0  0  0  0  0  0
  158.7203  142.0980  182.3453 C   0  0  0  0  0  0  0  0  0  0  0  0
  159.2908  143.3787  182.7460 N   0  0  0  0  0  0  0  0  0  0  0  0
  158.5036  144.0497  182.8245 H   0  0  0  0  0  0  0  0  0  0  0  0
  159.9609  143.6373  181.9695 H   0  0  0  0  0  0  0  0  0  0  0  0
  159.5005  141.0366  183.1340 C   0  0  0  0  0  0  0  0  0  0  0  0
  160.0989  141.6283  184.3570 C   0  0  0  0  0  0  0  0  0  0  0  0
  161.4521  141.9891  184.3746 C   0  0  0  0  0  0  0  0  0  0  0  0
  162.0636  142.5481  185.4600 C   0  0  0  0  0  0  0  0  0  0  0  0
  161.3245  142.7792  186.6171 C   0  0  0  0  0  0  0  0  0  0  0  0
  161.9454  143.3477  187.7201 O   0  0  0  0  0  0  0  0  0  0  0  0
  159.9815  142.4322  186.6317 C   0  0  0  0  0  0  0  0  0  0  0  0
  159.4095  141.8732  185.5172 C   0  0  0  0  0  0  0  0  0  0  0  0
  161.9646  144.3665  187.8321 H   0  0  0  0  0  0  0  0  0  0  0  0
  154.4595  140.4699  182.2134 C   0  0  0  0  0  0  0  0  0  0  0  0
  153.0584  140.8837  182.0753 C   0  0  0  0  0  0  0  0  0  0  0  0
  152.1471  139.9998  181.3056 C   0  0  0  0  0  0  0  0  0  0  0  0
  151.5308  138.8948  181.9141 N   0  0  0  0  0  0  0  0  0  0  0  0
  152.0325  138.3170  182.6276 H   0  0  0  0  0  0  0  0  0  0  0  0
  149.0885  139.2325  182.1051 N   0  0  0  0  0  0  0  0  0  0  0  0
  150.1821  138.5194  181.5683 C   0  0  0  0  0  0  0  0  0  0  0  0
  149.9943  137.5476  180.7672 N   0  0  0  0  0  0  0  0  0  0  0  0
  148.1308  138.8687  182.2493 H   0  0  0  0  0  0  0  0  0  0  0  0
  149.2878  140.2388  182.3857 H   0  0  0  0  0  0  0  0  0  0  0  0
  149.0402  137.2639  180.4952 H   0  0  0  0  0  0  0  0  0  0  0  0
  153.6150  138.4825  187.3660 C   0  0  0  0  0  0  0  0  0  0  0  0
  154.5307  138.3647  188.4929 C   0  0  0  0  0  0  0  0  0  0  0  0
  155.8066  137.8905  188.2840 C   0  0  0  0  0  0  0  0  0  0  0  0
  156.7328  137.7486  189.2934 C   0  0  0  0  0  0  0  0  0  0  0  0
  156.3881  138.0943  190.5971 C   0  0  0  0  0  0  0  0  0  0  0  0
  155.1185  138.5717  190.8359 C   0  0  0  0  0  0  0  0  0  0  0  0
  154.2205  138.6984  189.7947 C   0  0  0  0  0  0  0  0  0  0  0  0
 58 59  1  0  0  0
 59 60  2  0  0  0
 59 56  1  0  0  0
 56 55  1  0  0  0
 55 54  1  0  0  0
 54 53  1  0  0  0
 53 35  1  0  0  0
 35 36  1  0  0  0
 36 37  1  0  0  0
 37 38  2  0  0  0
 37 40  1  0  0  0
 40 41  1  0  0  0
 40 44  1  0  0  0
 44 45  1  0  0  0
 45 46  2  0  0  0
 46 47  1  0  0  0
 47 48  2  0  0  0
 48 49  1  0  0  0
 48 50  1  0  0  0
 50 51  2  0  0  0
 35 31  1  0  0  0
 31 32  2  0  0  0
 31 33  1  0  0  0
 33  1  1  0  0  0
  1 64  1  0  0  0
 64 65  1  0  0  0
 65 66  2  0  0  0
 66 67  1  0  0  0
 67 68  2  0  0  0
 68 69  1  0  0  0
 69 70  2  0  0  0
  1  2  1  0  0  0
  2  3  2  0  0  0
  2  4  1  0  0  0
  4  6  1  0  0  0
  6 20  1  0  0  0
 20 21  1  0  0  0
 21 22  1  0  0  0
 22 23  1  0  0  0
 23 24  2  0  0  0
 24 25  1  0  0  0
 24 26  1  0  0  0
  6  7  1  0  0  0
  7  8  2  0  0  0
  7  9  1  0  0  0
  9 11  1  0  0  0
 11 17  1  0  0  0
 17 18  1  0  0  0
 11 12  1  0  0  0
 12 13  1  0  0  0
 12 14  2  0  0  0
 51 45  1  0  0  0
 70 65  1  0  0  0
 58 61  1  0  0  0
 58 62  1  0  0  0
 60 63  1  0  0  0
 56 57  1  0  0  0
 36 39  1  0  0  0
 41 42  1  0  0  0
 41 43  1  0  0  0
 49 52  1  0  0  0
 33 34  1  0  0  0
  4  5  1  0  0  0
 25 27  1  0  0  0
 25 28  1  0  0  0
 26 29  1  0  0  0
 26 30  1  0  0  0
  9 10  1  0  0  0
 18 19  1  0  0  0
 13 15  1  0  0  0
 13 16  1  0  0  0
M  END
> <minimizedAffinity>
-7.99466

> <CNNscore>
0.1633357853

> <CNNaffinity>
6.7445731163

> <CNN_VS>
1.1016300917

> <CNNaffinity_variance>
0.1925708503

$$$$
[H]N=C(N([H])[H])N([H])C([H])([H])C([H])([H])C([H])([H])[C@@]([H])(C(=O)N([H])[C@]([H])(C(=O)N([H])[C@]([H])(C(=O)N([H])[C@]([H])(C(=O)N([H])[H])C([H])([H])O[H])C([H])([H])C([H])([H])C([H])([H])N=C(N([H])[H])N([H])[H])C([H])([H])c1c([H])c([H])c([H])c([H])c1[H])N([H])C(=O)[C@@]([H])(N([H])[H])C([H])([H])c1c([H])c([H])c(O[H])c([H])c1[H]


 70 71  0  0  0  0  0  0  0  0999 V2000
  154.3065  138.1387  186.2709 C   0  0  0  0  0  0  0  0  0  0  0  0
  154.4572  138.5375  184.8846 C   0  0  0  0  0  0  0  0  0  0  0  0
  154.4839  137.6415  184.0020 O   0  0  0  0  0  0  0  0  0  0  0  0
  154.5739  139.8780  184.4737 N   0  0  0  0  0  0  0  0  0  0  0  0
  154.5457  140.6425  185.1597 H   0  0  0  0  0  0  0  0  0  0  0  0
  154.7404  140.1928  183.0266 C   0  0  0  0  0  0  0  0  0  0  0  0
  155.9734  140.9229  182.8647 C   0  0  0  0  0  0  0  0  0  0  0  0
  156.2822  141.7872  183.7638 O   0  0  0  0  0  0  0  0  0  0  0  0
  156.9191  140.8130  181.8197 N   0  0  0  0  0  0  0  0  0  0  0  0
  156.7660  140.1190  181.0597 H   0  0  0  0  0  0  0  0  0  0  0  0
  158.1305  141.6129  181.7305 C   0  0  0  0  0  0  0  0  0  0  0  0
  158.2966  142.0723  180.3546 C   0  0  0  0  0  0  0  0  0  0  0  0
  159.1908  143.0845  179.9291 N   0  0  0  0  0  0  0  0  0  0  0  0
  157.5928  141.5371  179.4346 O   0  0  0  0  0  0  0  0  0  0  0  0
  158.8818  144.0383  179.5994 H   0  0  0  0  0  0  0  0  0  0  0  0
  160.2201  142.8862  179.9355 H   0  0  0  0  0  0  0  0  0  0  0  0
  159.3445  140.9132  182.2896 C   0  0  0  0  0  0  0  0  0  0  0  0
  159.3536  141.1172  183.6707 O   0  0  0  0  0  0  0  0  0  0  0  0
  158.4763  140.8939  184.0943 H   0  0  0  0  0  0  0  0  0  0  0  0
  153.5062  140.9636  182.5918 C   0  0  0  0  0  0  0  0  0  0  0  0
  152.7740  140.4337  181.4276 C   0  0  0  0  0  0  0  0  0  0  0  0
  152.0187  139.1649  181.8214 C   0  0  0  0  0  0  0  0  0  0  0  0
  151.3992  138.5083  180.6976 N   0  0  0  0  0  0  0  0  0  0  0  0
  150.1243  138.5571  180.5869 C   0  0  0  0  0  0  0  0  0  0  0  0
  149.3658  139.2402  181.5518 N   0  0  0  0  0  0  0  0  0  0  0  0
  149.4979  137.9281  179.5045 N   0  0  0  0  0  0  0  0  0  0  0  0
  148.8656  140.1456  181.4120 H   0  0  0  0  0  0  0  0  0  0  0  0
  149.2867  138.8113  182.5069 H   0  0  0  0  0  0  0  0  0  0  0  0
  149.0496  137.0051  179.6275 H   0  0  0  0  0  0  0  0  0  0  0  0
  149.4745  138.3747  178.5704 H   0  0  0  0  0  0  0  0  0  0  0  0
  152.2477  136.8573  186.8295 C   0  0  0  0  0  0  0  0  0  0  0  0
  151.6978  137.9900  187.0875 O   0  0  0  0  0  0  0  0  0  0  0  0
  153.5729  136.8778  186.4250 N   0  0  0  0  0  0  0  0  0  0  0  0
  154.0941  136.0149  186.2266 H   0  0  0  0  0  0  0  0  0  0  0  0
  151.3387  135.6921  187.0211 C   0  0  0  0  0  0  0  0  0  0  0  0
  151.7947  135.1384  188.3589 N   0  0  0  0  0  0  0  0  0  0  0  0
  152.8762  134.2771  188.4578 C   0  0  0  0  0  0  0  0  0  0  0  0
  153.4983  133.9442  187.3943 O   0  0  0  0  0  0  0  0  0  0  0  0
  151.2443  135.4544  189.1564 H   0  0  0  0  0  0  0  0  0  0  0  0
  153.3333  133.7332  189.7426 C   0  0  0  0  0  0  0  0  0  0  0  0
  154.6038  133.0445  189.5489 N   0  0  0  0  0  0  0  0  0  0  0  0
  154.6538  132.7768  188.5480 H   0  0  0  0  0  0  0  0  0  0  0  0
  154.5608  132.2018  190.1866 H   0  0  0  0  0  0  0  0  0  0  0  0
  153.6346  134.8843  190.7131 C   0  0  0  0  0  0  0  0  0  0  0  0
  152.5125  135.0720  191.6668 C   0  0  0  0  0  0  0  0  0  0  0  0
  151.8655  136.3108  191.7573 C   0  0  0  0  0  0  0  0  0  0  0  0
  150.8203  136.5494  192.6031 C   0  0  0  0  0  0  0  0  0  0  0  0
  150.3592  135.5249  193.4255 C   0  0  0  0  0  0  0  0  0  0  0  0
  149.2968  135.7667  194.2847 O   0  0  0  0  0  0  0  0  0  0  0  0
  150.9796  134.2859  193.3600 C   0  0  0  0  0  0  0  0  0  0  0  0
  152.0262  134.0923  192.4945 C   0  0  0  0  0  0  0  0  0  0  0  0
  148.3341  135.6061  193.9713 H   0  0  0  0  0  0  0  0  0  0  0  0
  149.9290  136.1487  187.2500 C   0  0  0  0  0  0  0  0  0  0  0  0
  148.9103  135.7849  186.2585 C   0  0  0  0  0  0  0  0  0  0  0  0
  147.4846  135.8880  186.6594 C   0  0  0  0  0  0  0  0  0  0  0  0
  146.5405  136.4939  185.8152 N   0  0  0  0  0  0  0  0  0  0  0  0
  145.5752  136.1040  185.7106 H   0  0  0  0  0  0  0  0  0  0  0  0
  147.0355  137.5997  183.6593 N   0  0  0  0  0  0  0  0  0  0  0  0
  146.8770  137.6754  185.0599 C   0  0  0  0  0  0  0  0  0  0  0  0
  147.0172  138.7837  185.6710 N   0  0  0  0  0  0  0  0  0  0  0  0
  147.6122  138.2271  183.0728 H   0  0  0  0  0  0  0  0  0  0  0  0
  146.5056  136.8132  183.1777 H   0  0  0  0  0  0  0  0  0  0  0  0
  147.2484  139.6463  185.1543 H   0  0  0  0  0  0  0  0  0  0  0  0
  155.6555  138.0188  186.9750 C   0  0  0  0  0  0  0  0  0  0  0  0
  155.5858  138.0789  188.4289 C   0  0  0  0  0  0  0  0  0  0  0  0
  156.6407  137.6089  189.1790 C   0  0  0  0  0  0  0  0  0  0  0  0
  156.6545  137.6291  190.5561 C   0  0  0  0  0  0  0  0  0  0  0  0
  155.5618  138.1445  191.2477 C   0  0  0  0  0  0  0  0  0  0  0  0
  154.4922  138.6221  190.5234 C   0  0  0  0  0  0  0  0  0  0  0  0
  154.5193  138.5830  189.1434 C   0  0  0  0  0  0  0  0  0  0  0  0
 58 59  1  0  0  0
 59 60  2  0  0  0
 59 56  1  0  0  0
 56 55  1  0  0  0
 55 54  1  0  0  0
 54 53  1  0  0  0
 53 35  1  0  0  0
 35 36  1  0  0  0
 36 37  1  0  0  0
 37 38  2  0  0  0
 37 40  1  0  0  0
 40 41  1  0  0  0
 40 44  1  0  0  0
 44 45  1  0  0  0
 45 46  2  0  0  0
 46 47  1  0  0  0
 47 48  2  0  0  0
 48 49  1  0  0  0
 48 50  1  0  0  0
 50 51  2  0  0  0
 35 31  1  0  0  0
 31 32  2  0  0  0
 31 33  1  0  0  0
 33  1  1  0  0  0
  1 64  1  0  0  0
 64 65  1  0  0  0
 65 66  2  0  0  0
 66 67  1  0  0  0
 67 68  2  0  0  0
 68 69  1  0  0  0
 69 70  2  0  0  0
  1  2  1  0  0  0
  2  3  2  0  0  0
  2  4  1  0  0  0
  4  6  1  0  0  0
  6 20  1  0  0  0
 20 21  1  0  0  0
 21 22  1  0  0  0
 22 23  1  0  0  0
 23 24  2  0  0  0
 24 25  1  0  0  0
 24 26  1  0  0  0
  6  7  1  0  0  0
  7  8  2  0  0  0
  7  9  1  0  0  0
  9 11  1  0  0  0
 11 17  1  0  0  0
 17 18  1  0  0  0
 11 12  1  0  0  0
 12 13  1  0  0  0
 12 14  2  0  0  0
 51 45  1  0  0  0
 70 65  1  0  0  0
 58 61  1  0  0  0
 58 62  1  0  0  0
 60 63  1  0  0  0
 56 57  1  0  0  0
 36 39  1  0  0  0
 41 42  1  0  0  0
 41 43  1  0  0  0
 49 52  1  0  0  0
 33 34  1  0  0  0
  4  5  1  0  0  0
 25 27  1  0  0  0
 25 28  1  0  0  0
 26 29  1  0  0  0
 26 30  1  0  0  0
  9 10  1  0  0  0
 18 19  1  0  0  0
 13 15  1  0  0  0
 13 16  1  0  0  0
M  END
> <minimizedAffinity>
-7.19750

> <CNNscore>
0.1601368785

> <CNNaffinity>
6.1908750534

> <CNN_VS>
0.9913874269

> <CNNaffinity_variance>
0.4500918388

$$$$
[H]c1c([H])c([H])c2c(c1[H])N(C1([H])C([H])([H])C([H])([H])N(C(=O)c3c([H])c(OC([H])([H])[H])c(OC([H])([H])[H])c(OC([H])([H])[H])c3[H])C([H])([H])C1([H])[H])C([H])([H])C2([H])[H]


 29 32  0  0  0  0  0  0  0  0999 V2000
  155.0446  139.9101  183.9377 C   0  0  0  0  0  0  0  0  0  0  0  0
  153.9720  139.9184  183.1948 O   0  0  0  0  0  0  0  0  0  0  0  0
  154.9892  139.0619  185.0302 N   0  0  0  0  0  0  0  0  0  0  0  0
  153.7392  138.3177  185.2227 C   0  0  0  0  0  0  0  0  0  0  0  0
  153.2451  138.4279  186.6435 C   0  0  0  0  0  0  0  0  0  0  0  0
  154.3787  138.1892  187.6263 C   0  0  0  0  0  0  0  0  0  0  0  0
  155.5952  137.6475  186.8624 C   0  0  0  0  0  0  0  0  0  0  0  0
  156.0317  138.8267  185.9658 C   0  0  0  0  0  0  0  0  0  0  0  0
  154.0118  137.2919  188.6994 N   0  0  0  0  0  0  0  0  0  0  0  0
  152.7746  136.5567  188.8563 C   0  0  0  0  0  0  0  0  0  0  0  0
  153.2617  135.2583  189.4591 C   0  0  0  0  0  0  0  0  0  0  0  0
  154.3654  135.7168  190.3334 C   0  0  0  0  0  0  0  0  0  0  0  0
  154.9506  135.1420  191.4400 C   0  0  0  0  0  0  0  0  0  0  0  0
  155.9828  135.8541  192.0288 C   0  0  0  0  0  0  0  0  0  0  0  0
  156.4252  137.0720  191.5605 C   0  0  0  0  0  0  0  0  0  0  0  0
  155.8220  137.6206  190.4545 C   0  0  0  0  0  0  0  0  0  0  0  0
  154.7901  136.9279  189.8510 C   0  0  0  0  0  0  0  0  0  0  0  0
  158.1745  141.9295  184.0487 C   0  0  0  0  0  0  0  0  0  0  0  0
  157.1252  141.1229  184.4007 C   0  0  0  0  0  0  0  0  0  0  0  0
  156.0953  140.7819  183.4911 C   0  0  0  0  0  0  0  0  0  0  0  0
  156.2501  141.3263  182.2521 C   0  0  0  0  0  0  0  0  0  0  0  0
  157.3230  142.1566  181.8776 C   0  0  0  0  0  0  0  0  0  0  0  0
  158.2989  142.4628  182.7879 C   0  0  0  0  0  0  0  0  0  0  0  0
  159.1677  141.7825  186.3035 C   0  0  0  0  0  0  0  0  0  0  0  0
  159.1715  142.2419  184.9786 O   0  0  0  0  0  0  0  0  0  0  0  0
  157.4248  142.6816  180.5992 O   0  0  0  0  0  0  0  0  0  0  0  0
  158.0744  141.9142  179.6102 C   0  0  0  0  0  0  0  0  0  0  0  0
  159.3697  143.2711  182.4708 O   0  0  0  0  0  0  0  0  0  0  0  0
  159.3769  144.6686  182.5375 C   0  0  0  0  0  0  0  0  0  0  0  0
 24 25  1  0  0  0
 25 18  1  0  0  0
 18 19  2  0  0  0
 19 20  1  0  0  0
 20 21  2  0  0  0
 21 22  1  0  0  0
 22 26  1  0  0  0
 26 27  1  0  0  0
 22 23  2  0  0  0
 23 28  1  0  0  0
 28 29  1  0  0  0
 20  1  1  0  0  0
  1  2  2  0  0  0
  1  3  1  0  0  0
  3  4  1  0  0  0
  4  5  1  0  0  0
  5  6  1  0  0  0
  6  7  1  0  0  0
  7  8  1  0  0  0
  6  9  1  0  0  0
  9 10  1  0  0  0
 10 11  1  0  0  0
 11 12  1  0  0  0
 12 13  2  0  0  0
 13 14  1  0  0  0
 14 15  2  0  0  0
 15 16  1  0  0  0
 16 17  2  0  0  0
 23 18  1  0  0  0
  8  3  1  0  0  0
 17  9  1  0  0  0
 17 12  1  0  0  0
M  END
> <minimizedAffinity>
-7.75266

> <CNNscore>
0.5120802522

> <CNNaffinity>
5.9942522049

> <CNN_VS>
3.0695381165

> <CNNaffinity_variance>
0.0525710881

$$$$
[H]c1c([H])c([H])c2c(c1[H])N(C1([H])C([H])([H])C([H])([H])N(C(=O)c3c([H])c(OC([H])([H])[H])c(OC([H])([H])[H])c(OC([H])([H])[H])c3[H])C([H])([H])C1([H])[H])C([H])([H])C2([H])[H]


 29 32  0  0  0  0  0  0  0  0999 V2000
  155.3024  139.8597  184.0967 C   0  0  0  0  0  0  0  0  0  0  0  0
  154.2688  139.8784  183.3004 O   0  0  0  0  0  0  0  0  0  0  0  0
  155.1856  139.0079  185.1816 N   0  0  0  0  0  0  0  0  0  0  0  0
  153.9223  138.2721  185.3076 C   0  0  0  0  0  0  0  0  0  0  0  0
  153.3576  138.3808  186.7019 C   0  0  0  0  0  0  0  0  0  0  0  0
  154.4382  138.1303  187.7400 C   0  0  0  0  0  0  0  0  0  0  0  0
  155.6880  137.5826  187.0365 C   0  0  0  0  0  0  0  0  0  0  0  0
  156.1777  138.7618  186.1678 C   0  0  0  0  0  0  0  0  0  0  0  0
  154.0110  137.2318  188.7894 N   0  0  0  0  0  0  0  0  0  0  0  0
  152.7416  136.5458  188.9071 C   0  0  0  0  0  0  0  0  0  0  0  0
  153.1617  135.2188  189.4982 C   0  0  0  0  0  0  0  0  0  0  0  0
  154.2634  135.6175  190.4039 C   0  0  0  0  0  0  0  0  0  0  0  0
  154.7997  135.0014  191.5131 C   0  0  0  0  0  0  0  0  0  0  0  0
  155.8466  135.6608  192.1360 C   0  0  0  0  0  0  0  0  0  0  0  0
  156.3488  136.8669  191.6982 C   0  0  0  0  0  0  0  0  0  0  0  0
  155.7934  137.4575  190.5888 C   0  0  0  0  0  0  0  0  0  0  0  0
  154.7478  136.8176  189.9513 C   0  0  0  0  0  0  0  0  0  0  0  0
  157.3866  142.0670  181.9357 C   0  0  0  0  0  0  0  0  0  0  0  0
  156.4072  141.2195  182.3808 C   0  0  0  0  0  0  0  0  0  0  0  0
  156.3804  140.7255  183.7074 C   0  0  0  0  0  0  0  0  0  0  0  0
  157.4078  141.1703  184.4832 C   0  0  0  0  0  0  0  0  0  0  0  0
  158.4203  142.0407  184.0383 C   0  0  0  0  0  0  0  0  0  0  0  0
  158.4101  142.4956  182.7468 C   0  0  0  0  0  0  0  0  0  0  0  0
  157.9960  141.8612  179.5527 C   0  0  0  0  0  0  0  0  0  0  0  0
  157.3758  142.5320  180.6165 O   0  0  0  0  0  0  0  0  0  0  0  0
  159.4415  142.4578  184.8769 O   0  0  0  0  0  0  0  0  0  0  0  0
  159.4578  141.9767  186.2025 C   0  0  0  0  0  0  0  0  0  0  0  0
  159.3784  143.3491  182.2626 O   0  0  0  0  0  0  0  0  0  0  0  0
  159.2889  144.7452  182.2391 C   0  0  0  0  0  0  0  0  0  0  0  0
 24 25  1  0  0  0
 25 18  1  0  0  0
 18 19  2  0  0  0
 19 20  1  0  0  0
 20 21  2  0  0  0
 21 22  1  0  0  0
 22 26  1  0  0  0
 26 27  1  0  0  0
 22 23  2  0  0  0
 23 28  1  0  0  0
 28 29  1  0  0  0
 20  1  1  0  0  0
  1  2  2  0  0  0
  1  3  1  0  0  0
  3  4  1  0  0  0
  4  5  1  0  0  0
  5  6  1  0  0  0
  6  7  1  0  0  0
  7  8  1  0  0  0
  6  9  1  0  0  0
  9 10  1  0  0  0
 10 11  1  0  0  0
 11 12  1  0  0  0
 12 13  2  0  0  0
 13 14  1  0  0  0
 14 15  2  0  0  0
 15 16  1  0  0  0
 16 17  2  0  0  0
 23 18  1  0  0  0
  8  3  1  0  0  0
 17  9  1  0  0  0
 17 12  1  0  0  0
M  END
> <minimizedAffinity>
-7.58079

> <CNNscore>
0.5114030242

> <CNNaffinity>
5.9849739075

> <CNN_VS>
3.0607337952

> <CNNaffinity_variance>
0.0637913197

$$$$
[H]c1c([H])c([H])c2c(c1[H])N(C1([H])C([H])([H])C([H])([H])N(C(=O)c3c([H])c(OC([H])([H])[H])c(OC([H])([H])[H])c(OC([H])([H])[H])c3[H])C([H])([H])C1([H])[H])C([H])([H])C2([H])[H]


 29 32  0  0  0  0  0  0  0  0999 V2000
  155.6465  139.7761  183.8073 C   0  0  0  0  0  0  0  0  0  0  0  0
  155.5941  138.7810  184.6497 O   0  0  0  0  0  0  0  0  0  0  0  0
  154.4761  140.0060  183.1048 N   0  0  0  0  0  0  0  0  0  0  0  0
  153.3574  139.0954  183.3741 C   0  0  0  0  0  0  0  0  0  0  0  0
  152.7523  138.5721  182.0955 C   0  0  0  0  0  0  0  0  0  0  0  0
  152.5327  139.7016  181.1036 C   0  0  0  0  0  0  0  0  0  0  0  0
  152.7440  141.0427  181.8204 C   0  0  0  0  0  0  0  0  0  0  0  0
  154.2485  141.0498  182.1689 C   0  0  0  0  0  0  0  0  0  0  0  0
  151.2275  139.6577  180.4825 N   0  0  0  0  0  0  0  0  0  0  0  0
  150.8663  140.0851  179.1473 C   0  0  0  0  0  0  0  0  0  0  0  0
  149.8336  139.0501  178.7610 C   0  0  0  0  0  0  0  0  0  0  0  0
  149.1369  138.8123  180.0459 C   0  0  0  0  0  0  0  0  0  0  0  0
  147.8805  138.3209  180.3242 C   0  0  0  0  0  0  0  0  0  0  0  0
  147.5419  138.2234  181.6640 C   0  0  0  0  0  0  0  0  0  0  0  0
  148.3894  138.5884  182.6872 C   0  0  0  0  0  0  0  0  0  0  0  0
  149.6366  139.0755  182.3787 C   0  0  0  0  0  0  0  0  0  0  0  0
  149.9959  139.1815  181.0487 C   0  0  0  0  0  0  0  0  0  0  0  0
  158.8318  141.2946  185.0049 C   0  0  0  0  0  0  0  0  0  0  0  0
  157.6124  140.6722  184.9675 C   0  0  0  0  0  0  0  0  0  0  0  0
  156.9091  140.4592  183.7573 C   0  0  0  0  0  0  0  0  0  0  0  0
  157.5556  140.9265  182.6532 C   0  0  0  0  0  0  0  0  0  0  0  0
  158.8081  141.5679  182.6779 C   0  0  0  0  0  0  0  0  0  0  0  0
  159.4556  141.7549  183.8698 C   0  0  0  0  0  0  0  0  0  0  0  0
  159.4779  142.6942  186.9326 C   0  0  0  0  0  0  0  0  0  0  0  0
  159.4933  141.4851  186.2225 O   0  0  0  0  0  0  0  0  0  0  0  0
  159.4155  142.0227  181.5184 O   0  0  0  0  0  0  0  0  0  0  0  0
  158.7225  141.8782  180.2987 C   0  0  0  0  0  0  0  0  0  0  0  0
  160.6833  142.3769  183.9475 O   0  0  0  0  0  0  0  0  0  0  0  0
  161.9115  141.7270  184.1117 C   0  0  0  0  0  0  0  0  0  0  0  0
 24 25  1  0  0  0
 25 18  1  0  0  0
 18 19  2  0  0  0
 19 20  1  0  0  0
 20 21  2  0  0  0
 21 22  1  0  0  0
 22 26  1  0  0  0
 26 27  1  0  0  0
 22 23  2  0  0  0
 23 28  1  0  0  0
 28 29  1  0  0  0
 20  1  1  0  0  0
  1  2  2  0  0  0
  1  3  1  0  0  0
  3  4  1  0  0  0
  4  5  1  0  0  0
  5  6  1  0  0  0
  6  7  1  0  0  0
  7  8  1  0  0  0
  6  9  1  0  0  0
  9 10  1  0  0  0
 10 11  1  0  0  0
 11 12  1  0  0  0
 12 13  2  0  0  0
 13 14  1  0  0  0
 14 15  2  0  0  0
 15 16  1  0  0  0
 16 17  2  0  0  0
 23 18  1  0  0  0
  8  3  1  0  0  0
 17  9  1  0  0  0
 17 12  1  0  0  0
M  END
> <minimizedAffinity>
-8.03838

> <CNNscore>
0.4742210209

> <CNNaffinity>
6.0866475105

> <CNN_VS>
2.8864161968

> <CNNaffinity_variance>
0.1102039665

$$$$
[H]c1c([H])c([H])c2c(c1[H])N(C1([H])C([H])([H])C([H])([H])N(C(=O)c3c([H])c(OC([H])([H])[H])c(OC([H])([H])[H])c(OC([H])([H])[H])c3[H])C([H])([H])C1([H])[H])C([H])([H])C2([H])[H]


 29 32  0  0  0  0  0  0  0  0999 V2000
  152.9586  136.8090  184.4346 C   0  0  0  0  0  0  0  0  0  0  0  0
  152.4775  135.6024  184.3116 O   0  0  0  0  0  0  0  0  0  0  0  0
  153.7975  136.9930  185.5202 N   0  0  0  0  0  0  0  0  0  0  0  0
  154.0082  135.8326  186.3932 C   0  0  0  0  0  0  0  0  0  0  0  0
  153.8210  136.1939  187.8456 C   0  0  0  0  0  0  0  0  0  0  0  0
  154.5554  137.4817  188.1774 C   0  0  0  0  0  0  0  0  0  0  0  0
  155.4692  137.8521  187.0007 C   0  0  0  0  0  0  0  0  0  0  0  0
  154.4896  138.1873  185.8549 C   0  0  0  0  0  0  0  0  0  0  0  0
  155.3166  137.3939  189.4038 N   0  0  0  0  0  0  0  0  0  0  0  0
  155.4733  138.4084  190.4246 C   0  0  0  0  0  0  0  0  0  0  0  0
  155.4890  137.5760  191.6869 C   0  0  0  0  0  0  0  0  0  0  0  0
  156.2147  136.3617  191.2489 C   0  0  0  0  0  0  0  0  0  0  0  0
  156.9156  135.4125  191.9596 C   0  0  0  0  0  0  0  0  0  0  0  0
  157.4790  134.3845  191.2216 C   0  0  0  0  0  0  0  0  0  0  0  0
  157.3650  134.2855  189.8520 C   0  0  0  0  0  0  0  0  0  0  0  0
  156.6598  135.2476  189.1701 C   0  0  0  0  0  0  0  0  0  0  0  0
  156.0891  136.2824  189.8859 C   0  0  0  0  0  0  0  0  0  0  0  0
  150.7177  138.5005  181.9845 C   0  0  0  0  0  0  0  0  0  0  0  0
  151.2083  137.6433  182.9332 C   0  0  0  0  0  0  0  0  0  0  0  0
  152.5341  137.7345  183.4214 C   0  0  0  0  0  0  0  0  0  0  0  0
  153.2600  138.7431  182.8634 C   0  0  0  0  0  0  0  0  0  0  0  0
  152.7682  139.6303  181.8880 C   0  0  0  0  0  0  0  0  0  0  0  0
  151.4794  139.5079  181.4419 C   0  0  0  0  0  0  0  0  0  0  0  0
  148.2944  138.2500  182.3814 C   0  0  0  0  0  0  0  0  0  0  0  0
  149.4010  138.3756  181.5293 O   0  0  0  0  0  0  0  0  0  0  0  0
  153.5574  140.6380  181.3569 O   0  0  0  0  0  0  0  0  0  0  0  0
  153.8404  141.7610  182.1617 C   0  0  0  0  0  0  0  0  0  0  0  0
  150.9504  140.3513  180.4884 O   0  0  0  0  0  0  0  0  0  0  0  0
  150.9640  140.1228  179.1081 C   0  0  0  0  0  0  0  0  0  0  0  0
 24 25  1  0  0  0
 25 18  1  0  0  0
 18 19  2  0  0  0
 19 20  1  0  0  0
 20 21  2  0  0  0
 21 22  1  0  0  0
 22 26  1  0  0  0
 26 27  1  0  0  0
 22 23  2  0  0  0
 23 28  1  0  0  0
 28 29  1  0  0  0
 20  1  1  0  0  0
  1  2  2  0  0  0
  1  3  1  0  0  0
  3  4  1  0  0  0
  4  5  1  0  0  0
  5  6  1  0  0  0
  6  7  1  0  0  0
  7  8  1  0  0  0
  6  9  1  0  0  0
  9 10  1  0  0  0
 10 11  1  0  0  0
 11 12  1  0  0  0
 12 13  2  0  0  0
 13 14  1  0  0  0
 14 15  2  0  0  0
 15 16  1  0  0  0
 16 17  2  0  0  0
 23 18  1  0  0  0
  8  3  1  0  0  0
 17  9  1  0  0  0
 17 12  1  0  0  0
M  END
> <minimizedAffinity>
-6.51304

> <CNNscore>
0.4434733391

> <CNNaffinity>
5.2706208229

> <CNN_VS>
2.3373799324

> <CNNaffinity_variance>
0.0927619785

$$$$
[H]c1c([H])c([H])c2c(c1[H])N(C1([H])C([H])([H])C([H])([H])N(C(=O)c3c([H])c(OC([H])([H])[H])c(OC([H])([H])[H])c(OC([H])([H])[H])c3[H])C([H])([H])C1([H])[H])C([H])([H])C2([H])[H]


 29 32  0  0  0  0  0  0  0  0999 V2000
  155.1568  138.7077  185.4477 C   0  0  0  0  0  0  0  0  0  0  0  0
  156.4433  138.6757  185.2319 O   0  0  0  0  0  0  0  0  0  0  0  0
  154.7706  138.3222  186.7198 N   0  0  0  0  0  0  0  0  0  0  0  0
  155.8400  137.9062  187.6345 C   0  0  0  0  0  0  0  0  0  0  0  0
  155.5124  136.5961  188.3063 C   0  0  0  0  0  0  0  0  0  0  0  0
  154.0859  136.6026  188.8289 C   0  0  0  0  0  0  0  0  0  0  0  0
  153.5307  138.0314  188.7454 C   0  0  0  0  0  0  0  0  0  0  0  0
  153.4448  138.3134  187.2295 C   0  0  0  0  0  0  0  0  0  0  0  0
  153.9803  136.0945  190.1787 N   0  0  0  0  0  0  0  0  0  0  0  0
  154.9758  135.3590  190.9296 C   0  0  0  0  0  0  0  0  0  0  0  0
  154.7696  135.8994  192.3268 C   0  0  0  0  0  0  0  0  0  0  0  0
  153.3016  136.0880  192.3731 C   0  0  0  0  0  0  0  0  0  0  0  0
  152.4243  136.1563  193.4329 C   0  0  0  0  0  0  0  0  0  0  0  0
  151.0897  136.3470  193.1143 C   0  0  0  0  0  0  0  0  0  0  0  0
  150.6300  136.4659  191.8209 C   0  0  0  0  0  0  0  0  0  0  0  0
  151.5289  136.3937  190.7841 C   0  0  0  0  0  0  0  0  0  0  0  0
  152.8654  136.2037  191.0785 C   0  0  0  0  0  0  0  0  0  0  0  0
  152.6018  138.5835  182.7380 C   0  0  0  0  0  0  0  0  0  0  0  0
  153.4101  138.2439  183.7901 C   0  0  0  0  0  0  0  0  0  0  0  0
  154.3671  139.1381  184.3277 C   0  0  0  0  0  0  0  0  0  0  0  0
  154.4025  140.3491  183.7051 C   0  0  0  0  0  0  0  0  0  0  0  0
  153.5780  140.7105  182.6233 C   0  0  0  0  0  0  0  0  0  0  0  0
  152.6649  139.8159  182.1325 C   0  0  0  0  0  0  0  0  0  0  0  0
  150.5034  137.2970  182.9221 C   0  0  0  0  0  0  0  0  0  0  0  0
  151.6688  137.6697  182.2371 O   0  0  0  0  0  0  0  0  0  0  0  0
  153.6619  141.9602  182.0305 O   0  0  0  0  0  0  0  0  0  0  0  0
  154.0337  143.0584  182.8335 C   0  0  0  0  0  0  0  0  0  0  0  0
  151.8347  140.1213  181.0752 O   0  0  0  0  0  0  0  0  0  0  0  0
  151.9908  139.6598  179.7636 C   0  0  0  0  0  0  0  0  0  0  0  0
 24 25  1  0  0  0
 25 18  1  0  0  0
 18 19  2  0  0  0
 19 20  1  0  0  0
 20 21  2  0  0  0
 21 22  1  0  0  0
 22 26  1  0  0  0
 26 27  1  0  0  0
 22 23  2  0  0  0
 23 28  1  0  0  0
 28 29  1  0  0  0
 20  1  1  0  0  0
  1  2  2  0  0  0
  1  3  1  0  0  0
  3  4  1  0  0  0
  4  5  1  0  0  0
  5  6  1  0  0  0
  6  7  1  0  0  0
  7  8  1  0  0  0
  6  9  1  0  0  0
  9 10  1  0  0  0
 10 11  1  0  0  0
 11 12  1  0  0  0
 12 13  2  0  0  0
 13 14  1  0  0  0
 14 15  2  0  0  0
 15 16  1  0  0  0
 16 17  2  0  0  0
 23 18  1  0  0  0
  8  3  1  0  0  0
 17  9  1  0  0  0
 17 12  1  0  0  0
M  END
> <minimizedAffinity>
-7.23554

> <CNNscore>
0.4123741388

> <CNNaffinity>
5.3315014839

> <CNN_VS>
2.1985733509

> <CNNaffinity_variance>
0.1687183529

$$$$
[H]c1c([H])c([H])c2c(c1[H])N(C1([H])C([H])([H])C([H])([H])N(C(=O)c3c([H])c(OC([H])([H])[H])c(OC([H])([H])[H])c(OC([H])([H])[H])c3[H])C([H])([H])C1([H])[H])C([H])([H])C2([H])[H]


 29 32  0  0  0  0  0  0  0  0999 V2000
  156.9454  140.1023  184.8658 C   0  0  0  0  0  0  0  0  0  0  0  0
  157.3441  139.2378  185.7582 O   0  0  0  0  0  0  0  0  0  0  0  0
  155.6716  139.8821  184.3708 N   0  0  0  0  0  0  0  0  0  0  0  0
  154.9600  138.7063  184.8849 C   0  0  0  0  0  0  0  0  0  0  0  0
  154.3703  137.8854  183.7653 C   0  0  0  0  0  0  0  0  0  0  0  0
  153.6516  138.7768  182.7669 C   0  0  0  0  0  0  0  0  0  0  0  0
  153.5251  140.1876  183.3588 C   0  0  0  0  0  0  0  0  0  0  0  0
  154.9814  140.6961  183.4335 C   0  0  0  0  0  0  0  0  0  0  0  0
  152.3524  138.2652  182.3910 N   0  0  0  0  0  0  0  0  0  0  0  0
  151.6008  137.2024  183.0248 C   0  0  0  0  0  0  0  0  0  0  0  0
  150.1818  137.7088  182.8956 C   0  0  0  0  0  0  0  0  0  0  0  0
  150.2089  138.3737  181.5727 C   0  0  0  0  0  0  0  0  0  0  0  0
  149.2010  138.6767  180.6840 C   0  0  0  0  0  0  0  0  0  0  0  0
  149.5832  139.3177  179.5169 C   0  0  0  0  0  0  0  0  0  0  0  0
  150.8891  139.6488  179.2282 C   0  0  0  0  0  0  0  0  0  0  0  0
  151.8731  139.3337  180.1341 C   0  0  0  0  0  0  0  0  0  0  0  0
  151.5149  138.6941  181.3052 C   0  0  0  0  0  0  0  0  0  0  0  0
  159.7043  142.5573  185.3633 C   0  0  0  0  0  0  0  0  0  0  0  0
  158.7542  141.5954  185.5818 C   0  0  0  0  0  0  0  0  0  0  0  0
  157.8978  141.1315  184.5543 C   0  0  0  0  0  0  0  0  0  0  0  0
  158.1102  141.7266  183.3475 C   0  0  0  0  0  0  0  0  0  0  0  0
  159.0824  142.7160  183.1098 C   0  0  0  0  0  0  0  0  0  0  0  0
  159.8909  143.1376  184.1313 C   0  0  0  0  0  0  0  0  0  0  0  0
  161.8801  142.6265  186.5268 C   0  0  0  0  0  0  0  0  0  0  0  0
  160.5304  142.9876  186.4068 O   0  0  0  0  0  0  0  0  0  0  0  0
  159.2500  143.2852  181.8576 O   0  0  0  0  0  0  0  0  0  0  0  0
  159.1786  142.4465  180.7260 C   0  0  0  0  0  0  0  0  0  0  0  0
  160.8578  144.1033  183.9501 O   0  0  0  0  0  0  0  0  0  0  0  0
  160.6232  145.4810  183.8803 C   0  0  0  0  0  0  0  0  0  0  0  0
 24 25  1  0  0  0
 25 18  1  0  0  0
 18 19  2  0  0  0
 19 20  1  0  0  0
 20 21  2  0  0  0
 21 22  1  0  0  0
 22 26  1  0  0  0
 26 27  1  0  0  0
 22 23  2  0  0  0
 23 28  1  0  0  0
 28 29  1  0  0  0
 20  1  1  0  0  0
  1  2  2  0  0  0
  1  3  1  0  0  0
  3  4  1  0  0  0
  4  5  1  0  0  0
  5  6  1  0  0  0
  6  7  1  0  0  0
  7  8  1  0  0  0
  6  9  1  0  0  0
  9 10  1  0  0  0
 10 11  1  0  0  0
 11 12  1  0  0  0
 12 13  2  0  0  0
 13 14  1  0  0  0
 14 15  2  0  0  0
 15 16  1  0  0  0
 16 17  2  0  0  0
 23 18  1  0  0  0
  8  3  1  0  0  0
 17  9  1  0  0  0
 17 12  1  0  0  0
M  END
> <minimizedAffinity>
-7.87384

> <CNNscore>
0.3843013644

> <CNNaffinity>
6.2337861061

> <CNN_VS>
2.3956525326

> <CNNaffinity_variance>
0.1822224855

$$$$
[H]c1c([H])c([H])c2c(c1[H])N(C1([H])C([H])([H])C([H])([H])N(C(=O)c3c([H])c(OC([H])([H])[H])c(OC([H])([H])[H])c(OC([H])([H])[H])c3[H])C([H])([H])C1([H])[H])C([H])([H])C2([H])[H]


 29 32  0  0  0  0  0  0  0  0999 V2000
  153.4106  137.0714  184.4483 C   0  0  0  0  0  0  0  0  0  0  0  0
  154.0094  136.0081  183.9863 O   0  0  0  0  0  0  0  0  0  0  0  0
  153.5395  137.2650  185.8129 N   0  0  0  0  0  0  0  0  0  0  0  0
  154.2956  136.2484  186.5533 C   0  0  0  0  0  0  0  0  0  0  0  0
  153.5464  135.7875  187.7785 C   0  0  0  0  0  0  0  0  0  0  0  0
  152.9980  136.9751  188.5510 C   0  0  0  0  0  0  0  0  0  0  0  0
  153.6116  138.2638  187.9858 C   0  0  0  0  0  0  0  0  0  0  0  0
  153.0312  138.3621  186.5582 C   0  0  0  0  0  0  0  0  0  0  0  0
  153.2389  136.8791  189.9736 N   0  0  0  0  0  0  0  0  0  0  0  0
  154.5013  137.0103  190.6700 C   0  0  0  0  0  0  0  0  0  0  0  0
  154.0823  137.7216  191.9369 C   0  0  0  0  0  0  0  0  0  0  0  0
  152.7562  137.1201  192.2064 C   0  0  0  0  0  0  0  0  0  0  0  0
  152.0257  137.0073  193.3687 C   0  0  0  0  0  0  0  0  0  0  0  0
  150.7965  136.3773  193.2630 C   0  0  0  0  0  0  0  0  0  0  0  0
  150.3009  135.8792  192.0778 C   0  0  0  0  0  0  0  0  0  0  0  0
  151.0524  136.0064  190.9345 C   0  0  0  0  0  0  0  0  0  0  0  0
  152.2819  136.6314  191.0164 C   0  0  0  0  0  0  0  0  0  0  0  0
  152.8118  139.7601  181.9387 C   0  0  0  0  0  0  0  0  0  0  0  0
  153.3869  138.9744  182.9018 C   0  0  0  0  0  0  0  0  0  0  0  0
  152.7235  137.8550  183.4599 C   0  0  0  0  0  0  0  0  0  0  0  0
  151.4780  137.6411  182.9515 C   0  0  0  0  0  0  0  0  0  0  0  0
  150.8756  138.4408  181.9624 C   0  0  0  0  0  0  0  0  0  0  0  0
  151.5512  139.5152  181.4485 C   0  0  0  0  0  0  0  0  0  0  0  0
  154.2059  141.7800  182.2010 C   0  0  0  0  0  0  0  0  0  0  0  0
  153.5023  140.8573  181.4136 O   0  0  0  0  0  0  0  0  0  0  0  0
  149.6027  138.1719  181.4852 O   0  0  0  0  0  0  0  0  0  0  0  0
  149.2525  136.8295  181.2317 C   0  0  0  0  0  0  0  0  0  0  0  0
  151.0054  140.3289  180.4788 O   0  0  0  0  0  0  0  0  0  0  0  0
  150.9942  140.0575  179.1063 C   0  0  0  0  0  0  0  0  0  0  0  0
 24 25  1  0  0  0
 25 18  1  0  0  0
 18 19  2  0  0  0
 19 20  1  0  0  0
 20 21  2  0  0  0
 21 22  1  0  0  0
 22 26  1  0  0  0
 26 27  1  0  0  0
 22 23  2  0  0  0
 23 28  1  0  0  0
 28 29  1  0  0  0
 20  1  1  0  0  0
  1  2  2  0  0  0
  1  3  1  0  0  0
  3  4  1  0  0  0
  4  5  1  0  0  0
  5  6  1  0  0  0
  6  7  1  0  0  0
  7  8  1  0  0  0
  6  9  1  0  0  0
  9 10  1  0  0  0
 10 11  1  0  0  0
 11 12  1  0  0  0
 12 13  2  0  0  0
 13 14  1  0  0  0
 14 15  2  0  0  0
 15 16  1  0  0  0
 16 17  2  0  0  0
 23 18  1  0  0  0
  8  3  1  0  0  0
 17  9  1  0  0  0
 17 12  1  0  0  0
M  END
> <minimizedAffinity>
-7.03593

> <CNNscore>
0.3755246401

> <CNNaffinity>
5.2722482681

> <CNN_VS>
1.9798591137

> <CNNaffinity_variance>
0.0346020944

$$$$
[H]c1c([H])c([H])c2c(c1[H])N(C1([H])C([H])([H])C([H])([H])N(C(=O)c3c([H])c(OC([H])([H])[H])c(OC([H])([H])[H])c(OC([H])([H])[H])c3[H])C([H])([H])C1([H])[H])C([H])([H])C2([H])[H]


 29 32  0  0  0  0  0  0  0  0999 V2000
  154.3030  137.3884  185.5478 C   0  0  0  0  0  0  0  0  0  0  0  0
  154.4074  136.2225  184.9712 O   0  0  0  0  0  0  0  0  0  0  0  0
  154.1245  137.3449  186.9198 N   0  0  0  0  0  0  0  0  0  0  0  0
  154.0473  136.0133  187.5316 C   0  0  0  0  0  0  0  0  0  0  0  0
  152.8616  135.8994  188.4569 C   0  0  0  0  0  0  0  0  0  0  0  0
  152.7732  137.1118  189.3681 C   0  0  0  0  0  0  0  0  0  0  0  0
  154.0674  137.9275  189.2397 C   0  0  0  0  0  0  0  0  0  0  0  0
  154.0325  138.4626  187.7915 C   0  0  0  0  0  0  0  0  0  0  0  0
  152.5296  136.7594  190.7493 N   0  0  0  0  0  0  0  0  0  0  0  0
  153.3751  137.0243  191.8942 C   0  0  0  0  0  0  0  0  0  0  0  0
  152.3540  137.3155  192.9709 C   0  0  0  0  0  0  0  0  0  0  0  0
  151.2633  136.3748  192.6267 C   0  0  0  0  0  0  0  0  0  0  0  0
  150.2495  135.8365  193.3883 C   0  0  0  0  0  0  0  0  0  0  0  0
  149.3821  134.9755  192.7363 C   0  0  0  0  0  0  0  0  0  0  0  0
  149.4970  134.6530  191.4016 C   0  0  0  0  0  0  0  0  0  0  0  0
  150.5186  135.2055  190.6674 C   0  0  0  0  0  0  0  0  0  0  0  0
  151.3960  136.0672  191.2972 C   0  0  0  0  0  0  0  0  0  0  0  0
  155.7554  140.3561  183.8248 C   0  0  0  0  0  0  0  0  0  0  0  0
  155.5802  139.2830  184.6575 C   0  0  0  0  0  0  0  0  0  0  0  0
  154.3925  138.5124  184.6580 C   0  0  0  0  0  0  0  0  0  0  0  0
  153.4581  138.9373  183.7626 C   0  0  0  0  0  0  0  0  0  0  0  0
  153.6253  140.0381  182.9019 C   0  0  0  0  0  0  0  0  0  0  0  0
  154.7897  140.7579  182.9330 C   0  0  0  0  0  0  0  0  0  0  0  0
  157.9840  140.8462  184.7658 C   0  0  0  0  0  0  0  0  0  0  0  0
  156.9451  141.0910  183.8564 O   0  0  0  0  0  0  0  0  0  0  0  0
  152.6354  140.4225  182.0116 O   0  0  0  0  0  0  0  0  0  0  0  0
  152.3173  139.5527  180.9480 C   0  0  0  0  0  0  0  0  0  0  0  0
  155.0025  141.8438  182.1108 O   0  0  0  0  0  0  0  0  0  0  0  0
  154.6707  143.1682  182.4165 C   0  0  0  0  0  0  0  0  0  0  0  0
 24 25  1  0  0  0
 25 18  1  0  0  0
 18 19  2  0  0  0
 19 20  1  0  0  0
 20 21  2  0  0  0
 21 22  1  0  0  0
 22 26  1  0  0  0
 26 27  1  0  0  0
 22 23  2  0  0  0
 23 28  1  0  0  0
 28 29  1  0  0  0
 20  1  1  0  0  0
  1  2  2  0  0  0
  1  3  1  0  0  0
  3  4  1  0  0  0
  4  5  1  0  0  0
  5  6  1  0  0  0
  6  7  1  0  0  0
  7  8  1  0  0  0
  6  9  1  0  0  0
  9 10  1  0  0  0
 10 11  1  0  0  0
 11 12  1  0  0  0
 12 13  2  0  0  0
 13 14  1  0  0  0
 14 15  2  0  0  0
 15 16  1  0  0  0
 16 17  2  0  0  0
 23 18  1  0  0  0
  8  3  1  0  0  0
 17  9  1  0  0  0
 17 12  1  0  0  0
M  END
> <minimizedAffinity>
-7.22196

> <CNNscore>
0.3631890416

> <CNNaffinity>
5.3953776360

> <CNN_VS>
1.9595420361

> <CNNaffinity_variance>
0.0584092364

$$$$
[H]c1c([H])c([H])c2c(c1[H])N(C1([H])C([H])([H])C([H])([H])N(C(=O)c3c([H])c(OC([H])([H])[H])c(OC([H])([H])[H])c(OC([H])([H])[H])c3[H])C([H])([H])C1([H])[H])C([H])([H])C2([H])[H]


 29 32  0  0  0  0  0  0  0  0999 V2000
  152.9472  136.8165  184.2747 C   0  0  0  0  0  0  0  0  0  0  0  0
  153.3428  135.6643  183.8071 O   0  0  0  0  0  0  0  0  0  0  0  0
  153.1779  137.0060  185.6264 N   0  0  0  0  0  0  0  0  0  0  0  0
  153.8000  135.8915  186.3504 C   0  0  0  0  0  0  0  0  0  0  0  0
  153.0531  135.5744  187.6218 C   0  0  0  0  0  0  0  0  0  0  0  0
  152.7435  136.8455  188.3941 C   0  0  0  0  0  0  0  0  0  0  0  0
  153.5244  138.0107  187.7701 C   0  0  0  0  0  0  0  0  0  0  0  0
  152.8919  138.1809  186.3715 C   0  0  0  0  0  0  0  0  0  0  0  0
  153.0413  136.7320  189.8046 N   0  0  0  0  0  0  0  0  0  0  0  0
  152.1046  136.6000  190.9006 C   0  0  0  0  0  0  0  0  0  0  0  0
  152.8440  135.6608  191.8268 C   0  0  0  0  0  0  0  0  0  0  0  0
  154.2491  136.0944  191.6515 C   0  0  0  0  0  0  0  0  0  0  0  0
  155.3538  135.9554  192.4624 C   0  0  0  0  0  0  0  0  0  0  0  0
  156.5397  136.4857  191.9812 C   0  0  0  0  0  0  0  0  0  0  0  0
  156.6447  137.1232  190.7642 C   0  0  0  0  0  0  0  0  0  0  0  0
  155.5253  137.2468  189.9770 C   0  0  0  0  0  0  0  0  0  0  0  0
  154.3314  136.7252  190.4370 C   0  0  0  0  0  0  0  0  0  0  0  0
  152.6211  139.6085  181.8285 C   0  0  0  0  0  0  0  0  0  0  0  0
  153.1140  138.7480  182.7730 C   0  0  0  0  0  0  0  0  0  0  0  0
  152.3427  137.6865  183.3047 C   0  0  0  0  0  0  0  0  0  0  0  0
  151.0835  137.6077  182.7914 C   0  0  0  0  0  0  0  0  0  0  0  0
  150.5647  138.4853  181.8212 C   0  0  0  0  0  0  0  0  0  0  0  0
  151.3438  139.4999  181.3326 C   0  0  0  0  0  0  0  0  0  0  0  0
  153.9736  141.6508  182.1318 C   0  0  0  0  0  0  0  0  0  0  0  0
  153.4171  140.6446  181.3292 O   0  0  0  0  0  0  0  0  0  0  0  0
  149.2728  138.3538  181.3377 O   0  0  0  0  0  0  0  0  0  0  0  0
  148.4215  137.4110  181.9504 C   0  0  0  0  0  0  0  0  0  0  0  0
  150.8827  140.3855  180.3821 O   0  0  0  0  0  0  0  0  0  0  0  0
  150.8420  140.1458  179.0042 C   0  0  0  0  0  0  0  0  0  0  0  0
 24 25  1  0  0  0
 25 18  1  0  0  0
 18 19  2  0  0  0
 19 20  1  0  0  0
 20 21  2  0  0  0
 21 22  1  0  0  0
 22 26  1  0  0  0
 26 27  1  0  0  0
 22 23  2  0  0  0
 23 28  1  0  0  0
 28 29  1  0  0  0
 20  1  1  0  0  0
  1  2  2  0  0  0
  1  3  1  0  0  0
  3  4  1  0  0  0
  4  5  1  0  0  0
  5  6  1  0  0  0
  6  7  1  0  0  0
  7  8  1  0  0  0
  6  9  1  0  0  0
  9 10  1  0  0  0
 10 11  1  0  0  0
 11 12  1  0  0  0
 12 13  2  0  0  0
 13 14  1  0  0  0
 14 15  2  0  0  0
 15 16  1  0  0  0
 16 17  2  0  0  0
 23 18  1  0  0  0
  8  3  1  0  0  0
 17  9  1  0  0  0
 17 12  1  0  0  0
M  END
> <minimizedAffinity>
-6.28590

> <CNNscore>
0.3433779776

> <CNNaffinity>
5.1506128311

> <CNN_VS>
1.7686070204

> <CNNaffinity_variance>
0.1154200882

$$$$
[H]O[C@]1([H])C([H])([H])C([H])([H])C([H])([H])C([H])([H])[C@]1([H])N1C([H])([H])C([H])([H])C([H])(c2c([H])c([H])c([H])c(F)c2[H])C([H])([H])C1([H])[H]


 21 23  0  0  0  0  0  0  0  0999 V2000
  154.8960  139.9405  183.9139 N   0  0  0  0  0  0  0  0  0  0  0  0
  156.2397  139.9364  184.3420 C   0  0  0  0  0  0  0  0  0  0  0  0
  157.1701  140.4041  183.2428 C   0  0  0  0  0  0  0  0  0  0  0  0
  156.4466  141.2934  182.2397 C   0  0  0  0  0  0  0  0  0  0  0  0
  155.4616  142.1130  183.0518 C   0  0  0  0  0  0  0  0  0  0  0  0
  154.3515  141.1579  183.4509 C   0  0  0  0  0  0  0  0  0  0  0  0
  155.0585  137.4349  185.9351 O   0  0  0  0  0  0  0  0  0  0  0  0
  154.4106  138.6715  185.9713 C   0  0  0  0  0  0  0  0  0  0  0  0
  153.1103  138.3805  186.7394 C   0  0  0  0  0  0  0  0  0  0  0  0
  152.5183  137.1694  186.0566 C   0  0  0  0  0  0  0  0  0  0  0  0
  152.3031  137.3381  184.5945 C   0  0  0  0  0  0  0  0  0  0  0  0
  153.4791  137.9357  183.8616 C   0  0  0  0  0  0  0  0  0  0  0  0
  153.9699  139.1455  184.6201 C   0  0  0  0  0  0  0  0  0  0  0  0
  155.8115  137.3876  185.3363 H   0  0  0  0  0  0  0  0  0  0  0  0
  157.4123  142.1175  181.5125 C   0  0  0  0  0  0  0  0  0  0  0  0
  157.8546  141.6949  180.2772 C   0  0  0  0  0  0  0  0  0  0  0  0
  158.7630  142.4097  179.5249 C   0  0  0  0  0  0  0  0  0  0  0  0
  159.2365  143.5790  180.0303 C   0  0  0  0  0  0  0  0  0  0  0  0
  158.8129  144.0367  181.2730 C   0  0  0  0  0  0  0  0  0  0  0  0
  159.2812  145.1988  181.7790 F   0  0  0  0  0  0  0  0  0  0  0  0
  157.9081  143.3044  181.9995 C   0  0  0  0  0  0  0  0  0  0  0  0
  7  8  1  0  0  0
  8  9  1  0  0  0
  9 10  1  0  0  0
 10 11  1  0  0  0
 11 12  1  0  0  0
 12 13  1  0  0  0
 13  1  1  0  0  0
  1  2  1  0  0  0
  2  3  1  0  0  0
  3  4  1  0  0  0
  4  5  1  0  0  0
  5  6  1  0  0  0
  4 15  1  0  0  0
 15 16  2  0  0  0
 16 17  1  0  0  0
 17 18  2  0  0  0
 18 19  1  0  0  0
 19 20  1  0  0  0
 19 21  2  0  0  0
 13  8  1  0  0  0
  6  1  1  0  0  0
 21 15  1  0  0  0
  7 14  1  0  0  0
M  END
> <minimizedAffinity>
-7.54952

> <CNNscore>
0.5172690749

> <CNNaffinity>
5.5986685753

> <CNN_VS>
2.8960180283

> <CNNaffinity_variance>
0.0764286965

$$$$
[H]O[C@]1([H])C([H])([H])C([H])([H])C([H])([H])C([H])([H])[C@]1([H])N1C([H])([H])C([H])([H])C([H])(c2c([H])c([H])c([H])c(F)c2[H])C([H])([H])C1([H])[H]


 21 23  0  0  0  0  0  0  0  0999 V2000
  154.4343  139.8038  183.0786 N   0  0  0  0  0  0  0  0  0  0  0  0
  155.6162  139.9295  183.8375 C   0  0  0  0  0  0  0  0  0  0  0  0
  156.7545  140.4728  182.9997 C   0  0  0  0  0  0  0  0  0  0  0  0
  156.2397  141.2815  181.8158 C   0  0  0  0  0  0  0  0  0  0  0  0
  155.0096  142.0121  182.3202 C   0  0  0  0  0  0  0  0  0  0  0  0
  153.9229  140.9606  182.4516 C   0  0  0  0  0  0  0  0  0  0  0  0
  154.2478  136.6745  183.8285 O   0  0  0  0  0  0  0  0  0  0  0  0
  153.8863  137.8535  184.4839 C   0  0  0  0  0  0  0  0  0  0  0  0
  152.6331  137.4580  185.2829 C   0  0  0  0  0  0  0  0  0  0  0  0
  151.7331  136.7735  184.2804 C   0  0  0  0  0  0  0  0  0  0  0  0
  151.4209  137.5951  183.0804 C   0  0  0  0  0  0  0  0  0  0  0  0
  152.6223  138.2659  182.4610 C   0  0  0  0  0  0  0  0  0  0  0  0
  153.4309  138.9317  183.5486 C   0  0  0  0  0  0  0  0  0  0  0  0
  154.9127  136.7796  183.1395 H   0  0  0  0  0  0  0  0  0  0  0  0
  157.2840  142.1862  181.3346 C   0  0  0  0  0  0  0  0  0  0  0  0
  157.8949  141.9194  180.1281 C   0  0  0  0  0  0  0  0  0  0  0  0
  158.8873  142.7190  179.6009 C   0  0  0  0  0  0  0  0  0  0  0  0
  159.2728  143.8141  180.3074 C   0  0  0  0  0  0  0  0  0  0  0  0
  158.6790  144.1147  181.5281 C   0  0  0  0  0  0  0  0  0  0  0  0
  159.0593  145.2026  182.2336 F   0  0  0  0  0  0  0  0  0  0  0  0
  157.6938  143.3009  182.0283 C   0  0  0  0  0  0  0  0  0  0  0  0
  7  8  1  0  0  0
  8  9  1  0  0  0
  9 10  1  0  0  0
 10 11  1  0  0  0
 11 12  1  0  0  0
 12 13  1  0  0  0
 13  1  1  0  0  0
  1  2  1  0  0  0
  2  3  1  0  0  0
  3  4  1  0  0  0
  4  5  1  0  0  0
  5  6  1  0  0  0
  4 15  1  0  0  0
 15 16  2  0  0  0
 16 17  1  0  0  0
 17 18  2  0  0  0
 18 19  1  0  0  0
 19 20  1  0  0  0
 19 21  2  0  0  0
 13  8  1  0  0  0
  6  1  1  0  0  0
 21 15  1  0  0  0
  7 14  1  0  0  0
M  END
> <minimizedAffinity>
-7.26890

> <CNNscore>
0.4489662647

> <CNNaffinity>
5.4350409508

> <CNN_VS>
2.4401500225

> <CNNaffinity_variance>
0.1046319753

$$$$
[H]O[C@]1([H])C([H])([H])C([H])([H])C([H])([H])C([H])([H])[C@]1([H])N1C([H])([H])C([H])([H])C([H])(c2c([H])c([H])c([H])c(F)c2[H])C([H])([H])C1([H])[H]


 21 23  0  0  0  0  0  0  0  0999 V2000
  152.7441  136.8475  185.2366 N   0  0  0  0  0  0  0  0  0  0  0  0
  154.0125  136.2388  185.3345 C   0  0  0  0  0  0  0  0  0  0  0  0
  154.8726  136.9211  186.3773 C   0  0  0  0  0  0  0  0  0  0  0  0
  154.0233  137.6287  187.4254 C   0  0  0  0  0  0  0  0  0  0  0  0
  152.8100  136.7434  187.6382 C   0  0  0  0  0  0  0  0  0  0  0  0
  151.9476  136.9107  186.4004 C   0  0  0  0  0  0  0  0  0  0  0  0
  152.5549  138.2537  182.3424 O   0  0  0  0  0  0  0  0  0  0  0  0
  152.7120  136.9345  182.7728 C   0  0  0  0  0  0  0  0  0  0  0  0
  151.9709  136.1112  181.7059 C   0  0  0  0  0  0  0  0  0  0  0  0
  150.6177  136.7711  181.5766 C   0  0  0  0  0  0  0  0  0  0  0  0
  149.8652  136.8750  182.8555 C   0  0  0  0  0  0  0  0  0  0  0  0
  150.6841  137.3882  184.0144 C   0  0  0  0  0  0  0  0  0  0  0  0
  151.9977  136.6449  184.0575 C   0  0  0  0  0  0  0  0  0  0  0  0
  152.8053  138.9243  182.9869 H   0  0  0  0  0  0  0  0  0  0  0  0
  154.8022  137.8334  188.6469 C   0  0  0  0  0  0  0  0  0  0  0  0
  156.0159  137.1936  188.7802 C   0  0  0  0  0  0  0  0  0  0  0  0
  156.8133  137.3308  189.8970 C   0  0  0  0  0  0  0  0  0  0  0  0
  156.3765  138.1325  190.9036 C   0  0  0  0  0  0  0  0  0  0  0  0
  155.1575  138.7938  190.8042 C   0  0  0  0  0  0  0  0  0  0  0  0
  154.7196  139.5920  191.8026 F   0  0  0  0  0  0  0  0  0  0  0  0
  154.3848  138.6386  189.6809 C   0  0  0  0  0  0  0  0  0  0  0  0
  7  8  1  0  0  0
  8  9  1  0  0  0
  9 10  1  0  0  0
 10 11  1  0  0  0
 11 12  1  0  0  0
 12 13  1  0  0  0
 13  1  1  0  0  0
  1  2  1  0  0  0
  2  3  1  0  0  0
  3  4  1  0  0  0
  4  5  1  0  0  0
  5  6  1  0  0  0
  4 15  1  0  0  0
 15 16  2  0  0  0
 16 17  1  0  0  0
 17 18  2  0  0  0
 18 19  1  0  0  0
 19 20  1  0  0  0
 19 21  2  0  0  0
 13  8  1  0  0  0
  6  1  1  0  0  0
 21 15  1  0  0  0
  7 14  1  0  0  0
M  END
> <minimizedAffinity>
-5.69430

> <CNNscore>
0.4394056499

> <CNNaffinity>
4.5049357414

> <CNN_VS>
1.9794942141

> <CNNaffinity_variance>
0.0191370156

$$$$
[H]O[C@]1([H])C([H])([H])C([H])([H])C([H])([H])C([H])([H])[C@]1([H])N1C([H])([H])C([H])([H])C([H])(c2c([H])c([H])c([H])c(F)c2[H])C([H])([H])C1([H])[H]


 21 23  0  0  0  0  0  0  0  0999 V2000
  156.4517  140.7081  183.3855 N   0  0  0  0  0  0  0  0  0  0  0  0
  157.4263  141.1707  182.4772 C   0  0  0  0  0  0  0  0  0  0  0  0
  158.4931  141.9839  183.1796 C   0  0  0  0  0  0  0  0  0  0  0  0
  158.6014  141.6093  184.6522 C   0  0  0  0  0  0  0  0  0  0  0  0
  158.3652  140.1120  184.7144 C   0  0  0  0  0  0  0  0  0  0  0  0
  156.8807  139.9120  184.4695 C   0  0  0  0  0  0  0  0  0  0  0  0
  153.5573  142.0947  183.0861 O   0  0  0  0  0  0  0  0  0  0  0  0
  154.4030  141.4125  182.2086 C   0  0  0  0  0  0  0  0  0  0  0  0
  153.4353  140.6815  181.2628 C   0  0  0  0  0  0  0  0  0  0  0  0
  152.4623  139.9713  182.1751 C   0  0  0  0  0  0  0  0  0  0  0  0
  153.1044  139.0635  183.1632 C   0  0  0  0  0  0  0  0  0  0  0  0
  154.2832  139.6697  183.8843 C   0  0  0  0  0  0  0  0  0  0  0  0
  155.1932  140.3283  182.8754 C   0  0  0  0  0  0  0  0  0  0  0  0
  153.9909  142.4677  183.8611 H   0  0  0  0  0  0  0  0  0  0  0  0
  159.9100  142.0032  185.1747 C   0  0  0  0  0  0  0  0  0  0  0  0
  159.9886  142.5441  186.4401 C   0  0  0  0  0  0  0  0  0  0  0  0
  161.1803  142.9418  187.0092 C   0  0  0  0  0  0  0  0  0  0  0  0
  162.3201  142.7903  186.2848 C   0  0  0  0  0  0  0  0  0  0  0  0
  162.2793  142.2484  185.0050 C   0  0  0  0  0  0  0  0  0  0  0  0
  163.4103  142.0960  184.2815 F   0  0  0  0  0  0  0  0  0  0  0  0
  161.0791  141.8614  184.4641 C   0  0  0  0  0  0  0  0  0  0  0  0
  7  8  1  0  0  0
  8  9  1  0  0  0
  9 10  1  0  0  0
 10 11  1  0  0  0
 11 12  1  0  0  0
 12 13  1  0  0  0
 13  1  1  0  0  0
  1  2  1  0  0  0
  2  3  1  0  0  0
  3  4  1  0  0  0
  4  5  1  0  0  0
  5  6  1  0  0  0
  4 15  1  0  0  0
 15 16  2  0  0  0
 16 17  1  0  0  0
 17 18  2  0  0  0
 18 19  1  0  0  0
 19 20  1  0  0  0
 19 21  2  0  0  0
 13  8  1  0  0  0
  6  1  1  0  0  0
 21 15  1  0  0  0
  7 14  1  0  0  0
M  END
> <minimizedAffinity>
-8.93258

> <CNNscore>
0.3911522627

> <CNNaffinity>
5.8571500778

> <CNN_VS>
2.2910375595

> <CNNaffinity_variance>
0.1392366588

$$$$
[H]O[C@]1([H])C([H])([H])C([H])([H])C([H])([H])C([H])([H])[C@]1([H])N1C([H])([H])C([H])([H])C([H])(c2c([H])c([H])c([H])c(F)c2[H])C([H])([H])C1([H])[H]


 21 23  0  0  0  0  0  0  0  0999 V2000
  152.2415  135.3872  181.9710 N   0  0  0  0  0  0  0  0  0  0  0  0
  150.9499  135.2870  181.4137 C   0  0  0  0  0  0  0  0  0  0  0  0
  149.8859  135.6953  182.4106 C   0  0  0  0  0  0  0  0  0  0  0  0
  150.4444  136.6387  183.4683 C   0  0  0  0  0  0  0  0  0  0  0  0
  151.4459  137.5200  182.7462 C   0  0  0  0  0  0  0  0  0  0  0  0
  152.6529  136.6422  182.4696 C   0  0  0  0  0  0  0  0  0  0  0  0
  152.9057  132.2706  181.4859 O   0  0  0  0  0  0  0  0  0  0  0  0
  152.8789  133.3976  180.6617 C   0  0  0  0  0  0  0  0  0  0  0  0
  153.9979  133.1306  179.6410 C   0  0  0  0  0  0  0  0  0  0  0  0
  155.2025  132.7578  180.4736 C   0  0  0  0  0  0  0  0  0  0  0  0
  155.5774  133.7741  181.4931 C   0  0  0  0  0  0  0  0  0  0  0  0
  154.4155  134.2948  182.3029 C   0  0  0  0  0  0  0  0  0  0  0  0
  153.2850  134.6544  181.3689 C   0  0  0  0  0  0  0  0  0  0  0  0
  152.3871  132.3454  182.2941 H   0  0  0  0  0  0  0  0  0  0  0  0
  149.3575  137.3978  184.0872 C   0  0  0  0  0  0  0  0  0  0  0  0
  148.5778  138.2137  183.2957 C   0  0  0  0  0  0  0  0  0  0  0  0
  147.5340  138.9631  183.7967 C   0  0  0  0  0  0  0  0  0  0  0  0
  147.2701  138.8879  185.1277 C   0  0  0  0  0  0  0  0  0  0  0  0
  148.0355  138.0755  185.9567 C   0  0  0  0  0  0  0  0  0  0  0  0
  147.7763  137.9978  187.2806 F   0  0  0  0  0  0  0  0  0  0  0  0
  149.0681  137.3408  185.4306 C   0  0  0  0  0  0  0  0  0  0  0  0
  7  8  1  0  0  0
  8  9  1  0  0  0
  9 10  1  0  0  0
 10 11  1  0  0  0
 11 12  1  0  0  0
 12 13  1  0  0  0
 13  1  1  0  0  0
  1  2  1  0  0  0
  2  3  1  0  0  0
  3  4  1  0  0  0
  4  5  1  0  0  0
  5  6  1  0  0  0
  4 15  1  0  0  0
 15 16  2  0  0  0
 16 17  1  0  0  0
 17 18  2  0  0  0
 18 19  1  0  0  0
 19 20  1  0  0  0
 19 21  2  0  0  0
 13  8  1  0  0  0
  6  1  1  0  0  0
 21 15  1  0  0  0
  7 14  1  0  0  0
M  END
> <minimizedAffinity>
-4.09977

> <CNNscore>
0.3759463131

> <CNNaffinity>
4.1177201271

> <CNN_VS>
1.5480417013

> <CNNaffinity_variance>
0.0529784039

$$$$
[H]O[C@]1([H])C([H])([H])C([H])([H])C([H])([H])C([H])([H])[C@]1([H])N1C([H])([H])C([H])([H])C([H])(c2c([H])c([H])c([H])c(F)c2[H])C([H])([H])C1([H])[H]


 21 23  0  0  0  0  0  0  0  0999 V2000
  153.6579  140.1766  182.1742 N   0  0  0  0  0  0  0  0  0  0  0  0
  153.9707  139.5712  183.4089 C   0  0  0  0  0  0  0  0  0  0  0  0
  155.4658  139.5449  183.6472 C   0  0  0  0  0  0  0  0  0  0  0  0
  156.1745  140.6467  182.8697 C   0  0  0  0  0  0  0  0  0  0  0  0
  155.2372  141.8391  182.8987 C   0  0  0  0  0  0  0  0  0  0  0  0
  154.0986  141.4995  181.9540 C   0  0  0  0  0  0  0  0  0  0  0  0
  152.0278  137.5304  181.3198 O   0  0  0  0  0  0  0  0  0  0  0  0
  151.7167  138.6596  182.0804 C   0  0  0  0  0  0  0  0  0  0  0  0
  150.2218  138.8885  181.8000 C   0  0  0  0  0  0  0  0  0  0  0  0
  150.1002  138.8608  180.2941 C   0  0  0  0  0  0  0  0  0  0  0  0
  150.9780  139.8361  179.5934 C   0  0  0  0  0  0  0  0  0  0  0  0
  152.4033  139.8515  180.0885 C   0  0  0  0  0  0  0  0  0  0  0  0
  152.4008  139.9019  181.5976 C   0  0  0  0  0  0  0  0  0  0  0  0
  152.9690  137.3448  181.2337 H   0  0  0  0  0  0  0  0  0  0  0  0
  157.4765  140.9289  183.4743 C   0  0  0  0  0  0  0  0  0  0  0  0
  158.5967  140.9437  182.6712 C   0  0  0  0  0  0  0  0  0  0  0  0
  159.8612  141.2006  183.1583 C   0  0  0  0  0  0  0  0  0  0  0  0
  159.9993  141.4488  184.4873 C   0  0  0  0  0  0  0  0  0  0  0  0
  158.8918  141.4423  185.3279 C   0  0  0  0  0  0  0  0  0  0  0  0
  159.0248  141.6888  186.6498 F   0  0  0  0  0  0  0  0  0  0  0  0
  157.6455  141.1835  184.8153 C   0  0  0  0  0  0  0  0  0  0  0  0
  7  8  1  0  0  0
  8  9  1  0  0  0
  9 10  1  0  0  0
 10 11  1  0  0  0
 11 12  1  0  0  0
 12 13  1  0  0  0
 13  1  1  0  0  0
  1  2  1  0  0  0
  2  3  1  0  0  0
  3  4  1  0  0  0
  4  5  1  0  0  0
  5  6  1  0  0  0
  4 15  1  0  0  0
 15 16  2  0  0  0
 16 17  1  0  0  0
 17 18  2  0  0  0
 18 19  1  0  0  0
 19 20  1  0  0  0
 19 21  2  0  0  0
 13  8  1  0  0  0
  6  1  1  0  0  0
 21 15  1  0  0  0
  7 14  1  0  0  0
M  END
> <minimizedAffinity>
-8.20551

> <CNNscore>
0.3734228313

> <CNNaffinity>
5.3504920006

> <CNN_VS>
1.9979958534

> <CNNaffinity_variance>
0.0899807364

$$$$
[H]O[C@]1([H])C([H])([H])C([H])([H])C([H])([H])C([H])([H])[C@]1([H])N1C([H])([H])C([H])([H])C([H])(c2c([H])c([H])c([H])c(F)c2[H])C([H])([H])C1([H])[H]


 21 23  0  0  0  0  0  0  0  0999 V2000
  156.6645  141.1484  182.8997 N   0  0  0  0  0  0  0  0  0  0  0  0
  155.5675  141.8274  183.4693 C   0  0  0  0  0  0  0  0  0  0  0  0
  154.4231  140.8796  183.7605 C   0  0  0  0  0  0  0  0  0  0  0  0
  154.9155  139.4500  183.9458 C   0  0  0  0  0  0  0  0  0  0  0  0
  156.2491  139.5634  184.6598 C   0  0  0  0  0  0  0  0  0  0  0  0
  157.2340  140.0811  183.6273 C   0  0  0  0  0  0  0  0  0  0  0  0
  156.7800  144.0980  181.6050 O   0  0  0  0  0  0  0  0  0  0  0  0
  157.6230  143.3754  182.4522 C   0  0  0  0  0  0  0  0  0  0  0  0
  159.0318  143.8484  182.0561 C   0  0  0  0  0  0  0  0  0  0  0  0
  159.0781  143.7145  180.5517 C   0  0  0  0  0  0  0  0  0  0  0  0
  158.7619  142.3500  180.0509 C   0  0  0  0  0  0  0  0  0  0  0  0
  157.5389  141.7289  180.6798 C   0  0  0  0  0  0  0  0  0  0  0  0
  157.6123  141.9026  182.1779 C   0  0  0  0  0  0  0  0  0  0  0  0
  155.8647  143.7985  181.5900 H   0  0  0  0  0  0  0  0  0  0  0  0
  153.9294  138.6736  184.6976 C   0  0  0  0  0  0  0  0  0  0  0  0
  153.0999  137.8088  184.0163 C   0  0  0  0  0  0  0  0  0  0  0  0
  152.1437  137.0399  184.6460 C   0  0  0  0  0  0  0  0  0  0  0  0
  152.0211  137.1455  185.9954 C   0  0  0  0  0  0  0  0  0  0  0  0
  152.8405  138.0074  186.7157 C   0  0  0  0  0  0  0  0  0  0  0  0
  152.7220  138.1152  188.0574 F   0  0  0  0  0  0  0  0  0  0  0  0
  153.7834  138.7604  186.0625 C   0  0  0  0  0  0  0  0  0  0  0  0
  7  8  1  0  0  0
  8  9  1  0  0  0
  9 10  1  0  0  0
 10 11  1  0  0  0
 11 12  1  0  0  0
 12 13  1  0  0  0
 13  1  1  0  0  0
  1  2  1  0  0  0
  2  3  1  0  0  0
  3  4  1  0  0  0
  4  5  1  0  0  0
  5  6  1  0  0  0
  4 15  1  0  0  0
 15 16  2  0  0  0
 16 17  1  0  0  0
 17 18  2  0  0  0
 18 19  1  0  0  0
 19 20  1  0  0  0
 19 21  2  0  0  0
 13  8  1  0  0  0
  6  1  1  0  0  0
 21 15  1  0  0  0
  7 14  1  0  0  0
M  END
> <minimizedAffinity>
-7.50671

> <CNNscore>
0.3647148013

> <CNNaffinity>
5.4497995377

> <CNN_VS>
1.9876224995

> <CNNaffinity_variance>
0.0926939696

$$$$
[H]O[C@]1([H])C([H])([H])C([H])([H])C([H])([H])C([H])([H])[C@]1([H])N1C([H])([H])C([H])([H])C([H])(c2c([H])c([H])c([H])c(F)c2[H])C([H])([H])C1([H])[H]


 21 23  0  0  0  0  0  0  0  0999 V2000
  156.2731  141.3694  182.2216 N   0  0  0  0  0  0  0  0  0  0  0  0
  154.9452  141.8181  182.3773 C   0  0  0  0  0  0  0  0  0  0  0  0
  154.0330  140.6960  182.8262 C   0  0  0  0  0  0  0  0  0  0  0  0
  154.8075  139.6037  183.5527 C   0  0  0  0  0  0  0  0  0  0  0  0
  155.8807  140.3208  184.3498 C   0  0  0  0  0  0  0  0  0  0  0  0
  156.9115  140.7877  183.3382 C   0  0  0  0  0  0  0  0  0  0  0  0
  159.1544  140.9160  180.8498 O   0  0  0  0  0  0  0  0  0  0  0  0
  157.9168  141.3651  180.3840 C   0  0  0  0  0  0  0  0  0  0  0  0
  158.2851  142.3990  179.3065 C   0  0  0  0  0  0  0  0  0  0  0  0
  159.2867  143.3139  179.9721 C   0  0  0  0  0  0  0  0  0  0  0  0
  158.8002  143.9372  181.2320 C   0  0  0  0  0  0  0  0  0  0  0  0
  158.1328  142.9724  182.1812 C   0  0  0  0  0  0  0  0  0  0  0  0
  157.1423  142.1304  181.4131 C   0  0  0  0  0  0  0  0  0  0  0  0
  159.1191  140.3904  181.6562 H   0  0  0  0  0  0  0  0  0  0  0  0
  153.9008  138.8197  184.3917 C   0  0  0  0  0  0  0  0  0  0  0  0
  153.0239  137.9431  183.7896 C   0  0  0  0  0  0  0  0  0  0  0  0
  152.1361  137.1665  184.5044 C   0  0  0  0  0  0  0  0  0  0  0  0
  152.1328  137.2764  185.8590 C   0  0  0  0  0  0  0  0  0  0  0  0
  153.0032  138.1502  186.5008 C   0  0  0  0  0  0  0  0  0  0  0  0
  153.0032  138.2624  187.8474 F   0  0  0  0  0  0  0  0  0  0  0  0
  153.8758  138.9107  185.7639 C   0  0  0  0  0  0  0  0  0  0  0  0
  7  8  1  0  0  0
  8  9  1  0  0  0
  9 10  1  0  0  0
 10 11  1  0  0  0
 11 12  1  0  0  0
 12 13  1  0  0  0
 13  1  1  0  0  0
  1  2  1  0  0  0
  2  3  1  0  0  0
  3  4  1  0  0  0
  4  5  1  0  0  0
  5  6  1  0  0  0
  4 15  1  0  0  0
 15 16  2  0  0  0
 16 17  1  0  0  0
 17 18  2  0  0  0
 18 19  1  0  0  0
 19 20  1  0  0  0
 19 21  2  0  0  0
 13  8  1  0  0  0
  6  1  1  0  0  0
 21 15  1  0  0  0
  7 14  1  0  0  0
M  END
> <minimizedAffinity>
-7.58534

> <CNNscore>
0.3569560051

> <CNNaffinity>
5.3593096733

> <CNN_VS>
1.9130377769

> <CNNaffinity_variance>
0.0241088551

$$$$
[H]O[C@]1([H])C([H])([H])C([H])([H])C([H])([H])C([H])([H])[C@]1([H])N1C([H])([H])C([H])([H])C([H])(c2c([H])c([H])c([H])c(F)c2[H])C([H])([H])C1([H])[H]


 21 23  0  0  0  0  0  0  0  0999 V2000
  153.4212  138.1027  185.5709 N   0  0  0  0  0  0  0  0  0  0  0  0
  152.9857  138.8853  186.6602 C   0  0  0  0  0  0  0  0  0  0  0  0
  153.3927  138.2671  187.9811 C   0  0  0  0  0  0  0  0  0  0  0  0
  154.6127  137.3683  187.8245 C   0  0  0  0  0  0  0  0  0  0  0  0
  155.4927  138.0455  186.7909 C   0  0  0  0  0  0  0  0  0  0  0  0
  154.8032  137.8392  185.4545 C   0  0  0  0  0  0  0  0  0  0  0  0
  153.1236  136.3882  182.8577 O   0  0  0  0  0  0  0  0  0  0  0  0
  152.2184  137.0328  183.7035 C   0  0  0  0  0  0  0  0  0  0  0  0
  151.1143  137.5231  182.7516 C   0  0  0  0  0  0  0  0  0  0  0  0
  151.8479  138.2415  181.6430 C   0  0  0  0  0  0  0  0  0  0  0  0
  152.7390  139.3367  182.1110 C   0  0  0  0  0  0  0  0  0  0  0  0
  153.6179  138.9617  183.2790 C   0  0  0  0  0  0  0  0  0  0  0  0
  152.7773  138.2745  184.3282 C   0  0  0  0  0  0  0  0  0  0  0  0
  153.9716  136.1707  183.2595 H   0  0  0  0  0  0  0  0  0  0  0  0
  155.2778  137.1964  189.1163 C   0  0  0  0  0  0  0  0  0  0  0  0
  155.2437  138.2298  190.0278 C   0  0  0  0  0  0  0  0  0  0  0  0
  155.8437  138.1520  191.2672 C   0  0  0  0  0  0  0  0  0  0  0  0
  156.4935  137.0045  191.5954 C   0  0  0  0  0  0  0  0  0  0  0  0
  156.5486  135.9411  190.7012 C   0  0  0  0  0  0  0  0  0  0  0  0
  157.1935  134.7984  191.0236 F   0  0  0  0  0  0  0  0  0  0  0  0
  155.9423  136.0467  189.4747 C   0  0  0  0  0  0  0  0  0  0  0  0
  7  8  1  0  0  0
  8  9  1  0  0  0
  9 10  1  0  0  0
 10 11  1  0  0  0
 11 12  1  0  0  0
 12 13  1  0  0  0
 13  1  1  0  0  0
  1  2  1  0  0  0
  2  3  1  0  0  0
  3  4  1  0  0  0
  4  5  1  0  0  0
  5  6  1  0  0  0
  4 15  1  0  0  0
 15 16  2  0  0  0
 16 17  1  0  0  0
 17 18  2  0  0  0
 18 19  1  0  0  0
 19 20  1  0  0  0
 19 21  2  0  0  0
 13  8  1  0  0  0
  6  1  1  0  0  0
 21 15  1  0  0  0
  7 14  1  0  0  0
M  END
> <minimizedAffinity>
-5.93659

> <CNNscore>
0.3441257179

> <CNNaffinity>
4.6376471519

> <CNN_VS>
1.5959336758

> <CNNaffinity_variance>
0.0527099781

$$$$
[H]N=C(N([H])[H])N([H])C([H])([H])C([H])([H])C([H])([H])[C@@]([H])(C(=O)N1C([H])([H])C([H])([H])C([H])([H])[C@@]1([H])C(=O)N([H])[C@]([H])(C([H])=O)C([H])([H])c1c([H])c([H])c([H])c([H])c1[H])N([H])C(=O)OC(C([H])([H])[H])(C([H])([H])[H])C([H])([H])[H]


 42 43  0  0  0  0  0  0  0  0999 V2000
  156.7764  141.6122  184.1025 C   0  0  0  0  0  0  0  0  0  0  0  0
  156.0524  140.3258  184.3604 C   0  0  0  0  0  0  0  0  0  0  0  0
  156.7682  139.4352  184.8904 O   0  0  0  0  0  0  0  0  0  0  0  0
  154.7251  140.1062  184.0550 N   0  0  0  0  0  0  0  0  0  0  0  0
  153.8552  141.1936  183.5164 C   0  0  0  0  0  0  0  0  0  0  0  0
  153.3309  140.5032  182.2881 C   0  0  0  0  0  0  0  0  0  0  0  0
  153.4908  138.9965  182.5394 C   0  0  0  0  0  0  0  0  0  0  0  0
  153.8289  139.0373  184.0609 C   0  0  0  0  0  0  0  0  0  0  0  0
  154.1185  137.7341  184.5751 C   0  0  0  0  0  0  0  0  0  0  0  0
  154.0833  136.6663  183.9646 O   0  0  0  0  0  0  0  0  0  0  0  0
  154.4977  137.6548  185.9826 N   0  0  0  0  0  0  0  0  0  0  0  0
  154.5336  138.5484  186.5132 H   0  0  0  0  0  0  0  0  0  0  0  0
  154.8076  136.3739  186.5952 C   0  0  0  0  0  0  0  0  0  0  0  0
  153.6811  136.0446  187.5028 C   0  0  0  0  0  0  0  0  0  0  0  0
  153.2051  134.9331  187.5156 O   0  0  0  0  0  0  0  0  0  0  0  0
  156.1056  136.5350  187.3440 C   0  0  0  0  0  0  0  0  0  0  0  0
  155.9189  136.9676  188.7413 C   0  0  0  0  0  0  0  0  0  0  0  0
  155.3368  138.1912  189.0067 C   0  0  0  0  0  0  0  0  0  0  0  0
  155.1378  138.6479  190.3018 C   0  0  0  0  0  0  0  0  0  0  0  0
  155.5211  137.8821  191.3824 C   0  0  0  0  0  0  0  0  0  0  0  0
  156.1037  136.6579  191.1312 C   0  0  0  0  0  0  0  0  0  0  0  0
  156.3010  136.2042  189.8283 C   0  0  0  0  0  0  0  0  0  0  0  0
  159.2589  141.2933  184.2942 C   0  0  0  0  0  0  0  0  0  0  0  0
  159.2719  140.8405  183.1273 O   0  0  0  0  0  0  0  0  0  0  0  0
  158.0187  141.7022  184.8454 N   0  0  0  0  0  0  0  0  0  0  0  0
  157.9869  142.0831  185.8111 H   0  0  0  0  0  0  0  0  0  0  0  0
  160.4611  141.3603  184.9596 O   0  0  0  0  0  0  0  0  0  0  0  0
  162.4449  142.5447  185.7255 C   0  0  0  0  0  0  0  0  0  0  0  0
  160.9623  142.5468  185.4623 C   0  0  0  0  0  0  0  0  0  0  0  0
  160.6767  143.7639  184.6040 C   0  0  0  0  0  0  0  0  0  0  0  0
  160.2675  142.8042  186.8014 C   0  0  0  0  0  0  0  0  0  0  0  0
  157.1597  141.7199  182.6334 C   0  0  0  0  0  0  0  0  0  0  0  0
  156.6969  143.0335  182.0411 C   0  0  0  0  0  0  0  0  0  0  0  0
  157.8858  143.9047  181.7504 C   0  0  0  0  0  0  0  0  0  0  0  0
  159.0144  143.1598  181.2412 N   0  0  0  0  0  0  0  0  0  0  0  0
  159.7073  142.6651  181.8255 H   0  0  0  0  0  0  0  0  0  0  0  0
  159.1658  143.1159  179.8245 C   0  0  0  0  0  0  0  0  0  0  0  0
  159.9849  144.0136  179.0912 N   0  0  0  0  0  0  0  0  0  0  0  0
  158.5273  142.2082  179.1250 N   0  0  0  0  0  0  0  0  0  0  0  0
  161.0014  144.0263  179.2984 H   0  0  0  0  0  0  0  0  0  0  0  0
  159.6147  144.6501  178.3656 H   0  0  0  0  0  0  0  0  0  0  0  0
  157.9154  141.5323  179.6396 H   0  0  0  0  0  0  0  0  0  0  0  0
 28 29  1  0  0  0
 29 30  1  0  0  0
 29 31  1  0  0  0
 29 27  1  0  0  0
 27 23  1  0  0  0
 23 24  2  0  0  0
 23 25  1  0  0  0
 25  1  1  0  0  0
  1 32  1  0  0  0
 32 33  1  0  0  0
 33 34  1  0  0  0
 34 35  1  0  0  0
 35 37  1  0  0  0
 37 38  1  0  0  0
 37 39  2  0  0  0
  1  2  1  0  0  0
  2  3  2  0  0  0
  2  4  1  0  0  0
  4  5  1  0  0  0
  5  6  1  0  0  0
  6  7  1  0  0  0
  7  8  1  0  0  0
  8  9  1  0  0  0
  9 10  2  0  0  0
  9 11  1  0  0  0
 11 13  1  0  0  0
 13 16  1  0  0  0
 16 17  1  0  0  0
 17 18  2  0  0  0
 18 19  1  0  0  0
 19 20  2  0  0  0
 20 21  1  0  0  0
 21 22  2  0  0  0
 13 14  1  0  0  0
 14 15  2  0  0  0
  8  4  1  0  0  0
 22 17  1  0  0  0
 25 26  1  0  0  0
 35 36  1  0  0  0
 38 40  1  0  0  0
 38 41  1  0  0  0
 39 42  1  0  0  0
 11 12  1  0  0  0
M  END
> <minimizedAffinity>
-7.69767

> <CNNscore>
0.3468256295

> <CNNaffinity>
6.9499869347

> <CNN_VS>
2.4104335308

> <CNNaffinity_variance>
0.0321546383

$$$$
[H]N=C(N([H])[H])N([H])C([H])([H])C([H])([H])C([H])([H])[C@@]([H])(C(=O)N1C([H])([H])C([H])([H])C([H])([H])[C@@]1([H])C(=O)N([H])[C@]([H])(C([H])=O)C([H])([H])c1c([H])c([H])c([H])c([H])c1[H])N([H])C(=O)OC(C([H])([H])[H])(C([H])([H])[H])C([H])([H])[H]


 42 43  0  0  0  0  0  0  0  0999 V2000
  157.9594  141.0427  182.9167 C   0  0  0  0  0  0  0  0  0  0  0  0
  156.8610  140.2488  183.5562 C   0  0  0  0  0  0  0  0  0  0  0  0
  157.2569  139.1988  184.1279 O   0  0  0  0  0  0  0  0  0  0  0  0
  155.5291  140.6083  183.5359 N   0  0  0  0  0  0  0  0  0  0  0  0
  155.0758  141.9008  182.9418 C   0  0  0  0  0  0  0  0  0  0  0  0
  154.0322  141.3819  181.9921 C   0  0  0  0  0  0  0  0  0  0  0  0
  153.6196  139.9994  182.5187 C   0  0  0  0  0  0  0  0  0  0  0  0
  154.3063  140.0561  183.9173 C   0  0  0  0  0  0  0  0  0  0  0  0
  154.1553  138.8264  184.6327 C   0  0  0  0  0  0  0  0  0  0  0  0
  154.4941  137.7023  184.2642 O   0  0  0  0  0  0  0  0  0  0  0  0
  153.5277  138.9068  185.9483 N   0  0  0  0  0  0  0  0  0  0  0  0
  153.2363  139.8498  186.2758 H   0  0  0  0  0  0  0  0  0  0  0  0
  153.3289  137.7102  186.7486 C   0  0  0  0  0  0  0  0  0  0  0  0
  152.0918  137.0585  186.2525 C   0  0  0  0  0  0  0  0  0  0  0  0
  151.0184  137.3193  186.7445 O   0  0  0  0  0  0  0  0  0  0  0  0
  153.1988  138.1457  188.1855 C   0  0  0  0  0  0  0  0  0  0  0  0
  154.4484  137.9923  188.9532 C   0  0  0  0  0  0  0  0  0  0  0  0
  154.5752  138.6061  190.1835 C   0  0  0  0  0  0  0  0  0  0  0  0
  155.7283  138.4957  190.9474 C   0  0  0  0  0  0  0  0  0  0  0  0
  156.8015  137.7577  190.4951 C   0  0  0  0  0  0  0  0  0  0  0  0
  156.6879  137.1396  189.2679 C   0  0  0  0  0  0  0  0  0  0  0  0
  155.5273  137.2538  188.5049 C   0  0  0  0  0  0  0  0  0  0  0  0
  159.2746  141.6935  184.9534 C   0  0  0  0  0  0  0  0  0  0  0  0
  158.2718  142.3083  185.3814 O   0  0  0  0  0  0  0  0  0  0  0  0
  159.1770  141.0300  183.7046 N   0  0  0  0  0  0  0  0  0  0  0  0
  159.9969  140.5122  183.3330 H   0  0  0  0  0  0  0  0  0  0  0  0
  160.4066  141.7087  185.7351 O   0  0  0  0  0  0  0  0  0  0  0  0
  162.5067  142.0329  184.5480 C   0  0  0  0  0  0  0  0  0  0  0  0
  161.4616  142.5682  185.4908 C   0  0  0  0  0  0  0  0  0  0  0  0
  161.0545  143.9285  184.9586 C   0  0  0  0  0  0  0  0  0  0  0  0
  162.1550  142.8308  186.8296 C   0  0  0  0  0  0  0  0  0  0  0  0
  158.3293  140.4447  181.5668 C   0  0  0  0  0  0  0  0  0  0  0  0
  158.0871  141.4317  180.4453 C   0  0  0  0  0  0  0  0  0  0  0  0
  159.1968  142.4439  180.4131 C   0  0  0  0  0  0  0  0  0  0  0  0
  158.7122  143.8045  180.3700 N   0  0  0  0  0  0  0  0  0  0  0  0
  158.5599  144.3498  179.5065 H   0  0  0  0  0  0  0  0  0  0  0  0
  158.4287  144.4230  181.6226 C   0  0  0  0  0  0  0  0  0  0  0  0
  157.1369  144.4592  182.2094 N   0  0  0  0  0  0  0  0  0  0  0  0
  159.3913  145.0020  182.3003 N   0  0  0  0  0  0  0  0  0  0  0  0
  156.6807  143.5563  182.4401 H   0  0  0  0  0  0  0  0  0  0  0  0
  156.6355  145.3395  182.4149 H   0  0  0  0  0  0  0  0  0  0  0  0
  160.3551  144.9909  181.8915 H   0  0  0  0  0  0  0  0  0  0  0  0
 28 29  1  0  0  0
 29 30  1  0  0  0
 29 31  1  0  0  0
 29 27  1  0  0  0
 27 23  1  0  0  0
 23 24  2  0  0  0
 23 25  1  0  0  0
 25  1  1  0  0  0
  1 32  1  0  0  0
 32 33  1  0  0  0
 33 34  1  0  0  0
 34 35  1  0  0  0
 35 37  1  0  0  0
 37 38  1  0  0  0
 37 39  2  0  0  0
  1  2  1  0  0  0
  2  3  2  0  0  0
  2  4  1  0  0  0
  4  5  1  0  0  0
  5  6  1  0  0  0
  6  7  1  0  0  0
  7  8  1  0  0  0
  8  9  1  0  0  0
  9 10  2  0  0  0
  9 11  1  0  0  0
 11 13  1  0  0  0
 13 16  1  0  0  0
 16 17  1  0  0  0
 17 18  2  0  0  0
 18 19  1  0  0  0
 19 20  2  0  0  0
 20 21  1  0  0  0
 21 22  2  0  0  0
 13 14  1  0  0  0
 14 15  2  0  0  0
  8  4  1  0  0  0
 22 17  1  0  0  0
 25 26  1  0  0  0
 35 36  1  0  0  0
 38 40  1  0  0  0
 38 41  1  0  0  0
 39 42  1  0  0  0
 11 12  1  0  0  0
M  END
> <minimizedAffinity>
-8.39689

> <CNNscore>
0.3458292484

> <CNNaffinity>
6.9664316177

> <CNN_VS>
2.4091959000

> <CNNaffinity_variance>
0.0526011102

$$$$
[H]N=C(N([H])[H])N([H])C([H])([H])C([H])([H])C([H])([H])[C@@]([H])(C(=O)N1C([H])([H])C([H])([H])C([H])([H])[C@@]1([H])C(=O)N([H])[C@]([H])(C([H])=O)C([H])([H])c1c([H])c([H])c([H])c([H])c1[H])N([H])C(=O)OC(C([H])([H])[H])(C([H])([H])[H])C([H])([H])[H]


 42 43  0  0  0  0  0  0  0  0999 V2000
  157.7343  140.5486  183.5207 C   0  0  0  0  0  0  0  0  0  0  0  0
  156.7397  139.7780  184.3347 C   0  0  0  0  0  0  0  0  0  0  0  0
  157.2619  138.9555  185.1330 O   0  0  0  0  0  0  0  0  0  0  0  0
  155.3720  139.9317  184.2398 N   0  0  0  0  0  0  0  0  0  0  0  0
  154.7601  140.9742  183.3635 C   0  0  0  0  0  0  0  0  0  0  0  0
  153.8241  140.1078  182.5677 C   0  0  0  0  0  0  0  0  0  0  0  0
  153.5929  138.8410  183.4048 C   0  0  0  0  0  0  0  0  0  0  0  0
  154.2276  139.3164  184.7473 C   0  0  0  0  0  0  0  0  0  0  0  0
  154.2293  138.2773  185.7306 C   0  0  0  0  0  0  0  0  0  0  0  0
  153.8060  137.1289  185.6034 O   0  0  0  0  0  0  0  0  0  0  0  0
  154.7939  138.6108  187.0349 N   0  0  0  0  0  0  0  0  0  0  0  0
  155.1574  139.5771  187.1591 H   0  0  0  0  0  0  0  0  0  0  0  0
  154.8368  137.6213  188.0984 C   0  0  0  0  0  0  0  0  0  0  0  0
  153.6285  137.8311  188.9334 C   0  0  0  0  0  0  0  0  0  0  0  0
  152.7059  137.0507  188.8890 O   0  0  0  0  0  0  0  0  0  0  0  0
  156.1065  137.8516  188.8770 C   0  0  0  0  0  0  0  0  0  0  0  0
  156.5030  136.6910  189.6957 C   0  0  0  0  0  0  0  0  0  0  0  0
  156.3643  136.7427  191.0685 C   0  0  0  0  0  0  0  0  0  0  0  0
  156.7220  135.6805  191.8864 C   0  0  0  0  0  0  0  0  0  0  0  0
  157.2356  134.5208  191.3458 C   0  0  0  0  0  0  0  0  0  0  0  0
  157.3793  134.4560  189.9761 C   0  0  0  0  0  0  0  0  0  0  0  0
  157.0182  135.5260  189.1593 C   0  0  0  0  0  0  0  0  0  0  0  0
  159.7124  141.8721  184.3188 C   0  0  0  0  0  0  0  0  0  0  0  0
  159.1785  142.9088  183.8638 O   0  0  0  0  0  0  0  0  0  0  0  0
  159.0259  140.6405  184.1741 N   0  0  0  0  0  0  0  0  0  0  0  0
  159.4506  139.7692  184.5469 H   0  0  0  0  0  0  0  0  0  0  0  0
  160.9371  142.0081  184.9305 O   0  0  0  0  0  0  0  0  0  0  0  0
  160.0333  142.7898  187.0511 C   0  0  0  0  0  0  0  0  0  0  0  0
  161.1305  142.8361  186.0208 C   0  0  0  0  0  0  0  0  0  0  0  0
  162.4319  142.6042  186.7636 C   0  0  0  0  0  0  0  0  0  0  0  0
  161.1957  144.2724  185.4965 C   0  0  0  0  0  0  0  0  0  0  0  0
  157.9872  139.8502  182.1921 C   0  0  0  0  0  0  0  0  0  0  0  0
  158.6905  140.7681  181.2157 C   0  0  0  0  0  0  0  0  0  0  0  0
  157.6893  141.6834  180.5701 C   0  0  0  0  0  0  0  0  0  0  0  0
  157.7190  143.0204  181.1173 N   0  0  0  0  0  0  0  0  0  0  0  0
  157.0043  143.4156  181.7491 H   0  0  0  0  0  0  0  0  0  0  0  0
  158.8248  143.8397  180.7461 C   0  0  0  0  0  0  0  0  0  0  0  0
  159.5631  143.6706  179.5457 N   0  0  0  0  0  0  0  0  0  0  0  0
  159.2112  144.8152  181.5335 N   0  0  0  0  0  0  0  0  0  0  0  0
  159.0587  143.7720  178.6447 H   0  0  0  0  0  0  0  0  0  0  0  0
  160.5735  143.4525  179.5312 H   0  0  0  0  0  0  0  0  0  0  0  0
  158.6849  144.9633  182.4263 H   0  0  0  0  0  0  0  0  0  0  0  0
 28 29  1  0  0  0
 29 30  1  0  0  0
 29 31  1  0  0  0
 29 27  1  0  0  0
 27 23  1  0  0  0
 23 24  2  0  0  0
 23 25  1  0  0  0
 25  1  1  0  0  0
  1 32  1  0  0  0
 32 33  1  0  0  0
 33 34  1  0  0  0
 34 35  1  0  0  0
 35 37  1  0  0  0
 37 38  1  0  0  0
 37 39  2  0  0  0
  1  2  1  0  0  0
  2  3  2  0  0  0
  2  4  1  0  0  0
  4  5  1  0  0  0
  5  6  1  0  0  0
  6  7  1  0  0  0
  7  8  1  0  0  0
  8  9  1  0  0  0
  9 10  2  0  0  0
  9 11  1  0  0  0
 11 13  1  0  0  0
 13 16  1  0  0  0
 16 17  1  0  0  0
 17 18  2  0  0  0
 18 19  1  0  0  0
 19 20  2  0  0  0
 20 21  1  0  0  0
 21 22  2  0  0  0
 13 14  1  0  0  0
 14 15  2  0  0  0
  8  4  1  0  0  0
 22 17  1  0  0  0
 25 26  1  0  0  0
 35 36  1  0  0  0
 38 40  1  0  0  0
 38 41  1  0  0  0
 39 42  1  0  0  0
 11 12  1  0  0  0
M  END
> <minimizedAffinity>
-7.60240

> <CNNscore>
0.3402239084

> <CNNaffinity>
6.9427084923

> <CNN_VS>
2.3620753288

> <CNNaffinity_variance>
0.0191869698

$$$$
[H]N=C(N([H])[H])N([H])C([H])([H])C([H])([H])C([H])([H])[C@@]([H])(C(=O)N1C([H])([H])C([H])([H])C([H])([H])[C@@]1([H])C(=O)N([H])[C@]([H])(C([H])=O)C([H])([H])c1c([H])c([H])c([H])c([H])c1[H])N([H])C(=O)OC(C([H])([H])[H])(C([H])([H])[H])C([H])([H])[H]


 42 43  0  0  0  0  0  0  0  0999 V2000
  155.1689  136.8268  187.6904 C   0  0  0  0  0  0  0  0  0  0  0  0
  155.3784  137.7666  186.5422 C   0  0  0  0  0  0  0  0  0  0  0  0
  156.1469  138.7293  186.8048 O   0  0  0  0  0  0  0  0  0  0  0  0
  154.7958  137.6186  185.3004 N   0  0  0  0  0  0  0  0  0  0  0  0
  153.9635  136.4259  184.9631 C   0  0  0  0  0  0  0  0  0  0  0  0
  152.7222  137.1217  184.4780 C   0  0  0  0  0  0  0  0  0  0  0  0
  153.1532  138.5392  184.0730 C   0  0  0  0  0  0  0  0  0  0  0  0
  154.6997  138.3449  184.1134 C   0  0  0  0  0  0  0  0  0  0  0  0
  155.3949  139.5665  183.8472 C   0  0  0  0  0  0  0  0  0  0  0  0
  154.9045  140.6818  183.6741 O   0  0  0  0  0  0  0  0  0  0  0  0
  156.8506  139.4881  183.7693 N   0  0  0  0  0  0  0  0  0  0  0  0
  157.2817  138.5530  183.9145 H   0  0  0  0  0  0  0  0  0  0  0  0
  157.6430  140.6763  183.5002 C   0  0  0  0  0  0  0  0  0  0  0  0
  157.8463  141.3640  184.7990 C   0  0  0  0  0  0  0  0  0  0  0  0
  158.7729  141.0648  185.5161 O   0  0  0  0  0  0  0  0  0  0  0  0
  156.8651  141.5261  182.5286 C   0  0  0  0  0  0  0  0  0  0  0  0
  157.7271  142.3108  181.6256 C   0  0  0  0  0  0  0  0  0  0  0  0
  158.0893  141.7881  180.3999 C   0  0  0  0  0  0  0  0  0  0  0  0
  158.8985  142.4826  179.5120 C   0  0  0  0  0  0  0  0  0  0  0  0
  159.3743  143.7369  179.8303 C   0  0  0  0  0  0  0  0  0  0  0  0
  159.0200  144.2705  181.0513 C   0  0  0  0  0  0  0  0  0  0  0  0
  158.2069  143.5685  181.9392 C   0  0  0  0  0  0  0  0  0  0  0  0
  156.6046  135.0247  188.6868 C   0  0  0  0  0  0  0  0  0  0  0  0
  155.6484  134.2252  188.5714 O   0  0  0  0  0  0  0  0  0  0  0  0
  156.4211  136.3626  188.2562 N   0  0  0  0  0  0  0  0  0  0  0  0
  157.2029  137.0409  188.3411 H   0  0  0  0  0  0  0  0  0  0  0  0
  157.7724  134.5394  189.2283 O   0  0  0  0  0  0  0  0  0  0  0  0
  159.3569  132.6917  189.2414 C   0  0  0  0  0  0  0  0  0  0  0  0
  158.6818  133.8071  188.4879 C   0  0  0  0  0  0  0  0  0  0  0  0
  158.1138  133.1932  187.2230 C   0  0  0  0  0  0  0  0  0  0  0  0
  159.7794  134.7709  188.0313 C   0  0  0  0  0  0  0  0  0  0  0  0
  154.4336  137.5288  188.8231 C   0  0  0  0  0  0  0  0  0  0  0  0
  153.3394  136.6520  189.3927 C   0  0  0  0  0  0  0  0  0  0  0  0
  152.5446  136.0424  188.2731 C   0  0  0  0  0  0  0  0  0  0  0  0
  151.1220  136.0541  188.5258 N   0  0  0  0  0  0  0  0  0  0  0  0
  150.4329  136.6112  187.9958 H   0  0  0  0  0  0  0  0  0  0  0  0
  150.6539  135.2290  189.5898 C   0  0  0  0  0  0  0  0  0  0  0  0
  151.0668  133.8851  189.7851 N   0  0  0  0  0  0  0  0  0  0  0  0
  149.7920  135.7041  190.4571 N   0  0  0  0  0  0  0  0  0  0  0  0
  152.0740  133.7045  189.9564 H   0  0  0  0  0  0  0  0  0  0  0  0
  150.4119  133.0855  189.7642 H   0  0  0  0  0  0  0  0  0  0  0  0
  149.4695  136.6930  190.3377 H   0  0  0  0  0  0  0  0  0  0  0  0
 28 29  1  0  0  0
 29 30  1  0  0  0
 29 31  1  0  0  0
 29 27  1  0  0  0
 27 23  1  0  0  0
 23 24  2  0  0  0
 23 25  1  0  0  0
 25  1  1  0  0  0
  1 32  1  0  0  0
 32 33  1  0  0  0
 33 34  1  0  0  0
 34 35  1  0  0  0
 35 37  1  0  0  0
 37 38  1  0  0  0
 37 39  2  0  0  0
  1  2  1  0  0  0
  2  3  2  0  0  0
  2  4  1  0  0  0
  4  5  1  0  0  0
  5  6  1  0  0  0
  6  7  1  0  0  0
  7  8  1  0  0  0
  8  9  1  0  0  0
  9 10  2  0  0  0
  9 11  1  0  0  0
 11 13  1  0  0  0
 13 16  1  0  0  0
 16 17  1  0  0  0
 17 18  2  0  0  0
 18 19  1  0  0  0
 19 20  2  0  0  0
 20 21  1  0  0  0
 21 22  2  0  0  0
 13 14  1  0  0  0
 14 15  2  0  0  0
  8  4  1  0  0  0
 22 17  1  0  0  0
 25 26  1  0  0  0
 35 36  1  0  0  0
 38 40  1  0  0  0
 38 41  1  0  0  0
 39 42  1  0  0  0
 11 12  1  0  0  0
M  END
> <minimizedAffinity>
-6.20860

> <CNNscore>
0.3395969272

> <CNNaffinity>
5.9770727158

> <CNN_VS>
2.0297956467

> <CNNaffinity_variance>
0.0455738679

$$$$
[H]N=C(N([H])[H])N([H])C([H])([H])C([H])([H])C([H])([H])[C@@]([H])(C(=O)N1C([H])([H])C([H])([H])C([H])([H])[C@@]1([H])C(=O)N([H])[C@]([H])(C([H])=O)C([H])([H])c1c([H])c([H])c([H])c([H])c1[H])N([H])C(=O)OC(C([H])([H])[H])(C([H])([H])[H])C([H])([H])[H]


 42 43  0  0  0  0  0  0  0  0999 V2000
  155.4206  137.5129  186.9287 C   0  0  0  0  0  0  0  0  0  0  0  0
  155.8341  138.5264  185.9053 C   0  0  0  0  0  0  0  0  0  0  0  0
  156.7668  139.2830  186.2846 O   0  0  0  0  0  0  0  0  0  0  0  0
  155.2635  138.6456  184.6549 N   0  0  0  0  0  0  0  0  0  0  0  0
  154.2257  137.6865  184.1731 C   0  0  0  0  0  0  0  0  0  0  0  0
  153.1531  138.6631  183.7779 C   0  0  0  0  0  0  0  0  0  0  0  0
  153.8580  140.0087  183.5509 C   0  0  0  0  0  0  0  0  0  0  0  0
  155.3370  139.5151  183.5667 C   0  0  0  0  0  0  0  0  0  0  0  0
  156.2601  140.6021  183.4532 C   0  0  0  0  0  0  0  0  0  0  0  0
  156.1345  141.7384  183.9084 O   0  0  0  0  0  0  0  0  0  0  0  0
  157.4916  140.3410  182.7139 N   0  0  0  0  0  0  0  0  0  0  0  0
  157.6144  139.3851  182.3233 H   0  0  0  0  0  0  0  0  0  0  0  0
  158.4885  141.3846  182.5433 C   0  0  0  0  0  0  0  0  0  0  0  0
  158.6043  141.6382  181.0860 C   0  0  0  0  0  0  0  0  0  0  0  0
  158.0530  140.9148  180.2892 O   0  0  0  0  0  0  0  0  0  0  0  0
  159.7794  140.8747  183.1306 C   0  0  0  0  0  0  0  0  0  0  0  0
  160.1489  141.5471  184.3898 C   0  0  0  0  0  0  0  0  0  0  0  0
  161.4116  142.0873  184.5320 C   0  0  0  0  0  0  0  0  0  0  0  0
  161.8121  142.7301  185.6947 C   0  0  0  0  0  0  0  0  0  0  0  0
  160.9482  142.8518  186.7623 C   0  0  0  0  0  0  0  0  0  0  0  0
  159.6840  142.3167  186.6334 C   0  0  0  0  0  0  0  0  0  0  0  0
  159.2870  141.6722  185.4632 C   0  0  0  0  0  0  0  0  0  0  0  0
  156.5522  135.6829  188.2219 C   0  0  0  0  0  0  0  0  0  0  0  0
  155.5395  134.9659  188.0569 O   0  0  0  0  0  0  0  0  0  0  0  0
  156.5510  136.9891  187.6713 N   0  0  0  0  0  0  0  0  0  0  0  0
  157.3825  137.5989  187.7948 H   0  0  0  0  0  0  0  0  0  0  0  0
  157.5997  135.1435  188.9321 O   0  0  0  0  0  0  0  0  0  0  0  0
  158.0089  133.4630  187.2195 C   0  0  0  0  0  0  0  0  0  0  0  0
  158.5347  134.3079  188.3497 C   0  0  0  0  0  0  0  0  0  0  0  0
  159.7690  135.0146  187.8241 C   0  0  0  0  0  0  0  0  0  0  0  0
  159.0292  133.3498  189.4359 C   0  0  0  0  0  0  0  0  0  0  0  0
  154.5002  138.1472  187.9618 C   0  0  0  0  0  0  0  0  0  0  0  0
  153.1532  137.4579  187.9924 C   0  0  0  0  0  0  0  0  0  0  0  0
  152.8737  136.9539  189.3797 C   0  0  0  0  0  0  0  0  0  0  0  0
  153.9558  137.2186  190.2999 N   0  0  0  0  0  0  0  0  0  0  0  0
  154.5482  138.0641  190.2869 H   0  0  0  0  0  0  0  0  0  0  0  0
  154.2091  136.2272  191.2923 C   0  0  0  0  0  0  0  0  0  0  0  0
  155.2834  135.3020  191.2260 N   0  0  0  0  0  0  0  0  0  0  0  0
  153.4260  136.1343  192.3407 N   0  0  0  0  0  0  0  0  0  0  0  0
  156.2504  135.6778  191.2133 H   0  0  0  0  0  0  0  0  0  0  0  0
  155.1444  134.2783  191.1900 H   0  0  0  0  0  0  0  0  0  0  0  0
  152.6249  136.8040  192.4162 H   0  0  0  0  0  0  0  0  0  0  0  0
 28 29  1  0  0  0
 29 30  1  0  0  0
 29 31  1  0  0  0
 29 27  1  0  0  0
 27 23  1  0  0  0
 23 24  2  0  0  0
 23 25  1  0  0  0
 25  1  1  0  0  0
  1 32  1  0  0  0
 32 33  1  0  0  0
 33 34  1  0  0  0
 34 35  1  0  0  0
 35 37  1  0  0  0
 37 38  1  0  0  0
 37 39  2  0  0  0
  1  2  1  0  0  0
  2  3  2  0  0  0
  2  4  1  0  0  0
  4  5  1  0  0  0
  5  6  1  0  0  0
  6  7  1  0  0  0
  7  8  1  0  0  0
  8  9  1  0  0  0
  9 10  2  0  0  0
  9 11  1  0  0  0
 11 13  1  0  0  0
 13 16  1  0  0  0
 16 17  1  0  0  0
 17 18  2  0  0  0
 18 19  1  0  0  0
 19 20  2  0  0  0
 20 21  1  0  0  0
 21 22  2  0  0  0
 13 14  1  0  0  0
 14 15  2  0  0  0
  8  4  1  0  0  0
 22 17  1  0  0  0
 25 26  1  0  0  0
 35 36  1  0  0  0
 38 40  1  0  0  0
 38 41  1  0  0  0
 39 42  1  0  0  0
 11 12  1  0  0  0
M  END
> <minimizedAffinity>
-7.45957

> <CNNscore>
0.2833301127

> <CNNaffinity>
6.2934808731

> <CNN_VS>
1.7831326723

> <CNNaffinity_variance>
0.0663052425

$$$$
[H]N=C(N([H])[H])N([H])C([H])([H])C([H])([H])C([H])([H])[C@@]([H])(C(=O)N1C([H])([H])C([H])([H])C([H])([H])[C@@]1([H])C(=O)N([H])[C@]([H])(C([H])=O)C([H])([H])c1c([H])c([H])c([H])c([H])c1[H])N([H])C(=O)OC(C([H])([H])[H])(C([H])([H])[H])C([H])([H])[H]


 42 43  0  0  0  0  0  0  0  0999 V2000
  154.0781  138.3024  185.2296 C   0  0  0  0  0  0  0  0  0  0  0  0
  154.8947  139.3174  184.4891 C   0  0  0  0  0  0  0  0  0  0  0  0
  155.9181  139.7029  185.1140 O   0  0  0  0  0  0  0  0  0  0  0  0
  154.5796  139.8054  183.2378 N   0  0  0  0  0  0  0  0  0  0  0  0
  153.4203  139.2760  182.4600 C   0  0  0  0  0  0  0  0  0  0  0  0
  152.7112  140.5686  182.1655 C   0  0  0  0  0  0  0  0  0  0  0  0
  153.7647  141.6782  182.2994 C   0  0  0  0  0  0  0  0  0  0  0  0
  155.0455  140.7917  182.3683 C   0  0  0  0  0  0  0  0  0  0  0  0
  156.2226  141.5761  182.5818 C   0  0  0  0  0  0  0  0  0  0  0  0
  156.3144  142.6268  183.2156 O   0  0  0  0  0  0  0  0  0  0  0  0
  157.4576  141.0806  181.9814 N   0  0  0  0  0  0  0  0  0  0  0  0
  157.3981  140.1928  181.4431 H   0  0  0  0  0  0  0  0  0  0  0  0
  158.7039  141.8107  182.1413 C   0  0  0  0  0  0  0  0  0  0  0  0
  159.2336  142.0660  180.7791 C   0  0  0  0  0  0  0  0  0  0  0  0
  158.5700  141.8077  179.8018 O   0  0  0  0  0  0  0  0  0  0  0  0
  159.6323  140.9448  182.9535 C   0  0  0  0  0  0  0  0  0  0  0  0
  159.9892  141.5392  184.2549 C   0  0  0  0  0  0  0  0  0  0  0  0
  161.2489  142.0731  184.4407 C   0  0  0  0  0  0  0  0  0  0  0  0
  161.6378  142.6439  185.6442 C   0  0  0  0  0  0  0  0  0  0  0  0
  160.7648  142.6970  186.7100 C   0  0  0  0  0  0  0  0  0  0  0  0
  159.5035  142.1673  186.5377 C   0  0  0  0  0  0  0  0  0  0  0  0
  159.1182  141.5953  185.3266 C   0  0  0  0  0  0  0  0  0  0  0  0
  153.1431  136.0813  184.5267 C   0  0  0  0  0  0  0  0  0  0  0  0
  152.0044  136.4741  184.8673 O   0  0  0  0  0  0  0  0  0  0  0  0
  154.2382  136.9667  184.6875 N   0  0  0  0  0  0  0  0  0  0  0  0
  155.1907  136.6609  184.4087 H   0  0  0  0  0  0  0  0  0  0  0  0
  153.2463  134.8075  184.0174 O   0  0  0  0  0  0  0  0  0  0  0  0
  152.8022  135.6644  181.7828 C   0  0  0  0  0  0  0  0  0  0  0  0
  153.3283  134.5591  182.6597 C   0  0  0  0  0  0  0  0  0  0  0  0
  154.7245  134.2392  182.1622 C   0  0  0  0  0  0  0  0  0  0  0  0
  152.4841  133.3154  182.3720 C   0  0  0  0  0  0  0  0  0  0  0  0
  154.5247  138.2198  186.6824 C   0  0  0  0  0  0  0  0  0  0  0  0
  153.3431  138.3014  187.6245 C   0  0  0  0  0  0  0  0  0  0  0  0
  153.7532  137.8361  188.9928 C   0  0  0  0  0  0  0  0  0  0  0  0
  154.8510  138.6010  189.5382 N   0  0  0  0  0  0  0  0  0  0  0  0
  154.8779  139.6312  189.6032 H   0  0  0  0  0  0  0  0  0  0  0  0
  155.9712  137.8610  190.0172 C   0  0  0  0  0  0  0  0  0  0  0  0
  156.5675  136.7861  189.3075 N   0  0  0  0  0  0  0  0  0  0  0  0
  156.5083  138.1615  191.1757 N   0  0  0  0  0  0  0  0  0  0  0  0
  156.9726  136.9840  188.3731 H   0  0  0  0  0  0  0  0  0  0  0  0
  156.6148  135.8226  189.6791 H   0  0  0  0  0  0  0  0  0  0  0  0
  156.0889  138.9503  191.7216 H   0  0  0  0  0  0  0  0  0  0  0  0
 28 29  1  0  0  0
 29 30  1  0  0  0
 29 31  1  0  0  0
 29 27  1  0  0  0
 27 23  1  0  0  0
 23 24  2  0  0  0
 23 25  1  0  0  0
 25  1  1  0  0  0
  1 32  1  0  0  0
 32 33  1  0  0  0
 33 34  1  0  0  0
 34 35  1  0  0  0
 35 37  1  0  0  0
 37 38  1  0  0  0
 37 39  2  0  0  0
  1  2  1  0  0  0
  2  3  2  0  0  0
  2  4  1  0  0  0
  4  5  1  0  0  0
  5  6  1  0  0  0
  6  7  1  0  0  0
  7  8  1  0  0  0
  8  9  1  0  0  0
  9 10  2  0  0  0
  9 11  1  0  0  0
 11 13  1  0  0  0
 13 16  1  0  0  0
 16 17  1  0  0  0
 17 18  2  0  0  0
 18 19  1  0  0  0
 19 20  2  0  0  0
 20 21  1  0  0  0
 21 22  2  0  0  0
 13 14  1  0  0  0
 14 15  2  0  0  0
  8  4  1  0  0  0
 22 17  1  0  0  0
 25 26  1  0  0  0
 35 36  1  0  0  0
 38 40  1  0  0  0
 38 41  1  0  0  0
 39 42  1  0  0  0
 11 12  1  0  0  0
M  END
> <minimizedAffinity>
-7.68111

> <CNNscore>
0.2776502967

> <CNNaffinity>
6.4766006470

> <CNN_VS>
1.7982300520

> <CNNaffinity_variance>
0.0150723457

$$$$
[H]N=C(N([H])[H])N([H])C([H])([H])C([H])([H])C([H])([H])[C@@]([H])(C(=O)N1C([H])([H])C([H])([H])C([H])([H])[C@@]1([H])C(=O)N([H])[C@]([H])(C([H])=O)C([H])([H])c1c([H])c([H])c([H])c([H])c1[H])N([H])C(=O)OC(C([H])([H])[H])(C([H])([H])[H])C([H])([H])[H]


 42 43  0  0  0  0  0  0  0  0999 V2000
  154.3377  139.2482  184.0197 C   0  0  0  0  0  0  0  0  0  0  0  0
  154.1112  137.8368  184.4697 C   0  0  0  0  0  0  0  0  0  0  0  0
  154.0887  136.9991  183.5295 O   0  0  0  0  0  0  0  0  0  0  0  0
  153.9381  137.4589  185.7852 N   0  0  0  0  0  0  0  0  0  0  0  0
  154.0614  138.4394  186.9044 C   0  0  0  0  0  0  0  0  0  0  0  0
  152.7461  138.1955  187.5907 C   0  0  0  0  0  0  0  0  0  0  0  0
  152.2886  136.7941  187.1597 C   0  0  0  0  0  0  0  0  0  0  0  0
  153.6080  136.3016  186.4906 C   0  0  0  0  0  0  0  0  0  0  0  0
  153.4538  135.0060  185.9039 C   0  0  0  0  0  0  0  0  0  0  0  0
  152.4052  134.3866  185.7277 O   0  0  0  0  0  0  0  0  0  0  0  0
  154.6743  134.3368  185.4639 N   0  0  0  0  0  0  0  0  0  0  0  0
  155.5696  134.8468  185.6043 H   0  0  0  0  0  0  0  0  0  0  0  0
  154.6183  133.0167  184.8587 C   0  0  0  0  0  0  0  0  0  0  0  0
  154.6934  132.0303  185.9644 C   0  0  0  0  0  0  0  0  0  0  0  0
  155.4627  132.1922  186.8831 O   0  0  0  0  0  0  0  0  0  0  0  0
  155.7920  132.9013  183.9202 C   0  0  0  0  0  0  0  0  0  0  0  0
  155.4631  133.2746  182.5321 C   0  0  0  0  0  0  0  0  0  0  0  0
  154.2024  133.7511  182.2321 C   0  0  0  0  0  0  0  0  0  0  0  0
  153.8392  134.1161  180.9436 C   0  0  0  0  0  0  0  0  0  0  0  0
  154.7401  134.0132  179.9050 C   0  0  0  0  0  0  0  0  0  0  0  0
  156.0027  133.5388  180.1910 C   0  0  0  0  0  0  0  0  0  0  0  0
  156.3621  133.1736  181.4871 C   0  0  0  0  0  0  0  0  0  0  0  0
  156.1336  141.0021  184.0200 C   0  0  0  0  0  0  0  0  0  0  0  0
  155.2619  141.8678  183.7803 O   0  0  0  0  0  0  0  0  0  0  0  0
  155.7245  139.6514  184.1523 N   0  0  0  0  0  0  0  0  0  0  0  0
  156.4319  138.9183  184.3538 H   0  0  0  0  0  0  0  0  0  0  0  0
  157.4353  141.4314  184.1379 O   0  0  0  0  0  0  0  0  0  0  0  0
  159.1607  139.7475  183.8035 C   0  0  0  0  0  0  0  0  0  0  0  0
  158.4421  140.9744  183.3078 C   0  0  0  0  0  0  0  0  0  0  0  0
  157.9993  140.6732  181.8892 C   0  0  0  0  0  0  0  0  0  0  0  0
  159.4825  142.0911  183.1955 C   0  0  0  0  0  0  0  0  0  0  0  0
  153.9996  139.3948  182.5430 C   0  0  0  0  0  0  0  0  0  0  0  0
  152.5381  139.7355  182.3466 C   0  0  0  0  0  0  0  0  0  0  0  0
  151.9789  138.9301  181.2084 C   0  0  0  0  0  0  0  0  0  0  0  0
  150.6194  139.2935  180.8805 N   0  0  0  0  0  0  0  0  0  0  0  0
  149.8731  139.4721  181.5714 H   0  0  0  0  0  0  0  0  0  0  0  0
  150.3041  139.4093  179.4952 C   0  0  0  0  0  0  0  0  0  0  0  0
  149.2914  138.6515  178.8514 N   0  0  0  0  0  0  0  0  0  0  0  0
  150.9664  140.2538  178.7407 N   0  0  0  0  0  0  0  0  0  0  0  0
  148.3147  138.7609  179.1840 H   0  0  0  0  0  0  0  0  0  0  0  0
  149.4840  138.0006  178.0717 H   0  0  0  0  0  0  0  0  0  0  0  0
  151.7197  140.8263  179.1889 H   0  0  0  0  0  0  0  0  0  0  0  0
 28 29  1  0  0  0
 29 30  1  0  0  0
 29 31  1  0  0  0
 29 27  1  0  0  0
 27 23  1  0  0  0
 23 24  2  0  0  0
 23 25  1  0  0  0
 25  1  1  0  0  0
  1 32  1  0  0  0
 32 33  1  0  0  0
 33 34  1  0  0  0
 34 35  1  0  0  0
 35 37  1  0  0  0
 37 38  1  0  0  0
 37 39  2  0  0  0
  1  2  1  0  0  0
  2  3  2  0  0  0
  2  4  1  0  0  0
  4  5  1  0  0  0
  5  6  1  0  0  0
  6  7  1  0  0  0
  7  8  1  0  0  0
  8  9  1  0  0  0
  9 10  2  0  0  0
  9 11  1  0  0  0
 11 13  1  0  0  0
 13 16  1  0  0  0
 16 17  1  0  0  0
 17 18  2  0  0  0
 18 19  1  0  0  0
 19 20  2  0  0  0
 20 21  1  0  0  0
 21 22  2  0  0  0
 13 14  1  0  0  0
 14 15  2  0  0  0
  8  4  1  0  0  0
 22 17  1  0  0  0
 25 26  1  0  0  0
 35 36  1  0  0  0
 38 40  1  0  0  0
 38 41  1  0  0  0
 39 42  1  0  0  0
 11 12  1  0  0  0
M  END
> <minimizedAffinity>
-5.75608

> <CNNscore>
0.2730293870

> <CNNaffinity>
5.9698066711

> <CNN_VS>
1.6299326420

> <CNNaffinity_variance>
0.0533015504

$$$$
[H]N=C(N([H])[H])N([H])C([H])([H])C([H])([H])C([H])([H])[C@@]([H])(C(=O)N1C([H])([H])C([H])([H])C([H])([H])[C@@]1([H])C(=O)N([H])[C@]([H])(C([H])=O)C([H])([H])c1c([H])c([H])c([H])c([H])c1[H])N([H])C(=O)OC(C([H])([H])[H])(C([H])([H])[H])C([H])([H])[H]


 42 43  0  0  0  0  0  0  0  0999 V2000
  153.1100  135.9886  184.0686 C   0  0  0  0  0  0  0  0  0  0  0  0
  152.8715  135.6861  185.5168 C   0  0  0  0  0  0  0  0  0  0  0  0
  152.0062  134.7928  185.7155 O   0  0  0  0  0  0  0  0  0  0  0  0
  153.5229  136.3127  186.5591 N   0  0  0  0  0  0  0  0  0  0  0  0
  154.6158  137.3010  186.3184 C   0  0  0  0  0  0  0  0  0  0  0  0
  154.0886  138.4524  187.1287 C   0  0  0  0  0  0  0  0  0  0  0  0
  153.1065  137.8504  188.1446 C   0  0  0  0  0  0  0  0  0  0  0  0
  153.4501  136.3418  187.9518 C   0  0  0  0  0  0  0  0  0  0  0  0
  152.6046  135.5001  188.7412 C   0  0  0  0  0  0  0  0  0  0  0  0
  152.9503  134.5860  189.4890 O   0  0  0  0  0  0  0  0  0  0  0  0
  151.1685  135.7470  188.6532 N   0  0  0  0  0  0  0  0  0  0  0  0
  150.8591  136.5170  188.0265 H   0  0  0  0  0  0  0  0  0  0  0  0
  150.2302  134.9412  189.4163 C   0  0  0  0  0  0  0  0  0  0  0  0
  149.2146  134.4372  188.4592 C   0  0  0  0  0  0  0  0  0  0  0  0
  149.3533  133.3622  187.9233 O   0  0  0  0  0  0  0  0  0  0  0  0
  149.6204  135.8335  190.4667 C   0  0  0  0  0  0  0  0  0  0  0  0
  150.3705  135.8307  191.7362 C   0  0  0  0  0  0  0  0  0  0  0  0
  151.0735  136.9561  192.1180 C   0  0  0  0  0  0  0  0  0  0  0  0
  151.7965  137.0079  193.3013 C   0  0  0  0  0  0  0  0  0  0  0  0
  151.8365  135.9199  194.1472 C   0  0  0  0  0  0  0  0  0  0  0  0
  151.1387  134.7896  193.7778 C   0  0  0  0  0  0  0  0  0  0  0  0
  150.4141  134.7431  192.5881 C   0  0  0  0  0  0  0  0  0  0  0  0
  153.9113  133.9134  182.9054 C   0  0  0  0  0  0  0  0  0  0  0  0
  155.0533  134.1122  183.3779 O   0  0  0  0  0  0  0  0  0  0  0  0
  152.8809  134.8341  183.2211 N   0  0  0  0  0  0  0  0  0  0  0  0
  151.9258  134.6857  182.8411 H   0  0  0  0  0  0  0  0  0  0  0  0
  153.7414  132.8055  182.1076 O   0  0  0  0  0  0  0  0  0  0  0  0
  152.3181  133.0017  180.1429 C   0  0  0  0  0  0  0  0  0  0  0  0
  153.7009  132.8877  180.7281 C   0  0  0  0  0  0  0  0  0  0  0  0
  154.5143  134.0252  180.1416 C   0  0  0  0  0  0  0  0  0  0  0  0
  154.3187  131.6008  180.1763 C   0  0  0  0  0  0  0  0  0  0  0  0
  152.1436  137.0603  183.5845 C   0  0  0  0  0  0  0  0  0  0  0  0
  152.2368  137.2454  182.0853 C   0  0  0  0  0  0  0  0  0  0  0  0
  152.5069  138.6890  181.7691 C   0  0  0  0  0  0  0  0  0  0  0  0
  152.3730  138.9882  180.3618 N   0  0  0  0  0  0  0  0  0  0  0  0
  153.0928  138.7969  179.6467 H   0  0  0  0  0  0  0  0  0  0  0  0
  151.1495  139.5920  179.9493 C   0  0  0  0  0  0  0  0  0  0  0  0
  149.9529  139.5486  180.7114 N   0  0  0  0  0  0  0  0  0  0  0  0
  151.0877  140.2328  178.8062 N   0  0  0  0  0  0  0  0  0  0  0  0
  149.9606  139.9776  181.6560 H   0  0  0  0  0  0  0  0  0  0  0  0
  149.0813  139.1114  180.3680 H   0  0  0  0  0  0  0  0  0  0  0  0
  151.9555  140.2809  178.2226 H   0  0  0  0  0  0  0  0  0  0  0  0
 28 29  1  0  0  0
 29 30  1  0  0  0
 29 31  1  0  0  0
 29 27  1  0  0  0
 27 23  1  0  0  0
 23 24  2  0  0  0
 23 25  1  0  0  0
 25  1  1  0  0  0
  1 32  1  0  0  0
 32 33  1  0  0  0
 33 34  1  0  0  0
 34 35  1  0  0  0
 35 37  1  0  0  0
 37 38  1  0  0  0
 37 39  2  0  0  0
  1  2  1  0  0  0
  2  3  2  0  0  0
  2  4  1  0  0  0
  4  5  1  0  0  0
  5  6  1  0  0  0
  6  7  1  0  0  0
  7  8  1  0  0  0
  8  9  1  0  0  0
  9 10  2  0  0  0
  9 11  1  0  0  0
 11 13  1  0  0  0
 13 16  1  0  0  0
 16 17  1  0  0  0
 17 18  2  0  0  0
 18 19  1  0  0  0
 19 20  2  0  0  0
 20 21  1  0  0  0
 21 22  2  0  0  0
 13 14  1  0  0  0
 14 15  2  0  0  0
  8  4  1  0  0  0
 22 17  1  0  0  0
 25 26  1  0  0  0
 35 36  1  0  0  0
 38 40  1  0  0  0
 38 41  1  0  0  0
 39 42  1  0  0  0
 11 12  1  0  0  0
M  END
> <minimizedAffinity>
-4.97423

> <CNNscore>
0.2591403127

> <CNNaffinity>
5.2217073441

> <CNN_VS>
1.3531548977

> <CNNaffinity_variance>
0.0752181932

$$$$
[H]N=C(N([H])[H])N([H])C([H])([H])C([H])([H])C([H])([H])[C@@]([H])(C(=O)N1C([H])([H])C([H])([H])C([H])([H])[C@@]1([H])C(=O)N([H])[C@]([H])(C([H])=O)C([H])([H])c1c([H])c([H])c([H])c([H])c1[H])N([H])C(=O)OC(C([H])([H])[H])(C([H])([H])[H])C([H])([H])[H]


 42 43  0  0  0  0  0  0  0  0999 V2000
  153.1025  137.1870  186.7469 C   0  0  0  0  0  0  0  0  0  0  0  0
  153.8811  138.1242  185.8745 C   0  0  0  0  0  0  0  0  0  0  0  0
  154.5737  138.9595  186.5139 O   0  0  0  0  0  0  0  0  0  0  0  0
  153.8602  138.1003  184.4952 N   0  0  0  0  0  0  0  0  0  0  0  0
  153.1149  137.0489  183.7415 C   0  0  0  0  0  0  0  0  0  0  0  0
  152.2809  137.9287  182.8523 C   0  0  0  0  0  0  0  0  0  0  0  0
  153.0021  139.2832  182.7875 C   0  0  0  0  0  0  0  0  0  0  0  0
  154.3553  138.8707  183.4430 C   0  0  0  0  0  0  0  0  0  0  0  0
  155.2336  139.9896  183.5955 C   0  0  0  0  0  0  0  0  0  0  0  0
  154.9335  141.1327  183.9382 O   0  0  0  0  0  0  0  0  0  0  0  0
  156.6467  139.7562  183.3126 N   0  0  0  0  0  0  0  0  0  0  0  0
  156.9179  138.7951  183.0228 H   0  0  0  0  0  0  0  0  0  0  0  0
  157.6147  140.8330  183.4371 C   0  0  0  0  0  0  0  0  0  0  0  0
  157.8283  141.3823  182.0755 C   0  0  0  0  0  0  0  0  0  0  0  0
  157.3624  140.8274  181.1074 O   0  0  0  0  0  0  0  0  0  0  0  0
  158.8766  140.2404  184.0098 C   0  0  0  0  0  0  0  0  0  0  0  0
  159.6837  141.2156  184.7660 C   0  0  0  0  0  0  0  0  0  0  0  0
  159.2271  141.6856  185.9813 C   0  0  0  0  0  0  0  0  0  0  0  0
  159.9453  142.6038  186.7340 C   0  0  0  0  0  0  0  0  0  0  0  0
  161.1574  143.0838  186.2851 C   0  0  0  0  0  0  0  0  0  0  0  0
  161.6249  142.6225  185.0728 C   0  0  0  0  0  0  0  0  0  0  0  0
  160.8993  141.7001  184.3211 C   0  0  0  0  0  0  0  0  0  0  0  0
  154.1591  136.3570  188.8672 C   0  0  0  0  0  0  0  0  0  0  0  0
  154.5227  135.3247  188.2598 O   0  0  0  0  0  0  0  0  0  0  0  0
  153.4326  137.3408  188.1507 N   0  0  0  0  0  0  0  0  0  0  0  0
  153.1240  138.2057  188.6358 H   0  0  0  0  0  0  0  0  0  0  0  0
  154.4954  136.4592  190.1973 O   0  0  0  0  0  0  0  0  0  0  0  0
  156.3715  136.6210  191.7397 C   0  0  0  0  0  0  0  0  0  0  0  0
  155.5533  137.2347  190.6345 C   0  0  0  0  0  0  0  0  0  0  0  0
  156.5291  137.6383  189.5463 C   0  0  0  0  0  0  0  0  0  0  0  0
  154.9675  138.5395  191.1791 C   0  0  0  0  0  0  0  0  0  0  0  0
  151.6117  137.4729  186.6347 C   0  0  0  0  0  0  0  0  0  0  0  0
  150.7955  136.2150  186.8396 C   0  0  0  0  0  0  0  0  0  0  0  0
  149.5788  136.2518  185.9591 C   0  0  0  0  0  0  0  0  0  0  0  0
  148.3479  136.0901  186.6984 N   0  0  0  0  0  0  0  0  0  0  0  0
  147.8683  135.1894  186.8566 H   0  0  0  0  0  0  0  0  0  0  0  0
  147.7677  137.2731  187.2421 C   0  0  0  0  0  0  0  0  0  0  0  0
  147.8581  138.5494  186.6279 N   0  0  0  0  0  0  0  0  0  0  0  0
  147.1051  137.2180  188.3730 N   0  0  0  0  0  0  0  0  0  0  0  0
  147.4489  138.6652  185.6815 H   0  0  0  0  0  0  0  0  0  0  0  0
  148.3106  139.3617  187.0796 H   0  0  0  0  0  0  0  0  0  0  0  0
  147.0222  136.2891  188.8488 H   0  0  0  0  0  0  0  0  0  0  0  0
 28 29  1  0  0  0
 29 30  1  0  0  0
 29 31  1  0  0  0
 29 27  1  0  0  0
 27 23  1  0  0  0
 23 24  2  0  0  0
 23 25  1  0  0  0
 25  1  1  0  0  0
  1 32  1  0  0  0
 32 33  1  0  0  0
 33 34  1  0  0  0
 34 35  1  0  0  0
 35 37  1  0  0  0
 37 38  1  0  0  0
 37 39  2  0  0  0
  1  2  1  0  0  0
  2  3  2  0  0  0
  2  4  1  0  0  0
  4  5  1  0  0  0
  5  6  1  0  0  0
  6  7  1  0  0  0
  7  8  1  0  0  0
  8  9  1  0  0  0
  9 10  2  0  0  0
  9 11  1  0  0  0
 11 13  1  0  0  0
 13 16  1  0  0  0
 16 17  1  0  0  0
 17 18  2  0  0  0
 18 19  1  0  0  0
 19 20  2  0  0  0
 20 21  1  0  0  0
 21 22  2  0  0  0
 13 14  1  0  0  0
 14 15  2  0  0  0
  8  4  1  0  0  0
 22 17  1  0  0  0
 25 26  1  0  0  0
 35 36  1  0  0  0
 38 40  1  0  0  0
 38 41  1  0  0  0
 39 42  1  0  0  0
 11 12  1  0  0  0
M  END
> <minimizedAffinity>
-7.48649

> <CNNscore>
0.2439631671

> <CNNaffinity>
6.0779533386

> <CNN_VS>
1.4827967882

> <CNNaffinity_variance>
0.1110400558

$$$$
[H]c1nc([H])c(-c2c(-c3c([H])c([H])c([H])c([H])c3[H])nc3sc(N([H])C(=O)N([H])C([H])([H])C([H])([H])[H])nc3c2[H])c([H])c1[H]


 29 32  0  0  0  0  0  0  0  0999 V2000
  154.2286  138.4130  184.8466 C   0  0  0  0  0  0  0  0  0  0  0  0
  154.5925  139.3650  184.0060 N   0  0  0  0  0  0  0  0  0  0  0  0
  155.7663  139.9170  184.0947 C   0  0  0  0  0  0  0  0  0  0  0  0
  156.2924  140.9224  183.2461 C   0  0  0  0  0  0  0  0  0  0  0  0
  157.5761  141.3808  183.4821 C   0  0  0  0  0  0  0  0  0  0  0  0
  158.3678  140.9279  184.4917 C   0  0  0  0  0  0  0  0  0  0  0  0
  157.8551  139.9690  185.2870 N   0  0  0  0  0  0  0  0  0  0  0  0
  156.5947  139.4765  185.0978 C   0  0  0  0  0  0  0  0  0  0  0  0
  155.6068  138.2725  185.8440 S   0  0  0  0  0  0  0  0  0  0  0  0
  151.0824  137.2835  186.3443 N   0  0  0  0  0  0  0  0  0  0  0  0
  152.2520  137.9560  186.2469 C   0  0  0  0  0  0  0  0  0  0  0  0
  152.8241  138.7280  187.0731 O   0  0  0  0  0  0  0  0  0  0  0  0
  152.9904  137.7491  184.9914 N   0  0  0  0  0  0  0  0  0  0  0  0
  151.0259  137.6460  187.6659 H   0  0  0  0  0  0  0  0  0  0  0  0
  152.6515  137.1704  184.2209 H   0  0  0  0  0  0  0  0  0  0  0  0
  148.7146  137.5910  186.5458 C   0  0  0  0  0  0  0  0  0  0  0  0
  149.8953  136.6051  186.4528 C   0  0  0  0  0  0  0  0  0  0  0  0
  158.1132  142.3172  182.5238 C   0  0  0  0  0  0  0  0  0  0  0  0
  158.5247  141.7288  181.3188 C   0  0  0  0  0  0  0  0  0  0  0  0
  159.0441  142.5150  180.3033 C   0  0  0  0  0  0  0  0  0  0  0  0
  159.1510  143.8779  180.5021 C   0  0  0  0  0  0  0  0  0  0  0  0
  158.7628  144.4561  181.6538 N   0  0  0  0  0  0  0  0  0  0  0  0
  158.2529  143.6599  182.6365 C   0  0  0  0  0  0  0  0  0  0  0  0
  159.6655  141.5213  184.7711 C   0  0  0  0  0  0  0  0  0  0  0  0
  159.7875  142.3334  185.9349 C   0  0  0  0  0  0  0  0  0  0  0  0
  160.9872  142.9272  186.2866 C   0  0  0  0  0  0  0  0  0  0  0  0
  162.0547  142.7050  185.4629 C   0  0  0  0  0  0  0  0  0  0  0  0
  161.9289  141.9077  184.3183 C   0  0  0  0  0  0  0  0  0  0  0  0
  160.7653  141.3229  183.9731 C   0  0  0  0  0  0  0  0  0  0  0  0
 16 17  1  0  0  0
 17 10  1  0  0  0
 10 11  1  0  0  0
 11 12  2  0  0  0
 11 13  1  0  0  0
 13  1  1  0  0  0
  1  2  2  0  0  0
  2  3  1  0  0  0
  3  4  2  0  0  0
  4  5  1  0  0  0
  5 18  1  0  0  0
 18 19  2  0  0  0
 19 20  1  0  0  0
 20 21  2  0  0  0
 21 22  1  0  0  0
 22 23  2  0  0  0
  5  6  2  0  0  0
  6  7  1  0  0  0
  7  8  2  0  0  0
  8  9  1  0  0  0
  6 24  1  0  0  0
 24 25  2  0  0  0
 25 26  1  0  0  0
 26 27  2  0  0  0
 27 28  1  0  0  0
 28 29  2  0  0  0
  9  1  1  0  0  0
 29 24  1  0  0  0
  8  3  1  0  0  0
 23 18  1  0  0  0
 10 14  1  0  0  0
 13 15  1  0  0  0
M  END
> <minimizedAffinity>
-8.66468

> <CNNscore>
0.6093042493

> <CNNaffinity>
6.6029586792

> <CNN_VS>
4.0232110023

> <CNNaffinity_variance>
0.0657306314

$$$$
[H]c1nc([H])c(-c2c(-c3c([H])c([H])c([H])c([H])c3[H])nc3sc(N([H])C(=O)N([H])C([H])([H])C([H])([H])[H])nc3c2[H])c([H])c1[H]


 29 32  0  0  0  0  0  0  0  0999 V2000
  154.4931  138.3771  185.3346 C   0  0  0  0  0  0  0  0  0  0  0  0
  155.7557  138.6686  185.5917 N   0  0  0  0  0  0  0  0  0  0  0  0
  156.3950  139.5444  184.8743 C   0  0  0  0  0  0  0  0  0  0  0  0
  157.7342  139.9696  185.0574 C   0  0  0  0  0  0  0  0  0  0  0  0
  158.2448  140.9303  184.2030 C   0  0  0  0  0  0  0  0  0  0  0  0
  157.5374  141.4907  183.1849 C   0  0  0  0  0  0  0  0  0  0  0  0
  156.2644  141.0793  183.0265 N   0  0  0  0  0  0  0  0  0  0  0  0
  155.7071  140.1363  183.8433 C   0  0  0  0  0  0  0  0  0  0  0  0
  154.1616  139.3806  183.9941 S   0  0  0  0  0  0  0  0  0  0  0  0
  152.0402  136.8563  187.5902 N   0  0  0  0  0  0  0  0  0  0  0  0
  152.8201  137.8254  187.0590 C   0  0  0  0  0  0  0  0  0  0  0  0
  152.9664  139.0373  187.3992 O   0  0  0  0  0  0  0  0  0  0  0  0
  153.6449  137.4081  185.9145 N   0  0  0  0  0  0  0  0  0  0  0  0
  151.7631  137.7020  188.6339 H   0  0  0  0  0  0  0  0  0  0  0  0
  153.6250  136.4698  185.5111 H   0  0  0  0  0  0  0  0  0  0  0  0
  151.4216  135.8326  189.6666 C   0  0  0  0  0  0  0  0  0  0  0  0
  151.2463  135.8803  188.1363 C   0  0  0  0  0  0  0  0  0  0  0  0
  159.5707  141.4182  184.4993 C   0  0  0  0  0  0  0  0  0  0  0  0
  159.6394  142.2279  185.6427 C   0  0  0  0  0  0  0  0  0  0  0  0
  160.8554  142.7499  186.0525 C   0  0  0  0  0  0  0  0  0  0  0  0
  161.9881  142.4620  185.3159 C   0  0  0  0  0  0  0  0  0  0  0  0
  161.9372  141.6889  184.2154 N   0  0  0  0  0  0  0  0  0  0  0  0
  160.7281  141.1858  183.8349 C   0  0  0  0  0  0  0  0  0  0  0  0
  158.1522  142.4111  182.2420 C   0  0  0  0  0  0  0  0  0  0  0  0
  158.5509  141.8962  180.9753 C   0  0  0  0  0  0  0  0  0  0  0  0
  159.1315  142.7018  180.0112 C   0  0  0  0  0  0  0  0  0  0  0  0
  159.3123  144.0184  180.3292 C   0  0  0  0  0  0  0  0  0  0  0  0
  158.9209  144.5194  181.5772 C   0  0  0  0  0  0  0  0  0  0  0  0
  158.3508  143.7416  182.5181 C   0  0  0  0  0  0  0  0  0  0  0  0
 16 17  1  0  0  0
 17 10  1  0  0  0
 10 11  1  0  0  0
 11 12  2  0  0  0
 11 13  1  0  0  0
 13  1  1  0  0  0
  1  2  2  0  0  0
  2  3  1  0  0  0
  3  4  2  0  0  0
  4  5  1  0  0  0
  5 18  1  0  0  0
 18 19  2  0  0  0
 19 20  1  0  0  0
 20 21  2  0  0  0
 21 22  1  0  0  0
 22 23  2  0  0  0
  5  6  2  0  0  0
  6  7  1  0  0  0
  7  8  2  0  0  0
  8  9  1  0  0  0
  6 24  1  0  0  0
 24 25  2  0  0  0
 25 26  1  0  0  0
 26 27  2  0  0  0
 27 28  1  0  0  0
 28 29  2  0  0  0
  9  1  1  0  0  0
 29 24  1  0  0  0
  8  3  1  0  0  0
 23 18  1  0  0  0
 10 14  1  0  0  0
 13 15  1  0  0  0
M  END
> <minimizedAffinity>
-9.26493

> <CNNscore>
0.5977420211

> <CNNaffinity>
6.6271438599

> <CNN_VS>
3.9613223076

> <CNNaffinity_variance>
0.0749032497

$$$$
[H]c1nc([H])c(-c2c(-c3c([H])c([H])c([H])c([H])c3[H])nc3sc(N([H])C(=O)N([H])C([H])([H])C([H])([H])[H])nc3c2[H])c([H])c1[H]


 29 32  0  0  0  0  0  0  0  0999 V2000
  153.9333  138.6639  184.3889 C   0  0  0  0  0  0  0  0  0  0  0  0
  154.3787  139.6198  183.5932 N   0  0  0  0  0  0  0  0  0  0  0  0
  155.5677  140.1199  183.7561 C   0  0  0  0  0  0  0  0  0  0  0  0
  156.1774  141.1227  182.9621 C   0  0  0  0  0  0  0  0  0  0  0  0
  157.4646  141.5212  183.2752 C   0  0  0  0  0  0  0  0  0  0  0  0
  158.1838  141.0115  184.3116 C   0  0  0  0  0  0  0  0  0  0  0  0
  157.5920  140.0559  185.0543 N   0  0  0  0  0  0  0  0  0  0  0  0
  156.3242  139.6212  184.7883 C   0  0  0  0  0  0  0  0  0  0  0  0
  155.2509  138.4419  185.4512 S   0  0  0  0  0  0  0  0  0  0  0  0
  151.2645  136.2122  183.8556 N   0  0  0  0  0  0  0  0  0  0  0  0
  152.5036  136.7497  183.7817 C   0  0  0  0  0  0  0  0  0  0  0  0
  153.5505  136.3191  183.2121 O   0  0  0  0  0  0  0  0  0  0  0  0
  152.6634  138.0490  184.4530 N   0  0  0  0  0  0  0  0  0  0  0  0
  151.6582  135.2700  182.9399 H   0  0  0  0  0  0  0  0  0  0  0  0
  151.9177  138.5172  184.9709 H   0  0  0  0  0  0  0  0  0  0  0  0
  148.9341  136.7193  183.6231 C   0  0  0  0  0  0  0  0  0  0  0  0
  150.0113  135.6593  183.9244 C   0  0  0  0  0  0  0  0  0  0  0  0
  158.0884  142.4571  182.3704 C   0  0  0  0  0  0  0  0  0  0  0  0
  158.5088  141.8875  181.1594 C   0  0  0  0  0  0  0  0  0  0  0  0
  159.1084  142.6767  180.1914 C   0  0  0  0  0  0  0  0  0  0  0  0
  159.2855  144.0235  180.4433 C   0  0  0  0  0  0  0  0  0  0  0  0
  158.8896  144.5833  181.6013 N   0  0  0  0  0  0  0  0  0  0  0  0
  158.3001  143.7848  182.5365 C   0  0  0  0  0  0  0  0  0  0  0  0
  159.4881  141.5432  184.6723 C   0  0  0  0  0  0  0  0  0  0  0  0
  159.5830  142.3179  185.8638 C   0  0  0  0  0  0  0  0  0  0  0  0
  160.7859  142.8521  186.2917 C   0  0  0  0  0  0  0  0  0  0  0  0
  161.8842  142.6085  185.5161 C   0  0  0  0  0  0  0  0  0  0  0  0
  161.7852  141.8482  184.3440 C   0  0  0  0  0  0  0  0  0  0  0  0
  160.6183  141.3213  183.9245 C   0  0  0  0  0  0  0  0  0  0  0  0
 16 17  1  0  0  0
 17 10  1  0  0  0
 10 11  1  0  0  0
 11 12  2  0  0  0
 11 13  1  0  0  0
 13  1  1  0  0  0
  1  2  2  0  0  0
  2  3  1  0  0  0
  3  4  2  0  0  0
  4  5  1  0  0  0
  5 18  1  0  0  0
 18 19  2  0  0  0
 19 20  1  0  0  0
 20 21  2  0  0  0
 21 22  1  0  0  0
 22 23  2  0  0  0
  5  6  2  0  0  0
  6  7  1  0  0  0
  7  8  2  0  0  0
  8  9  1  0  0  0
  6 24  1  0  0  0
 24 25  2  0  0  0
 25 26  1  0  0  0
 26 27  2  0  0  0
 27 28  1  0  0  0
 28 29  2  0  0  0
  9  1  1  0  0  0
 29 24  1  0  0  0
  8  3  1  0  0  0
 23 18  1  0  0  0
 10 14  1  0  0  0
 13 15  1  0  0  0
M  END
> <minimizedAffinity>
-8.56106

> <CNNscore>
0.5224663019

> <CNNaffinity>
6.5278806686

> <CNN_VS>
3.4105975628

> <CNNaffinity_variance>
0.0434198454

$$$$
[H]c1nc([H])c(-c2c(-c3c([H])c([H])c([H])c([H])c3[H])nc3sc(N([H])C(=O)N([H])C([H])([H])C([H])([H])[H])nc3c2[H])c([H])c1[H]


 29 32  0  0  0  0  0  0  0  0999 V2000
  154.1676  138.7021  184.8648 C   0  0  0  0  0  0  0  0  0  0  0  0
  155.4314  138.9191  185.1825 N   0  0  0  0  0  0  0  0  0  0  0  0
  156.1457  139.7785  184.5180 C   0  0  0  0  0  0  0  0  0  0  0  0
  157.4961  140.1267  184.7689 C   0  0  0  0  0  0  0  0  0  0  0  0
  158.0923  141.0815  183.9647 C   0  0  0  0  0  0  0  0  0  0  0  0
  157.4596  141.7056  182.9346 C   0  0  0  0  0  0  0  0  0  0  0  0
  156.1748  141.3670  182.7116 N   0  0  0  0  0  0  0  0  0  0  0  0
  155.5346  140.4334  183.4768 C   0  0  0  0  0  0  0  0  0  0  0  0
  153.9468  139.7573  183.5412 S   0  0  0  0  0  0  0  0  0  0  0  0
  152.3264  135.5655  185.2994 N   0  0  0  0  0  0  0  0  0  0  0  0
  153.2398  136.4197  184.7840 C   0  0  0  0  0  0  0  0  0  0  0  0
  154.0856  136.2519  183.8553 O   0  0  0  0  0  0  0  0  0  0  0  0
  153.2459  137.7645  185.3806 N   0  0  0  0  0  0  0  0  0  0  0  0
  152.6176  134.6960  184.2793 H   0  0  0  0  0  0  0  0  0  0  0  0
  152.6371  138.0481  186.1503 H   0  0  0  0  0  0  0  0  0  0  0  0
  150.5809  135.3682  186.9291 C   0  0  0  0  0  0  0  0  0  0  0  0
  151.4031  134.6921  185.8149 C   0  0  0  0  0  0  0  0  0  0  0  0
  159.4278  141.4899  184.3299 C   0  0  0  0  0  0  0  0  0  0  0  0
  159.4886  142.2682  185.4953 C   0  0  0  0  0  0  0  0  0  0  0  0
  160.7113  142.7141  185.9701 C   0  0  0  0  0  0  0  0  0  0  0  0
  161.8587  142.3825  185.2757 C   0  0  0  0  0  0  0  0  0  0  0  0
  161.8155  141.6388  184.1548 N   0  0  0  0  0  0  0  0  0  0  0  0
  160.5995  141.2107  183.7100 C   0  0  0  0  0  0  0  0  0  0  0  0
  158.1615  142.6169  182.0452 C   0  0  0  0  0  0  0  0  0  0  0  0
  158.5311  142.1345  180.7570 C   0  0  0  0  0  0  0  0  0  0  0  0
  159.1895  142.9355  179.8403 C   0  0  0  0  0  0  0  0  0  0  0  0
  159.4766  144.2143  180.2268 C   0  0  0  0  0  0  0  0  0  0  0  0
  159.1133  144.6832  181.4956 C   0  0  0  0  0  0  0  0  0  0  0  0
  158.4680  143.9102  182.3907 C   0  0  0  0  0  0  0  0  0  0  0  0
 16 17  1  0  0  0
 17 10  1  0  0  0
 10 11  1  0  0  0
 11 12  2  0  0  0
 11 13  1  0  0  0
 13  1  1  0  0  0
  1  2  2  0  0  0
  2  3  1  0  0  0
  3  4  2  0  0  0
  4  5  1  0  0  0
  5 18  1  0  0  0
 18 19  2  0  0  0
 19 20  1  0  0  0
 20 21  2  0  0  0
 21 22  1  0  0  0
 22 23  2  0  0  0
  5  6  2  0  0  0
  6  7  1  0  0  0
  7  8  2  0  0  0
  8  9  1  0  0  0
  6 24  1  0  0  0
 24 25  2  0  0  0
 25 26  1  0  0  0
 26 27  2  0  0  0
 27 28  1  0  0  0
 28 29  2  0  0  0
  9  1  1  0  0  0
 29 24  1  0  0  0
  8  3  1  0  0  0
 23 18  1  0  0  0
 10 14  1  0  0  0
 13 15  1  0  0  0
M  END
> <minimizedAffinity>
-8.79620

> <CNNscore>
0.5160405636

> <CNNaffinity>
6.5672674179

> <CNN_VS>
3.3889763355

> <CNNaffinity_variance>
0.0638727844

$$$$
[H]c1nc([H])c(-c2c(-c3c([H])c([H])c([H])c([H])c3[H])nc3sc(N([H])C(=O)N([H])C([H])([H])C([H])([H])[H])nc3c2[H])c([H])c1[H]


 29 32  0  0  0  0  0  0  0  0999 V2000
  153.3658  139.3461  182.7392 C   0  0  0  0  0  0  0  0  0  0  0  0
  153.9955  140.3637  182.1795 N   0  0  0  0  0  0  0  0  0  0  0  0
  155.1795  140.7166  182.5844 C   0  0  0  0  0  0  0  0  0  0  0  0
  155.9744  141.7642  182.0566 C   0  0  0  0  0  0  0  0  0  0  0  0
  157.2250  141.9849  182.6051 C   0  0  0  0  0  0  0  0  0  0  0  0
  157.7396  141.2577  183.6334 C   0  0  0  0  0  0  0  0  0  0  0  0
  156.9737  140.2625  184.1213 N   0  0  0  0  0  0  0  0  0  0  0  0
  155.7324  139.9972  183.6155 C   0  0  0  0  0  0  0  0  0  0  0  0
  154.4874  138.8404  183.9224 S   0  0  0  0  0  0  0  0  0  0  0  0
  150.4013  138.0942  180.9894 N   0  0  0  0  0  0  0  0  0  0  0  0
  151.6678  138.5437  181.1424 C   0  0  0  0  0  0  0  0  0  0  0  0
  152.5715  138.7556  180.2796 O   0  0  0  0  0  0  0  0  0  0  0  0
  152.0592  138.8539  182.5261 N   0  0  0  0  0  0  0  0  0  0  0  0
  150.5583  138.2223  179.6329 H   0  0  0  0  0  0  0  0  0  0  0  0
  151.4488  138.7185  183.3339 H   0  0  0  0  0  0  0  0  0  0  0  0
  148.6414  137.8752  179.3780 C   0  0  0  0  0  0  0  0  0  0  0  0
  149.1184  137.6382  180.8240 C   0  0  0  0  0  0  0  0  0  0  0  0
  158.0455  142.9822  181.9602 C   0  0  0  0  0  0  0  0  0  0  0  0
  158.5369  142.5934  180.7052 C   0  0  0  0  0  0  0  0  0  0  0  0
  159.3249  143.4621  179.9679 C   0  0  0  0  0  0  0  0  0  0  0  0
  159.6171  144.7067  180.4916 C   0  0  0  0  0  0  0  0  0  0  0  0
  159.1549  145.0925  181.6953 N   0  0  0  0  0  0  0  0  0  0  0  0
  158.3796  144.2193  182.3997 C   0  0  0  0  0  0  0  0  0  0  0  0
  159.0096  141.6007  184.2526 C   0  0  0  0  0  0  0  0  0  0  0  0
  158.9803  142.1615  185.5616 C   0  0  0  0  0  0  0  0  0  0  0  0
  160.1405  142.5056  186.2331 C   0  0  0  0  0  0  0  0  0  0  0  0
  161.3221  142.2885  185.5820 C   0  0  0  0  0  0  0  0  0  0  0  0
  161.3456  141.7392  184.2939 C   0  0  0  0  0  0  0  0  0  0  0  0
  160.2202  141.3976  183.6367 C   0  0  0  0  0  0  0  0  0  0  0  0
 16 17  1  0  0  0
 17 10  1  0  0  0
 10 11  1  0  0  0
 11 12  2  0  0  0
 11 13  1  0  0  0
 13  1  1  0  0  0
  1  2  2  0  0  0
  2  3  1  0  0  0
  3  4  2  0  0  0
  4  5  1  0  0  0
  5 18  1  0  0  0
 18 19  2  0  0  0
 19 20  1  0  0  0
 20 21  2  0  0  0
 21 22  1  0  0  0
 22 23  2  0  0  0
  5  6  2  0  0  0
  6  7  1  0  0  0
  7  8  2  0  0  0
  8  9  1  0  0  0
  6 24  1  0  0  0
 24 25  2  0  0  0
 25 26  1  0  0  0
 26 27  2  0  0  0
 27 28  1  0  0  0
 28 29  2  0  0  0
  9  1  1  0  0  0
 29 24  1  0  0  0
  8  3  1  0  0  0
 23 18  1  0  0  0
 10 14  1  0  0  0
 13 15  1  0  0  0
M  END
> <minimizedAffinity>
-9.12670

> <CNNscore>
0.4080471992

> <CNNaffinity>
6.4552164078

> <CNN_VS>
2.6340329647

> <CNNaffinity_variance>
0.0631422102

$$$$
[H]c1nc([H])c(-c2c(-c3c([H])c([H])c([H])c([H])c3[H])nc3sc(N([H])C(=O)N([H])C([H])([H])C([H])([H])[H])nc3c2[H])c([H])c1[H]


 29 32  0  0  0  0  0  0  0  0999 V2000
  154.2025  138.0734  185.6614 C   0  0  0  0  0  0  0  0  0  0  0  0
  155.4198  138.5104  185.9304 N   0  0  0  0  0  0  0  0  0  0  0  0
  156.0428  139.2947  185.1014 C   0  0  0  0  0  0  0  0  0  0  0  0
  157.3318  139.8560  185.2776 C   0  0  0  0  0  0  0  0  0  0  0  0
  157.8302  140.6883  184.2915 C   0  0  0  0  0  0  0  0  0  0  0  0
  157.1571  140.9972  183.1502 C   0  0  0  0  0  0  0  0  0  0  0  0
  155.9311  140.4593  182.9994 N   0  0  0  0  0  0  0  0  0  0  0  0
  155.3876  139.6337  183.9428 C   0  0  0  0  0  0  0  0  0  0  0  0
  153.8939  138.7906  184.1434 S   0  0  0  0  0  0  0  0  0  0  0  0
  152.6302  134.9110  186.6333 N   0  0  0  0  0  0  0  0  0  0  0  0
  153.4427  135.7456  185.9456 C   0  0  0  0  0  0  0  0  0  0  0  0
  154.2368  135.5097  184.9865 O   0  0  0  0  0  0  0  0  0  0  0  0
  153.3880  137.1558  186.3609 N   0  0  0  0  0  0  0  0  0  0  0  0
  152.9183  133.9331  185.7157 H   0  0  0  0  0  0  0  0  0  0  0  0
  152.8109  137.5002  187.1303 H   0  0  0  0  0  0  0  0  0  0  0  0
  152.6393  133.0042  188.0844 C   0  0  0  0  0  0  0  0  0  0  0  0
  151.8093  134.0569  187.3244 C   0  0  0  0  0  0  0  0  0  0  0  0
  159.0936  141.3302  184.5666 C   0  0  0  0  0  0  0  0  0  0  0  0
  160.1542  140.8674  183.7737 C   0  0  0  0  0  0  0  0  0  0  0  0
  161.4203  141.4100  183.9212 C   0  0  0  0  0  0  0  0  0  0  0  0
  161.6154  142.4047  184.8599 C   0  0  0  0  0  0  0  0  0  0  0  0
  160.6080  142.8568  185.6295 N   0  0  0  0  0  0  0  0  0  0  0  0
  159.3711  142.3074  185.4627 C   0  0  0  0  0  0  0  0  0  0  0  0
  157.7682  141.7829  182.0904 C   0  0  0  0  0  0  0  0  0  0  0  0
  157.9093  143.1846  182.2999 C   0  0  0  0  0  0  0  0  0  0  0  0
  158.4913  144.0082  181.3520 C   0  0  0  0  0  0  0  0  0  0  0  0
  158.9224  143.4178  180.1975 C   0  0  0  0  0  0  0  0  0  0  0  0
  158.7790  142.0394  179.9951 C   0  0  0  0  0  0  0  0  0  0  0  0
  158.2179  141.2314  180.9158 C   0  0  0  0  0  0  0  0  0  0  0  0
 16 17  1  0  0  0
 17 10  1  0  0  0
 10 11  1  0  0  0
 11 12  2  0  0  0
 11 13  1  0  0  0
 13  1  1  0  0  0
  1  2  2  0  0  0
  2  3  1  0  0  0
  3  4  2  0  0  0
  4  5  1  0  0  0
  5 18  1  0  0  0
 18 19  2  0  0  0
 19 20  1  0  0  0
 20 21  2  0  0  0
 21 22  1  0  0  0
 22 23  2  0  0  0
  5  6  2  0  0  0
  6  7  1  0  0  0
  7  8  2  0  0  0
  8  9  1  0  0  0
  6 24  1  0  0  0
 24 25  2  0  0  0
 25 26  1  0  0  0
 26 27  2  0  0  0
 27 28  1  0  0  0
 28 29  2  0  0  0
  9  1  1  0  0  0
 29 24  1  0  0  0
  8  3  1  0  0  0
 23 18  1  0  0  0
 10 14  1  0  0  0
 13 15  1  0  0  0
M  END
> <minimizedAffinity>
-7.94991

> <CNNscore>
0.3328372240

> <CNNaffinity>
6.2420334816

> <CNN_VS>
2.0775811672

> <CNNaffinity_variance>
0.0525825545

$$$$
[H]c1nc([H])c(-c2c(-c3c([H])c([H])c([H])c([H])c3[H])nc3sc(N([H])C(=O)N([H])C([H])([H])C([H])([H])[H])nc3c2[H])c([H])c1[H]


 29 32  0  0  0  0  0  0  0  0999 V2000
  154.8451  140.9230  182.1464 C   0  0  0  0  0  0  0  0  0  0  0  0
  153.7442  140.8422  181.4207 N   0  0  0  0  0  0  0  0  0  0  0  0
  152.8189  139.9762  181.7109 C   0  0  0  0  0  0  0  0  0  0  0  0
  151.5842  139.8029  181.0377 C   0  0  0  0  0  0  0  0  0  0  0  0
  150.7090  138.8371  181.5013 C   0  0  0  0  0  0  0  0  0  0  0  0
  150.9662  138.0314  182.5670 C   0  0  0  0  0  0  0  0  0  0  0  0
  152.1423  138.2113  183.1991 N   0  0  0  0  0  0  0  0  0  0  0  0
  153.0428  139.1528  182.7872 C   0  0  0  0  0  0  0  0  0  0  0  0
  154.5917  139.7048  183.3150 S   0  0  0  0  0  0  0  0  0  0  0  0
  157.1662  143.7446  182.4075 N   0  0  0  0  0  0  0  0  0  0  0  0
  156.0456  143.0208  182.6309 C   0  0  0  0  0  0  0  0  0  0  0  0
  155.0151  143.2967  183.3150 O   0  0  0  0  0  0  0  0  0  0  0  0
  156.0026  141.7111  181.9623 N   0  0  0  0  0  0  0  0  0  0  0  0
  156.5527  144.8130  183.0104 H   0  0  0  0  0  0  0  0  0  0  0  0
  156.7636  141.3384  181.3917 H   0  0  0  0  0  0  0  0  0  0  0  0
  159.0089  144.0208  180.9008 C   0  0  0  0  0  0  0  0  0  0  0  0
  158.2985  144.4865  182.1865 C   0  0  0  0  0  0  0  0  0  0  0  0
  149.4170  138.7761  180.8604 C   0  0  0  0  0  0  0  0  0  0  0  0
  149.4193  138.0961  179.6335 C   0  0  0  0  0  0  0  0  0  0  0  0
  148.2417  137.9479  178.9189 C   0  0  0  0  0  0  0  0  0  0  0  0
  147.0764  138.4827  179.4335 C   0  0  0  0  0  0  0  0  0  0  0  0
  147.0595  139.1399  180.6079 N   0  0  0  0  0  0  0  0  0  0  0  0
  148.2317  139.2697  181.2924 C   0  0  0  0  0  0  0  0  0  0  0  0
  150.0670  136.9535  182.9459 C   0  0  0  0  0  0  0  0  0  0  0  0
  149.1822  137.1801  184.0388 C   0  0  0  0  0  0  0  0  0  0  0  0
  148.2828  136.2161  184.4602 C   0  0  0  0  0  0  0  0  0  0  0  0
  148.2829  135.0291  183.7834 C   0  0  0  0  0  0  0  0  0  0  0  0
  149.1567  134.8102  182.7109 C   0  0  0  0  0  0  0  0  0  0  0  0
  150.0311  135.7460  182.2927 C   0  0  0  0  0  0  0  0  0  0  0  0
 16 17  1  0  0  0
 17 10  1  0  0  0
 10 11  1  0  0  0
 11 12  2  0  0  0
 11 13  1  0  0  0
 13  1  1  0  0  0
  1  2  2  0  0  0
  2  3  1  0  0  0
  3  4  2  0  0  0
  4  5  1  0  0  0
  5 18  1  0  0  0
 18 19  2  0  0  0
 19 20  1  0  0  0
 20 21  2  0  0  0
 21 22  1  0  0  0
 22 23  2  0  0  0
  5  6  2  0  0  0
  6  7  1  0  0  0
  7  8  2  0  0  0
  8  9  1  0  0  0
  6 24  1  0  0  0
 24 25  2  0  0  0
 25 26  1  0  0  0
 26 27  2  0  0  0
 27 28  1  0  0  0
 28 29  2  0  0  0
  9  1  1  0  0  0
 29 24  1  0  0  0
  8  3  1  0  0  0
 23 18  1  0  0  0
 10 14  1  0  0  0
 13 15  1  0  0  0
M  END
> <minimizedAffinity>
-6.87983

> <CNNscore>
0.2353910357

> <CNNaffinity>
5.7538876534

> <CNN_VS>
1.3544136286

> <CNNaffinity_variance>
0.0953019261

$$$$
[H]c1nc([H])c(-c2c(-c3c([H])c([H])c([H])c([H])c3[H])nc3sc(N([H])C(=O)N([H])C([H])([H])C([H])([H])[H])nc3c2[H])c([H])c1[H]


 29 32  0  0  0  0  0  0  0  0999 V2000
  155.4050  137.9734  187.2927 C   0  0  0  0  0  0  0  0  0  0  0  0
  154.3768  137.1440  187.3012 N   0  0  0  0  0  0  0  0  0  0  0  0
  153.8403  136.7619  188.4222 C   0  0  0  0  0  0  0  0  0  0  0  0
  152.7231  135.9036  188.5737 C   0  0  0  0  0  0  0  0  0  0  0  0
  152.2769  135.6196  189.8520 C   0  0  0  0  0  0  0  0  0  0  0  0
  152.8541  136.1111  190.9817 C   0  0  0  0  0  0  0  0  0  0  0  0
  153.9124  136.9291  190.8210 N   0  0  0  0  0  0  0  0  0  0  0  0
  154.3933  137.2469  189.5821 C   0  0  0  0  0  0  0  0  0  0  0  0
  155.6600  138.2418  188.9591 S   0  0  0  0  0  0  0  0  0  0  0  0
  156.2903  139.5461  184.1053 N   0  0  0  0  0  0  0  0  0  0  0  0
  155.4967  139.1359  185.1209 C   0  0  0  0  0  0  0  0  0  0  0  0
  154.2433  139.2415  185.2749 O   0  0  0  0  0  0  0  0  0  0  0  0
  156.1906  138.4405  186.2160 N   0  0  0  0  0  0  0  0  0  0  0  0
  155.1588  139.8438  183.3895 H   0  0  0  0  0  0  0  0  0  0  0  0
  157.2011  138.2935  186.2466 H   0  0  0  0  0  0  0  0  0  0  0  0
  158.5587  139.5946  183.3346 C   0  0  0  0  0  0  0  0  0  0  0  0
  157.0866  139.9656  183.0703 C   0  0  0  0  0  0  0  0  0  0  0  0
  151.0673  134.8386  189.9545 C   0  0  0  0  0  0  0  0  0  0  0  0
  149.8895  135.5962  189.8744 C   0  0  0  0  0  0  0  0  0  0  0  0
  148.6551  134.9709  189.9412 C   0  0  0  0  0  0  0  0  0  0  0  0
  148.6089  133.5983  190.0910 C   0  0  0  0  0  0  0  0  0  0  0  0
  149.7305  132.8588  190.1719 N   0  0  0  0  0  0  0  0  0  0  0  0
  150.9327  133.4987  190.1012 C   0  0  0  0  0  0  0  0  0  0  0  0
  152.4223  135.6929  192.3056 C   0  0  0  0  0  0  0  0  0  0  0  0
  151.4041  136.4572  192.9442 C   0  0  0  0  0  0  0  0  0  0  0  0
  150.9219  136.1251  194.1983 C   0  0  0  0  0  0  0  0  0  0  0  0
  151.4706  135.0300  194.8041 C   0  0  0  0  0  0  0  0  0  0  0  0
  152.4734  134.2831  194.1731 C   0  0  0  0  0  0  0  0  0  0  0  0
  152.9436  134.5982  192.9505 C   0  0  0  0  0  0  0  0  0  0  0  0
 16 17  1  0  0  0
 17 10  1  0  0  0
 10 11  1  0  0  0
 11 12  2  0  0  0
 11 13  1  0  0  0
 13  1  1  0  0  0
  1  2  2  0  0  0
  2  3  1  0  0  0
  3  4  2  0  0  0
  4  5  1  0  0  0
  5 18  1  0  0  0
 18 19  2  0  0  0
 19 20  1  0  0  0
 20 21  2  0  0  0
 21 22  1  0  0  0
 22 23  2  0  0  0
  5  6  2  0  0  0
  6  7  1  0  0  0
  7  8  2  0  0  0
  8  9  1  0  0  0
  6 24  1  0  0  0
 24 25  2  0  0  0
 25 26  1  0  0  0
 26 27  2  0  0  0
 27 28  1  0  0  0
 28 29  2  0  0  0
  9  1  1  0  0  0
 29 24  1  0  0  0
  8  3  1  0  0  0
 23 18  1  0  0  0
 10 14  1  0  0  0
 13 15  1  0  0  0
M  END
> <minimizedAffinity>
-5.51959

> <CNNscore>
0.2171954215

> <CNNaffinity>
5.3455581665

> <CNN_VS>
1.1610307693

> <CNNaffinity_variance>
0.0856253877

$$$$
[H]c1nc([H])c(-c2c(-c3c([H])c([H])c([H])c([H])c3[H])nc3sc(N([H])C(=O)N([H])C([H])([H])C([H])([H])[H])nc3c2[H])c([H])c1[H]


 29 32  0  0  0  0  0  0  0  0999 V2000
  155.1597  141.7269  182.5596 C   0  0  0  0  0  0  0  0  0  0  0  0
  154.0316  141.6072  181.8827 N   0  0  0  0  0  0  0  0  0  0  0  0
  153.2789  140.5569  182.0257 C   0  0  0  0  0  0  0  0  0  0  0  0
  152.0376  140.3148  181.3866 C   0  0  0  0  0  0  0  0  0  0  0  0
  151.3634  139.1420  181.6759 C   0  0  0  0  0  0  0  0  0  0  0  0
  151.8261  138.1955  182.5367 C   0  0  0  0  0  0  0  0  0  0  0  0
  153.0054  138.4423  183.1397 N   0  0  0  0  0  0  0  0  0  0  0  0
  153.7124  139.5855  182.8946 C   0  0  0  0  0  0  0  0  0  0  0  0
  155.1923  140.2753  183.4572 S   0  0  0  0  0  0  0  0  0  0  0  0
  158.1676  143.5163  181.4789 N   0  0  0  0  0  0  0  0  0  0  0  0
  157.2223  142.5490  181.4887 C   0  0  0  0  0  0  0  0  0  0  0  0
  157.1104  141.5058  180.7778 O   0  0  0  0  0  0  0  0  0  0  0  0
  156.1616  142.7202  182.4936 N   0  0  0  0  0  0  0  0  0  0  0  0
  158.9011  142.7402  180.6182 H   0  0  0  0  0  0  0  0  0  0  0  0
  156.1027  143.5187  183.1281 H   0  0  0  0  0  0  0  0  0  0  0  0
  159.4749  144.9397  182.8956 C   0  0  0  0  0  0  0  0  0  0  0  0
  159.1314  144.4919  181.4616 C   0  0  0  0  0  0  0  0  0  0  0  0
  150.0507  138.9922  181.0944 C   0  0  0  0  0  0  0  0  0  0  0  0
  150.0629  138.5612  179.7596 C   0  0  0  0  0  0  0  0  0  0  0  0
  148.8706  138.3591  179.0836 C   0  0  0  0  0  0  0  0  0  0  0  0
  147.6802  138.5928  179.7447 C   0  0  0  0  0  0  0  0  0  0  0  0
  147.6530  139.0091  181.0243 N   0  0  0  0  0  0  0  0  0  0  0  0
  148.8406  139.1981  181.6674 C   0  0  0  0  0  0  0  0  0  0  0  0
  151.1391  136.9274  182.7208 C   0  0  0  0  0  0  0  0  0  0  0  0
  151.3987  135.8890  181.7811 C   0  0  0  0  0  0  0  0  0  0  0  0
  150.8003  134.6454  181.8855 C   0  0  0  0  0  0  0  0  0  0  0  0
  149.9408  134.4560  182.9308 C   0  0  0  0  0  0  0  0  0  0  0  0
  149.6869  135.4811  183.8508 C   0  0  0  0  0  0  0  0  0  0  0  0
  150.2699  136.6922  183.7576 C   0  0  0  0  0  0  0  0  0  0  0  0
 16 17  1  0  0  0
 17 10  1  0  0  0
 10 11  1  0  0  0
 11 12  2  0  0  0
 11 13  1  0  0  0
 13  1  1  0  0  0
  1  2  2  0  0  0
  2  3  1  0  0  0
  3  4  2  0  0  0
  4  5  1  0  0  0
  5 18  1  0  0  0
 18 19  2  0  0  0
 19 20  1  0  0  0
 20 21  2  0  0  0
 21 22  1  0  0  0
 22 23  2  0  0  0
  5  6  2  0  0  0
  6  7  1  0  0  0
  7  8  2  0  0  0
  8  9  1  0  0  0
  6 24  1  0  0  0
 24 25  2  0  0  0
 25 26  1  0  0  0
 26 27  2  0  0  0
 27 28  1  0  0  0
 28 29  2  0  0  0
  9  1  1  0  0  0
 29 24  1  0  0  0
  8  3  1  0  0  0
 23 18  1  0  0  0
 10 14  1  0  0  0
 13 15  1  0  0  0
M  END
> <minimizedAffinity>
-7.23047

> <CNNscore>
0.1921274513

> <CNNaffinity>
5.7116217613

> <CNN_VS>
1.0973592997

> <CNNaffinity_variance>
0.1532457769

$$$$
[H]ON([H])C(=O)C([H])([H])[C@]([H])(C(=O)N([H])[C@]([H])(C(=O)N([H])c1nc([H])c([H])s1)C([H])([H])c1c([H])n([H])c2c([H])c([H])c([H])c([H])c12)C([H])([H])C([H])(C([H])([H])[H])C([H])([H])[H]


 37 39  0  0  0  0  0  0  0  0999 V2000
  157.3584  140.0255  183.9116 C   0  0  0  0  0  0  0  0  0  0  0  0
  155.3130  138.8084  184.7415 C   0  0  0  0  0  0  0  0  0  0  0  0
  154.9234  138.6252  183.5746 O   0  0  0  0  0  0  0  0  0  0  0  0
  156.5250  139.5037  184.9552 N   0  0  0  0  0  0  0  0  0  0  0  0
  156.8360  139.6470  185.9370 H   0  0  0  0  0  0  0  0  0  0  0  0
  154.4913  138.2892  185.8584 C   0  0  0  0  0  0  0  0  0  0  0  0
  155.4802  138.0111  186.9880 C   0  0  0  0  0  0  0  0  0  0  0  0
  153.6296  138.7118  188.5188 C   0  0  0  0  0  0  0  0  0  0  0  0
  154.8392  137.8140  188.3180 C   0  0  0  0  0  0  0  0  0  0  0  0
  155.8481  138.1133  189.4379 C   0  0  0  0  0  0  0  0  0  0  0  0
  153.7637  137.0508  185.4760 C   0  0  0  0  0  0  0  0  0  0  0  0
  152.3691  137.2469  185.0784 C   0  0  0  0  0  0  0  0  0  0  0  0
  151.4848  137.2772  185.9746 O   0  0  0  0  0  0  0  0  0  0  0  0
  151.9692  137.4052  183.7179 N   0  0  0  0  0  0  0  0  0  0  0  0
  150.6945  137.5831  183.3746 O   0  0  0  0  0  0  0  0  0  0  0  0
  152.6833  137.3841  182.9559 H   0  0  0  0  0  0  0  0  0  0  0  0
  150.2372  136.7604  183.0712 H   0  0  0  0  0  0  0  0  0  0  0  0
  158.6551  140.5067  184.4144 C   0  0  0  0  0  0  0  0  0  0  0  0
  159.7005  139.8713  184.1431 O   0  0  0  0  0  0  0  0  0  0  0  0
  158.7480  141.6690  185.1950 N   0  0  0  0  0  0  0  0  0  0  0  0
  157.9046  142.2121  185.4328 H   0  0  0  0  0  0  0  0  0  0  0  0
  160.0207  142.1453  185.6916 C   0  0  0  0  0  0  0  0  0  0  0  0
  160.2770  142.5607  186.9191 N   0  0  0  0  0  0  0  0  0  0  0  0
  161.4686  142.9618  187.2280 C   0  0  0  0  0  0  0  0  0  0  0  0
  162.4249  142.9348  186.2442 C   0  0  0  0  0  0  0  0  0  0  0  0
  161.5242  142.3221  184.9190 S   0  0  0  0  0  0  0  0  0  0  0  0
  156.7334  141.1302  183.0951 C   0  0  0  0  0  0  0  0  0  0  0  0
  157.5082  141.5484  181.9279 C   0  0  0  0  0  0  0  0  0  0  0  0
  157.7316  140.7710  180.8022 C   0  0  0  0  0  0  0  0  0  0  0  0
  158.4580  141.4949  179.9071 N   0  0  0  0  0  0  0  0  0  0  0  0
  158.7000  142.7079  180.4376 C   0  0  0  0  0  0  0  0  0  0  0  0
  159.3974  143.7861  179.9298 C   0  0  0  0  0  0  0  0  0  0  0  0
  159.5102  144.9279  180.6966 C   0  0  0  0  0  0  0  0  0  0  0  0
  158.9482  145.0266  181.9559 C   0  0  0  0  0  0  0  0  0  0  0  0
  158.2565  143.9224  182.4281 C   0  0  0  0  0  0  0  0  0  0  0  0
  158.1095  142.7562  181.7084 C   0  0  0  0  0  0  0  0  0  0  0  0
  158.7781  141.1629  178.9573 H   0  0  0  0  0  0  0  0  0  0  0  0
  8  9  1  0  0  0
  9 10  1  0  0  0
  9  7  1  0  0  0
  7  6  1  0  0  0
  6 11  1  0  0  0
 11 12  1  0  0  0
 12 13  2  0  0  0
 12 14  1  0  0  0
 14 15  1  0  0  0
  6  2  1  0  0  0
  2  3  2  0  0  0
  2  4  1  0  0  0
  4  1  1  0  0  0
  1 27  1  0  0  0
 27 28  1  0  0  0
 28 29  2  0  0  0
 29 30  1  0  0  0
 30 31  1  0  0  0
 31 32  2  0  0  0
 32 33  1  0  0  0
 33 34  2  0  0  0
 34 35  1  0  0  0
 35 36  2  0  0  0
  1 18  1  0  0  0
 18 19  2  0  0  0
 18 20  1  0  0  0
 20 22  1  0  0  0
 22 23  2  0  0  0
 23 24  1  0  0  0
 24 25  2  0  0  0
 25 26  1  0  0  0
 36 28  1  0  0  0
 26 22  1  0  0  0
 36 31  1  0  0  0
 14 16  1  0  0  0
 15 17  1  0  0  0
  4  5  1  0  0  0
 30 37  1  0  0  0
 20 21  1  0  0  0
M  END
> <minimizedAffinity>
-7.75516

> <CNNscore>
0.3985841572

> <CNNaffinity>
6.7070021629

> <CNN_VS>
2.6733047962

> <CNNaffinity_variance>
0.1079943627

$$$$
[H]ON([H])C(=O)C([H])([H])[C@]([H])(C(=O)N([H])[C@]([H])(C(=O)N([H])c1nc([H])c([H])s1)C([H])([H])c1c([H])n([H])c2c([H])c([H])c([H])c([H])c12)C([H])([H])C([H])(C([H])([H])[H])C([H])([H])[H]


 37 39  0  0  0  0  0  0  0  0999 V2000
  154.4922  139.3893  183.9794 C   0  0  0  0  0  0  0  0  0  0  0  0
  154.0611  138.2730  186.1980 C   0  0  0  0  0  0  0  0  0  0  0  0
  154.8479  137.3534  185.9114 O   0  0  0  0  0  0  0  0  0  0  0  0
  153.8539  139.3109  185.2610 N   0  0  0  0  0  0  0  0  0  0  0  0
  153.1936  140.0719  185.5176 H   0  0  0  0  0  0  0  0  0  0  0  0
  153.3750  138.2428  187.5098 C   0  0  0  0  0  0  0  0  0  0  0  0
  154.3781  138.8295  188.5002 C   0  0  0  0  0  0  0  0  0  0  0  0
  154.8366  138.3947  190.9209 C   0  0  0  0  0  0  0  0  0  0  0  0
  154.8813  137.8497  189.5030 C   0  0  0  0  0  0  0  0  0  0  0  0
  156.3353  137.4688  189.1828 C   0  0  0  0  0  0  0  0  0  0  0  0
  152.9946  136.8598  187.8994 C   0  0  0  0  0  0  0  0  0  0  0  0
  151.5741  136.5409  187.7516 C   0  0  0  0  0  0  0  0  0  0  0  0
  150.9510  137.0068  186.7612 O   0  0  0  0  0  0  0  0  0  0  0  0
  150.8652  135.7242  188.6824 N   0  0  0  0  0  0  0  0  0  0  0  0
  149.5718  135.4442  188.5314 O   0  0  0  0  0  0  0  0  0  0  0  0
  151.3591  135.3255  189.5121 H   0  0  0  0  0  0  0  0  0  0  0  0
  148.9678  136.0126  189.0702 H   0  0  0  0  0  0  0  0  0  0  0  0
  155.7386  140.1706  184.0183 C   0  0  0  0  0  0  0  0  0  0  0  0
  155.7474  141.3471  183.5872 O   0  0  0  0  0  0  0  0  0  0  0  0
  156.9250  139.6247  184.5316 N   0  0  0  0  0  0  0  0  0  0  0  0
  156.9468  138.6598  184.8939 H   0  0  0  0  0  0  0  0  0  0  0  0
  158.1526  140.3894  184.5714 C   0  0  0  0  0  0  0  0  0  0  0  0
  159.1165  140.3715  183.6683 N   0  0  0  0  0  0  0  0  0  0  0  0
  160.1662  141.1115  183.8315 C   0  0  0  0  0  0  0  0  0  0  0  0
  160.2258  141.8931  184.9578 C   0  0  0  0  0  0  0  0  0  0  0  0
  158.7383  141.5002  185.7166 S   0  0  0  0  0  0  0  0  0  0  0  0
  153.6266  139.9427  182.8740 C   0  0  0  0  0  0  0  0  0  0  0  0
  152.5854  139.0358  182.3934 C   0  0  0  0  0  0  0  0  0  0  0  0
  152.2030  137.8608  183.0216 C   0  0  0  0  0  0  0  0  0  0  0  0
  151.1846  137.2979  182.3153 N   0  0  0  0  0  0  0  0  0  0  0  0
  150.9143  138.0852  181.2577 C   0  0  0  0  0  0  0  0  0  0  0  0
  149.9833  137.9427  180.2480 C   0  0  0  0  0  0  0  0  0  0  0  0
  149.9202  138.9030  179.2590 C   0  0  0  0  0  0  0  0  0  0  0  0
  150.7589  140.0021  179.2467 C   0  0  0  0  0  0  0  0  0  0  0  0
  151.6784  140.1077  180.2782 C   0  0  0  0  0  0  0  0  0  0  0  0
  151.7875  139.1817  181.2931 C   0  0  0  0  0  0  0  0  0  0  0  0
  150.6895  136.3966  182.5549 H   0  0  0  0  0  0  0  0  0  0  0  0
  8  9  1  0  0  0
  9 10  1  0  0  0
  9  7  1  0  0  0
  7  6  1  0  0  0
  6 11  1  0  0  0
 11 12  1  0  0  0
 12 13  2  0  0  0
 12 14  1  0  0  0
 14 15  1  0  0  0
  6  2  1  0  0  0
  2  3  2  0  0  0
  2  4  1  0  0  0
  4  1  1  0  0  0
  1 27  1  0  0  0
 27 28  1  0  0  0
 28 29  2  0  0  0
 29 30  1  0  0  0
 30 31  1  0  0  0
 31 32  2  0  0  0
 32 33  1  0  0  0
 33 34  2  0  0  0
 34 35  1  0  0  0
 35 36  2  0  0  0
  1 18  1  0  0  0
 18 19  2  0  0  0
 18 20  1  0  0  0
 20 22  1  0  0  0
 22 23  2  0  0  0
 23 24  1  0  0  0
 24 25  2  0  0  0
 25 26  1  0  0  0
 36 28  1  0  0  0
 26 22  1  0  0  0
 36 31  1  0  0  0
 14 16  1  0  0  0
 15 17  1  0  0  0
  4  5  1  0  0  0
 30 37  1  0  0  0
 20 21  1  0  0  0
M  END
> <minimizedAffinity>
-7.20822

> <CNNscore>
0.3472376764

> <CNNaffinity>
5.9510293007

> <CNN_VS>
2.0664215088

> <CNNaffinity_variance>
0.1094895378

$$$$
[H]ON([H])C(=O)C([H])([H])[C@]([H])(C(=O)N([H])[C@]([H])(C(=O)N([H])c1nc([H])c([H])s1)C([H])([H])c1c([H])n([H])c2c([H])c([H])c([H])c([H])c12)C([H])([H])C([H])(C([H])([H])[H])C([H])([H])[H]


 37 39  0  0  0  0  0  0  0  0999 V2000
  155.1909  138.7361  184.9326 C   0  0  0  0  0  0  0  0  0  0  0  0
  157.1877  140.2091  184.4885 C   0  0  0  0  0  0  0  0  0  0  0  0
  157.8842  139.2165  184.2119 O   0  0  0  0  0  0  0  0  0  0  0  0
  155.8362  140.0142  184.8539 N   0  0  0  0  0  0  0  0  0  0  0  0
  155.2685  140.8551  185.0810 H   0  0  0  0  0  0  0  0  0  0  0  0
  157.8032  141.5541  184.4223 C   0  0  0  0  0  0  0  0  0  0  0  0
  157.4653  142.0814  183.0298 C   0  0  0  0  0  0  0  0  0  0  0  0
  158.8087  143.5175  181.4833 C   0  0  0  0  0  0  0  0  0  0  0  0
  158.6328  142.1428  182.1068 C   0  0  0  0  0  0  0  0  0  0  0  0
  158.4604  141.1214  180.9716 C   0  0  0  0  0  0  0  0  0  0  0  0
  159.2749  141.4955  184.6226 C   0  0  0  0  0  0  0  0  0  0  0  0
  159.7552  142.0774  185.8764 C   0  0  0  0  0  0  0  0  0  0  0  0
  159.0776  141.8990  186.9229 O   0  0  0  0  0  0  0  0  0  0  0  0
  160.9591  142.8384  185.9631 N   0  0  0  0  0  0  0  0  0  0  0  0
  161.3810  143.3604  187.1136 O   0  0  0  0  0  0  0  0  0  0  0  0
  161.5392  143.0006  185.1097 H   0  0  0  0  0  0  0  0  0  0  0  0
  161.1552  144.3158  187.2330 H   0  0  0  0  0  0  0  0  0  0  0  0
  154.2278  138.5237  183.8405 C   0  0  0  0  0  0  0  0  0  0  0  0
  153.8552  137.3609  183.5589 O   0  0  0  0  0  0  0  0  0  0  0  0
  153.7130  139.6009  183.1032 N   0  0  0  0  0  0  0  0  0  0  0  0
  154.0011  140.5681  183.3136 H   0  0  0  0  0  0  0  0  0  0  0  0
  152.7661  139.3964  182.0285 C   0  0  0  0  0  0  0  0  0  0  0  0
  152.9363  139.7268  180.7609 N   0  0  0  0  0  0  0  0  0  0  0  0
  152.0002  139.4835  179.9004 C   0  0  0  0  0  0  0  0  0  0  0  0
  150.8546  138.8823  180.3580 C   0  0  0  0  0  0  0  0  0  0  0  0
  151.2130  138.7063  182.0264 S   0  0  0  0  0  0  0  0  0  0  0  0
  154.4862  138.4622  186.2387 C   0  0  0  0  0  0  0  0  0  0  0  0
  155.2586  137.6822  187.2044 C   0  0  0  0  0  0  0  0  0  0  0  0
  156.0914  136.6214  186.8845 C   0  0  0  0  0  0  0  0  0  0  0  0
  156.6734  136.1617  188.0260 N   0  0  0  0  0  0  0  0  0  0  0  0
  156.2299  136.9031  189.0580 C   0  0  0  0  0  0  0  0  0  0  0  0
  156.5149  136.8246  190.4068 C   0  0  0  0  0  0  0  0  0  0  0  0
  155.9048  137.7119  191.2697 C   0  0  0  0  0  0  0  0  0  0  0  0
  155.0179  138.6760  190.8274 C   0  0  0  0  0  0  0  0  0  0  0  0
  154.7596  138.7211  189.4666 C   0  0  0  0  0  0  0  0  0  0  0  0
  155.3390  137.8630  188.5570 C   0  0  0  0  0  0  0  0  0  0  0  0
  157.3571  135.3598  188.0925 H   0  0  0  0  0  0  0  0  0  0  0  0
  8  9  1  0  0  0
  9 10  1  0  0  0
  9  7  1  0  0  0
  7  6  1  0  0  0
  6 11  1  0  0  0
 11 12  1  0  0  0
 12 13  2  0  0  0
 12 14  1  0  0  0
 14 15  1  0  0  0
  6  2  1  0  0  0
  2  3  2  0  0  0
  2  4  1  0  0  0
  4  1  1  0  0  0
  1 27  1  0  0  0
 27 28  1  0  0  0
 28 29  2  0  0  0
 29 30  1  0  0  0
 30 31  1  0  0  0
 31 32  2  0  0  0
 32 33  1  0  0  0
 33 34  2  0  0  0
 34 35  1  0  0  0
 35 36  2  0  0  0
  1 18  1  0  0  0
 18 19  2  0  0  0
 18 20  1  0  0  0
 20 22  1  0  0  0
 22 23  2  0  0  0
 23 24  1  0  0  0
 24 25  2  0  0  0
 25 26  1  0  0  0
 36 28  1  0  0  0
 26 22  1  0  0  0
 36 31  1  0  0  0
 14 16  1  0  0  0
 15 17  1  0  0  0
  4  5  1  0  0  0
 30 37  1  0  0  0
 20 21  1  0  0  0
M  END
> <minimizedAffinity>
-7.92600

> <CNNscore>
0.3465027809

> <CNNaffinity>
6.4963073730

> <CNN_VS>
2.2509884834

> <CNNaffinity_variance>
0.0770827159

$$$$
[H]ON([H])C(=O)C([H])([H])[C@]([H])(C(=O)N([H])[C@]([H])(C(=O)N([H])c1nc([H])c([H])s1)C([H])([H])c1c([H])n([H])c2c([H])c([H])c([H])c([H])c12)C([H])([H])C([H])(C([H])([H])[H])C([H])([H])[H]


 37 39  0  0  0  0  0  0  0  0999 V2000
  154.0024  138.4815  184.7089 C   0  0  0  0  0  0  0  0  0  0  0  0
  155.3325  140.3778  183.7144 C   0  0  0  0  0  0  0  0  0  0  0  0
  154.3239  141.1053  183.7008 O   0  0  0  0  0  0  0  0  0  0  0  0
  155.2164  139.0592  184.2101 N   0  0  0  0  0  0  0  0  0  0  0  0
  156.0699  138.4653  184.2150 H   0  0  0  0  0  0  0  0  0  0  0  0
  156.6137  140.9240  183.2119 C   0  0  0  0  0  0  0  0  0  0  0  0
  157.3775  141.3655  184.4580 C   0  0  0  0  0  0  0  0  0  0  0  0
  159.8513  141.7382  184.4322 C   0  0  0  0  0  0  0  0  0  0  0  0
  158.7205  140.7366  184.5985 C   0  0  0  0  0  0  0  0  0  0  0  0
  158.8986  139.6346  183.5423 C   0  0  0  0  0  0  0  0  0  0  0  0
  156.3987  142.0700  182.2901 C   0  0  0  0  0  0  0  0  0  0  0  0
  157.4499  142.2706  181.2919 C   0  0  0  0  0  0  0  0  0  0  0  0
  158.3131  143.1647  181.4961 O   0  0  0  0  0  0  0  0  0  0  0  0
  157.5380  141.4957  180.0971 N   0  0  0  0  0  0  0  0  0  0  0  0
  158.5024  141.6922  179.1996 O   0  0  0  0  0  0  0  0  0  0  0  0
  156.8345  140.7479  179.9043 H   0  0  0  0  0  0  0  0  0  0  0  0
  158.2321  142.2496  178.4286 H   0  0  0  0  0  0  0  0  0  0  0  0
  154.1479  137.9604  186.0774 C   0  0  0  0  0  0  0  0  0  0  0  0
  154.9195  136.9976  186.2962 O   0  0  0  0  0  0  0  0  0  0  0  0
  153.4385  138.5217  187.1500 N   0  0  0  0  0  0  0  0  0  0  0  0
  152.7977  139.3151  186.9996 H   0  0  0  0  0  0  0  0  0  0  0  0
  153.5785  138.0122  188.4970 C   0  0  0  0  0  0  0  0  0  0  0  0
  152.7658  137.1649  189.1026 N   0  0  0  0  0  0  0  0  0  0  0  0
  153.0136  136.7908  190.3169 C   0  0  0  0  0  0  0  0  0  0  0  0
  154.1310  137.3038  190.9263 C   0  0  0  0  0  0  0  0  0  0  0  0
  154.7579  138.3076  189.6845 S   0  0  0  0  0  0  0  0  0  0  0  0
  153.4234  137.3848  183.8490 C   0  0  0  0  0  0  0  0  0  0  0  0
  152.1119  137.6796  183.2740 C   0  0  0  0  0  0  0  0  0  0  0  0
  150.9031  137.2243  183.7769 C   0  0  0  0  0  0  0  0  0  0  0  0
  149.8942  137.7253  183.0127 N   0  0  0  0  0  0  0  0  0  0  0  0
  150.4333  138.4837  182.0404 C   0  0  0  0  0  0  0  0  0  0  0  0
  149.8330  139.1913  181.0178 C   0  0  0  0  0  0  0  0  0  0  0  0
  150.6296  139.8881  180.1323 C   0  0  0  0  0  0  0  0  0  0  0  0
  152.0083  139.9002  180.2359 C   0  0  0  0  0  0  0  0  0  0  0  0
  152.5707  139.1778  181.2763 C   0  0  0  0  0  0  0  0  0  0  0  0
  151.8272  138.4641  182.1914 C   0  0  0  0  0  0  0  0  0  0  0  0
  148.8630  137.5497  183.1567 H   0  0  0  0  0  0  0  0  0  0  0  0
  8  9  1  0  0  0
  9 10  1  0  0  0
  9  7  1  0  0  0
  7  6  1  0  0  0
  6 11  1  0  0  0
 11 12  1  0  0  0
 12 13  2  0  0  0
 12 14  1  0  0  0
 14 15  1  0  0  0
  6  2  1  0  0  0
  2  3  2  0  0  0
  2  4  1  0  0  0
  4  1  1  0  0  0
  1 27  1  0  0  0
 27 28  1  0  0  0
 28 29  2  0  0  0
 29 30  1  0  0  0
 30 31  1  0  0  0
 31 32  2  0  0  0
 32 33  1  0  0  0
 33 34  2  0  0  0
 34 35  1  0  0  0
 35 36  2  0  0  0
  1 18  1  0  0  0
 18 19  2  0  0  0
 18 20  1  0  0  0
 20 22  1  0  0  0
 22 23  2  0  0  0
 23 24  1  0  0  0
 24 25  2  0  0  0
 25 26  1  0  0  0
 36 28  1  0  0  0
 26 22  1  0  0  0
 36 31  1  0  0  0
 14 16  1  0  0  0
 15 17  1  0  0  0
  4  5  1  0  0  0
 30 37  1  0  0  0
 20 21  1  0  0  0
M  END
> <minimizedAffinity>
-7.91530

> <CNNscore>
0.3115905225

> <CNNaffinity>
6.1237578392

> <CNN_VS>
1.9081048965

> <CNNaffinity_variance>
0.2043974102

$$$$
[H]ON([H])C(=O)C([H])([H])[C@]([H])(C(=O)N([H])[C@]([H])(C(=O)N([H])c1nc([H])c([H])s1)C([H])([H])c1c([H])n([H])c2c([H])c([H])c([H])c([H])c12)C([H])([H])C([H])(C([H])([H])[H])C([H])([H])[H]


 37 39  0  0  0  0  0  0  0  0999 V2000
  155.1229  139.4447  184.4709 C   0  0  0  0  0  0  0  0  0  0  0  0
  154.3243  138.4413  186.6410 C   0  0  0  0  0  0  0  0  0  0  0  0
  153.3260  139.1831  186.6403 O   0  0  0  0  0  0  0  0  0  0  0  0
  155.2480  138.5391  185.5755 N   0  0  0  0  0  0  0  0  0  0  0  0
  156.0762  137.9107  185.5918 H   0  0  0  0  0  0  0  0  0  0  0  0
  154.5028  137.4854  187.7576 C   0  0  0  0  0  0  0  0  0  0  0  0
  153.9687  138.2073  188.9924 C   0  0  0  0  0  0  0  0  0  0  0  0
  153.4164  136.9625  191.0911 C   0  0  0  0  0  0  0  0  0  0  0  0
  154.4897  137.6693  190.2800 C   0  0  0  0  0  0  0  0  0  0  0  0
  155.0607  138.8115  191.1349 C   0  0  0  0  0  0  0  0  0  0  0  0
  155.9302  137.1129  187.9392 C   0  0  0  0  0  0  0  0  0  0  0  0
  156.2222  135.6854  187.8033 C   0  0  0  0  0  0  0  0  0  0  0  0
  155.2659  134.8671  187.8482 O   0  0  0  0  0  0  0  0  0  0  0  0
  157.5448  135.1817  187.6220 N   0  0  0  0  0  0  0  0  0  0  0  0
  157.7916  133.8785  187.4998 O   0  0  0  0  0  0  0  0  0  0  0  0
  158.3552  135.8397  187.5812 H   0  0  0  0  0  0  0  0  0  0  0  0
  158.0918  133.4421  188.3349 H   0  0  0  0  0  0  0  0  0  0  0  0
  154.0946  139.0193  183.5080 C   0  0  0  0  0  0  0  0  0  0  0  0
  153.8230  137.8019  183.3873 O   0  0  0  0  0  0  0  0  0  0  0  0
  153.4060  139.9520  182.7176 N   0  0  0  0  0  0  0  0  0  0  0  0
  153.6081  140.9599  182.7966 H   0  0  0  0  0  0  0  0  0  0  0  0
  152.3945  139.5379  181.7696 C   0  0  0  0  0  0  0  0  0  0  0  0
  152.4588  139.6525  180.4552 N   0  0  0  0  0  0  0  0  0  0  0  0
  151.4751  139.2370  179.7233 C   0  0  0  0  0  0  0  0  0  0  0  0
  150.3928  138.6872  180.3632 C   0  0  0  0  0  0  0  0  0  0  0  0
  150.8770  138.8096  182.0044 S   0  0  0  0  0  0  0  0  0  0  0  0
  156.4019  139.6956  183.7101 C   0  0  0  0  0  0  0  0  0  0  0  0
  156.5641  141.0596  183.2094 C   0  0  0  0  0  0  0  0  0  0  0  0
  156.0137  142.1907  183.7919 C   0  0  0  0  0  0  0  0  0  0  0  0
  156.4039  143.2837  183.0805 N   0  0  0  0  0  0  0  0  0  0  0  0
  157.1850  142.8732  182.0642 C   0  0  0  0  0  0  0  0  0  0  0  0
  157.8116  143.5938  181.0668 C   0  0  0  0  0  0  0  0  0  0  0  0
  158.5565  142.9167  180.1229 C   0  0  0  0  0  0  0  0  0  0  0  0
  158.6950  141.5412  180.1436 C   0  0  0  0  0  0  0  0  0  0  0  0
  158.0505  140.8559  181.1613 C   0  0  0  0  0  0  0  0  0  0  0  0
  157.2944  141.4770  182.1319 C   0  0  0  0  0  0  0  0  0  0  0  0
  156.1397  144.2844  183.2891 H   0  0  0  0  0  0  0  0  0  0  0  0
  8  9  1  0  0  0
  9 10  1  0  0  0
  9  7  1  0  0  0
  7  6  1  0  0  0
  6 11  1  0  0  0
 11 12  1  0  0  0
 12 13  2  0  0  0
 12 14  1  0  0  0
 14 15  1  0  0  0
  6  2  1  0  0  0
  2  3  2  0  0  0
  2  4  1  0  0  0
  4  1  1  0  0  0
  1 27  1  0  0  0
 27 28  1  0  0  0
 28 29  2  0  0  0
 29 30  1  0  0  0
 30 31  1  0  0  0
 31 32  2  0  0  0
 32 33  1  0  0  0
 33 34  2  0  0  0
 34 35  1  0  0  0
 35 36  2  0  0  0
  1 18  1  0  0  0
 18 19  2  0  0  0
 18 20  1  0  0  0
 20 22  1  0  0  0
 22 23  2  0  0  0
 23 24  1  0  0  0
 24 25  2  0  0  0
 25 26  1  0  0  0
 36 28  1  0  0  0
 26 22  1  0  0  0
 36 31  1  0  0  0
 14 16  1  0  0  0
 15 17  1  0  0  0
  4  5  1  0  0  0
 30 37  1  0  0  0
 20 21  1  0  0  0
M  END
> <minimizedAffinity>
-7.41907

> <CNNscore>
0.3046781123

> <CNNaffinity>
6.2296705246

> <CNN_VS>
1.8980442286

> <CNNaffinity_variance>
0.0591867566

$$$$
[H]ON([H])C(=O)C([H])([H])[C@]([H])(C(=O)N([H])[C@]([H])(C(=O)N([H])c1nc([H])c([H])s1)C([H])([H])c1c([H])n([H])c2c([H])c([H])c([H])c([H])c12)C([H])([H])C([H])(C([H])([H])[H])C([H])([H])[H]


 37 39  0  0  0  0  0  0  0  0999 V2000
  155.0505  139.8706  183.5356 C   0  0  0  0  0  0  0  0  0  0  0  0
  157.4735  140.5512  183.3947 C   0  0  0  0  0  0  0  0  0  0  0  0
  157.8357  139.3759  183.5803 O   0  0  0  0  0  0  0  0  0  0  0  0
  156.0908  140.8427  183.3650 N   0  0  0  0  0  0  0  0  0  0  0  0
  155.8060  141.8303  183.2078 H   0  0  0  0  0  0  0  0  0  0  0  0
  158.5064  141.5961  183.2111 C   0  0  0  0  0  0  0  0  0  0  0  0
  158.8389  141.5736  181.7211 C   0  0  0  0  0  0  0  0  0  0  0  0
  158.4034  142.5267  179.4493 C   0  0  0  0  0  0  0  0  0  0  0  0
  158.2370  142.6971  180.9502 C   0  0  0  0  0  0  0  0  0  0  0  0
  158.8941  144.0255  181.3565 C   0  0  0  0  0  0  0  0  0  0  0  0
  159.7178  141.3208  184.0272 C   0  0  0  0  0  0  0  0  0  0  0  0
  160.0639  142.3609  184.9966 C   0  0  0  0  0  0  0  0  0  0  0  0
  160.4636  143.4758  184.5683 O   0  0  0  0  0  0  0  0  0  0  0  0
  159.9674  142.1652  186.4066 N   0  0  0  0  0  0  0  0  0  0  0  0
  160.2865  143.1240  187.2743 O   0  0  0  0  0  0  0  0  0  0  0  0
  159.6383  141.2497  186.7873 H   0  0  0  0  0  0  0  0  0  0  0  0
  161.1954  143.0409  187.6551 H   0  0  0  0  0  0  0  0  0  0  0  0
  153.9030  140.1124  182.6465 C   0  0  0  0  0  0  0  0  0  0  0  0
  153.4711  141.2787  182.4938 O   0  0  0  0  0  0  0  0  0  0  0  0
  153.2783  139.0598  181.9606 N   0  0  0  0  0  0  0  0  0  0  0  0
  153.6130  138.0905  182.0665 H   0  0  0  0  0  0  0  0  0  0  0  0
  152.1497  139.2931  181.0858 C   0  0  0  0  0  0  0  0  0  0  0  0
  152.1970  139.7789  179.8584 N   0  0  0  0  0  0  0  0  0  0  0  0
  151.1026  139.9360  179.1849 C   0  0  0  0  0  0  0  0  0  0  0  0
  149.9241  139.5828  179.7928 C   0  0  0  0  0  0  0  0  0  0  0  0
  150.4856  139.0390  181.3199 S   0  0  0  0  0  0  0  0  0  0  0  0
  154.5309  139.7406  184.9465 C   0  0  0  0  0  0  0  0  0  0  0  0
  154.3600  138.3668  185.4164 C   0  0  0  0  0  0  0  0  0  0  0  0
  154.4869  137.2350  184.6263 C   0  0  0  0  0  0  0  0  0  0  0  0
  154.2984  136.1341  185.4045 N   0  0  0  0  0  0  0  0  0  0  0  0
  154.0550  136.5403  186.6643 C   0  0  0  0  0  0  0  0  0  0  0  0
  153.7930  135.8110  187.8071 C   0  0  0  0  0  0  0  0  0  0  0  0
  153.5613  136.4844  188.9891 C   0  0  0  0  0  0  0  0  0  0  0  0
  153.5827  137.8647  189.0656 C   0  0  0  0  0  0  0  0  0  0  0  0
  153.8499  138.5588  187.8961 C   0  0  0  0  0  0  0  0  0  0  0  0
  154.0899  137.9418  186.6873 C   0  0  0  0  0  0  0  0  0  0  0  0
  154.3363  135.1310  185.0771 H   0  0  0  0  0  0  0  0  0  0  0  0
  8  9  1  0  0  0
  9 10  1  0  0  0
  9  7  1  0  0  0
  7  6  1  0  0  0
  6 11  1  0  0  0
 11 12  1  0  0  0
 12 13  2  0  0  0
 12 14  1  0  0  0
 14 15  1  0  0  0
  6  2  1  0  0  0
  2  3  2  0  0  0
  2  4  1  0  0  0
  4  1  1  0  0  0
  1 27  1  0  0  0
 27 28  1  0  0  0
 28 29  2  0  0  0
 29 30  1  0  0  0
 30 31  1  0  0  0
 31 32  2  0  0  0
 32 33  1  0  0  0
 33 34  2  0  0  0
 34 35  1  0  0  0
 35 36  2  0  0  0
  1 18  1  0  0  0
 18 19  2  0  0  0
 18 20  1  0  0  0
 20 22  1  0  0  0
 22 23  2  0  0  0
 23 24  1  0  0  0
 24 25  2  0  0  0
 25 26  1  0  0  0
 36 28  1  0  0  0
 26 22  1  0  0  0
 36 31  1  0  0  0
 14 16  1  0  0  0
 15 17  1  0  0  0
  4  5  1  0  0  0
 30 37  1  0  0  0
 20 21  1  0  0  0
M  END
> <minimizedAffinity>
-7.77072

> <CNNscore>
0.2527852058

> <CNNaffinity>
6.4247269630

> <CNN_VS>
1.6240758896

> <CNNaffinity_variance>
0.0538831539

$$$$
[H]ON([H])C(=O)C([H])([H])[C@]([H])(C(=O)N([H])[C@]([H])(C(=O)N([H])c1nc([H])c([H])s1)C([H])([H])c1c([H])n([H])c2c([H])c([H])c([H])c([H])c12)C([H])([H])C([H])(C([H])([H])[H])C([H])([H])[H]


 37 39  0  0  0  0  0  0  0  0999 V2000
  154.2845  138.5735  184.8000 C   0  0  0  0  0  0  0  0  0  0  0  0
  155.6517  140.4671  183.8519 C   0  0  0  0  0  0  0  0  0  0  0  0
  154.6268  141.1523  183.6881 O   0  0  0  0  0  0  0  0  0  0  0  0
  155.5260  139.1723  184.4048 N   0  0  0  0  0  0  0  0  0  0  0  0
  156.3932  138.6138  184.5356 H   0  0  0  0  0  0  0  0  0  0  0  0
  156.9615  141.0370  183.4620 C   0  0  0  0  0  0  0  0  0  0  0  0
  156.9272  141.1141  181.9375 C   0  0  0  0  0  0  0  0  0  0  0  0
  158.7370  142.4963  180.9016 C   0  0  0  0  0  0  0  0  0  0  0  0
  157.2991  142.4489  181.3910 C   0  0  0  0  0  0  0  0  0  0  0  0
  157.1262  143.5270  182.4725 C   0  0  0  0  0  0  0  0  0  0  0  0
  158.0901  140.1866  183.9230 C   0  0  0  0  0  0  0  0  0  0  0  0
  159.3121  140.9117  184.2727 C   0  0  0  0  0  0  0  0  0  0  0  0
  159.2821  141.7103  185.2461 O   0  0  0  0  0  0  0  0  0  0  0  0
  160.5363  140.7517  183.5573 N   0  0  0  0  0  0  0  0  0  0  0  0
  161.6392  141.4202  183.8904 O   0  0  0  0  0  0  0  0  0  0  0  0
  160.5874  140.0953  182.7463 H   0  0  0  0  0  0  0  0  0  0  0  0
  161.8054  142.2274  183.3437 H   0  0  0  0  0  0  0  0  0  0  0  0
  154.3336  138.0247  186.1646 C   0  0  0  0  0  0  0  0  0  0  0  0
  155.0461  137.0223  186.4052 O   0  0  0  0  0  0  0  0  0  0  0  0
  153.5967  138.6028  187.2093 N   0  0  0  0  0  0  0  0  0  0  0  0
  153.0029  139.4285  187.0406 H   0  0  0  0  0  0  0  0  0  0  0  0
  153.6419  138.0661  188.5523 C   0  0  0  0  0  0  0  0  0  0  0  0
  152.7913  137.2047  189.0809 N   0  0  0  0  0  0  0  0  0  0  0  0
  152.9530  136.8063  190.3020 C   0  0  0  0  0  0  0  0  0  0  0  0
  154.0219  137.3095  191.0001 C   0  0  0  0  0  0  0  0  0  0  0  0
  154.7322  138.3401  189.8269 S   0  0  0  0  0  0  0  0  0  0  0  0
  153.7821  137.4902  183.8771 C   0  0  0  0  0  0  0  0  0  0  0  0
  152.4351  137.7045  183.3505 C   0  0  0  0  0  0  0  0  0  0  0  0
  151.2805  137.1377  183.8670 C   0  0  0  0  0  0  0  0  0  0  0  0
  150.2135  137.5882  183.1517 N   0  0  0  0  0  0  0  0  0  0  0  0
  150.6635  138.4233  182.1970 C   0  0  0  0  0  0  0  0  0  0  0  0
  149.9801  139.1214  181.2210 C   0  0  0  0  0  0  0  0  0  0  0  0
  150.6940  139.9117  180.3435 C   0  0  0  0  0  0  0  0  0  0  0  0
  152.0702  140.0267  180.4100 C   0  0  0  0  0  0  0  0  0  0  0  0
  152.7174  139.3102  181.4042 C   0  0  0  0  0  0  0  0  0  0  0  0
  152.0587  138.5061  182.3091 C   0  0  0  0  0  0  0  0  0  0  0  0
  149.2036  137.3277  183.3164 H   0  0  0  0  0  0  0  0  0  0  0  0
  8  9  1  0  0  0
  9 10  1  0  0  0
  9  7  1  0  0  0
  7  6  1  0  0  0
  6 11  1  0  0  0
 11 12  1  0  0  0
 12 13  2  0  0  0
 12 14  1  0  0  0
 14 15  1  0  0  0
  6  2  1  0  0  0
  2  3  2  0  0  0
  2  4  1  0  0  0
  4  1  1  0  0  0
  1 27  1  0  0  0
 27 28  1  0  0  0
 28 29  2  0  0  0
 29 30  1  0  0  0
 30 31  1  0  0  0
 31 32  2  0  0  0
 32 33  1  0  0  0
 33 34  2  0  0  0
 34 35  1  0  0  0
 35 36  2  0  0  0
  1 18  1  0  0  0
 18 19  2  0  0  0
 18 20  1  0  0  0
 20 22  1  0  0  0
 22 23  2  0  0  0
 23 24  1  0  0  0
 24 25  2  0  0  0
 25 26  1  0  0  0
 36 28  1  0  0  0
 26 22  1  0  0  0
 36 31  1  0  0  0
 14 16  1  0  0  0
 15 17  1  0  0  0
  4  5  1  0  0  0
 30 37  1  0  0  0
 20 21  1  0  0  0
M  END
> <minimizedAffinity>
-7.54829

> <CNNscore>
0.2161058038

> <CNNaffinity>
6.0208172798

> <CNN_VS>
1.3011335135

> <CNNaffinity_variance>
0.1852705777

$$$$
[H]ON([H])C(=O)C([H])([H])[C@]([H])(C(=O)N([H])[C@]([H])(C(=O)N([H])c1nc([H])c([H])s1)C([H])([H])c1c([H])n([H])c2c([H])c([H])c([H])c([H])c12)C([H])([H])C([H])(C([H])([H])[H])C([H])([H])[H]


 37 39  0  0  0  0  0  0  0  0999 V2000
  153.9372  139.0776  184.2719 C   0  0  0  0  0  0  0  0  0  0  0  0
  155.6319  140.8119  183.5836 C   0  0  0  0  0  0  0  0  0  0  0  0
  154.8874  141.7262  183.9793 O   0  0  0  0  0  0  0  0  0  0  0  0
  155.1961  139.4734  183.7110 N   0  0  0  0  0  0  0  0  0  0  0  0
  155.8317  138.7218  183.3759 H   0  0  0  0  0  0  0  0  0  0  0  0
  156.9449  141.1639  182.9967 C   0  0  0  0  0  0  0  0  0  0  0  0
  157.7734  141.7014  184.1612 C   0  0  0  0  0  0  0  0  0  0  0  0
  160.2143  141.7565  183.6155 C   0  0  0  0  0  0  0  0  0  0  0  0
  159.0898  141.0251  184.3296 C   0  0  0  0  0  0  0  0  0  0  0  0
  159.0212  139.5941  183.7734 C   0  0  0  0  0  0  0  0  0  0  0  0
  156.8120  142.1866  181.9262 C   0  0  0  0  0  0  0  0  0  0  0  0
  157.7044  142.0066  180.7805 C   0  0  0  0  0  0  0  0  0  0  0  0
  157.9931  140.8353  180.4188 O   0  0  0  0  0  0  0  0  0  0  0  0
  158.2610  143.1025  180.0558 N   0  0  0  0  0  0  0  0  0  0  0  0
  159.0715  142.9195  179.0148 O   0  0  0  0  0  0  0  0  0  0  0  0
  158.0370  144.0837  180.3356 H   0  0  0  0  0  0  0  0  0  0  0  0
  160.0335  142.9982  179.2305 H   0  0  0  0  0  0  0  0  0  0  0  0
  154.0833  138.4460  185.5930 C   0  0  0  0  0  0  0  0  0  0  0  0
  155.0125  137.6290  185.7910 O   0  0  0  0  0  0  0  0  0  0  0  0
  153.2006  138.7408  186.6431 N   0  0  0  0  0  0  0  0  0  0  0  0
  152.4278  139.4098  186.5090 H   0  0  0  0  0  0  0  0  0  0  0  0
  153.3406  138.1219  187.9434 C   0  0  0  0  0  0  0  0  0  0  0  0
  154.1573  138.5035  188.9090 N   0  0  0  0  0  0  0  0  0  0  0  0
  154.1787  137.8543  190.0289 C   0  0  0  0  0  0  0  0  0  0  0  0
  153.3345  136.7804  190.1591 C   0  0  0  0  0  0  0  0  0  0  0  0
  152.5546  136.7810  188.6311 S   0  0  0  0  0  0  0  0  0  0  0  0
  153.1174  138.1574  183.4007 C   0  0  0  0  0  0  0  0  0  0  0  0
  152.4176  138.8139  182.2976 C   0  0  0  0  0  0  0  0  0  0  0  0
  152.7227  140.0706  181.7988 C   0  0  0  0  0  0  0  0  0  0  0  0
  151.8928  140.3404  180.7540 N   0  0  0  0  0  0  0  0  0  0  0  0
  151.0716  139.2884  180.5803 C   0  0  0  0  0  0  0  0  0  0  0  0
  150.0565  139.0840  179.6668 C   0  0  0  0  0  0  0  0  0  0  0  0
  149.3466  137.9016  179.7128 C   0  0  0  0  0  0  0  0  0  0  0  0
  149.6186  136.9160  180.6435 C   0  0  0  0  0  0  0  0  0  0  0  0
  150.6452  137.1606  181.5418 C   0  0  0  0  0  0  0  0  0  0  0  0
  151.3893  138.3207  181.5440 C   0  0  0  0  0  0  0  0  0  0  0  0
  151.8920  141.2245  180.1767 H   0  0  0  0  0  0  0  0  0  0  0  0
  8  9  1  0  0  0
  9 10  1  0  0  0
  9  7  1  0  0  0
  7  6  1  0  0  0
  6 11  1  0  0  0
 11 12  1  0  0  0
 12 13  2  0  0  0
 12 14  1  0  0  0
 14 15  1  0  0  0
  6  2  1  0  0  0
  2  3  2  0  0  0
  2  4  1  0  0  0
  4  1  1  0  0  0
  1 27  1  0  0  0
 27 28  1  0  0  0
 28 29  2  0  0  0
 29 30  1  0  0  0
 30 31  1  0  0  0
 31 32  2  0  0  0
 32 33  1  0  0  0
 33 34  2  0  0  0
 34 35  1  0  0  0
 35 36  2  0  0  0
  1 18  1  0  0  0
 18 19  2  0  0  0
 18 20  1  0  0  0
 20 22  1  0  0  0
 22 23  2  0  0  0
 23 24  1  0  0  0
 24 25  2  0  0  0
 25 26  1  0  0  0
 36 28  1  0  0  0
 26 22  1  0  0  0
 36 31  1  0  0  0
 14 16  1  0  0  0
 15 17  1  0  0  0
  4  5  1  0  0  0
 30 37  1  0  0  0
 20 21  1  0  0  0
M  END
> <minimizedAffinity>
-7.52990

> <CNNscore>
0.2119484991

> <CNNaffinity>
6.1629447937

> <CNN_VS>
1.3062268496

> <CNNaffinity_variance>
0.0294199847

$$$$
[H]ON([H])C(=O)C([H])([H])[C@]([H])(C(=O)N([H])[C@]([H])(C(=O)N([H])c1nc([H])c([H])s1)C([H])([H])c1c([H])n([H])c2c([H])c([H])c([H])c([H])c12)C([H])([H])C([H])(C([H])([H])[H])C([H])([H])[H]


 37 39  0  0  0  0  0  0  0  0999 V2000
  154.1581  139.2439  184.2171 C   0  0  0  0  0  0  0  0  0  0  0  0
  155.7681  141.1119  183.6953 C   0  0  0  0  0  0  0  0  0  0  0  0
  154.9211  141.9613  184.0239 O   0  0  0  0  0  0  0  0  0  0  0  0
  155.4284  139.7422  183.7767 N   0  0  0  0  0  0  0  0  0  0  0  0
  156.1489  139.0459  183.4989 H   0  0  0  0  0  0  0  0  0  0  0  0
  157.0979  141.5711  183.2336 C   0  0  0  0  0  0  0  0  0  0  0  0
  157.0007  141.6137  181.7105 C   0  0  0  0  0  0  0  0  0  0  0  0
  158.9443  142.7511  180.6208 C   0  0  0  0  0  0  0  0  0  0  0  0
  157.5101  142.8767  181.1071 C   0  0  0  0  0  0  0  0  0  0  0  0
  157.4531  144.0135  182.1397 C   0  0  0  0  0  0  0  0  0  0  0  0
  158.1793  140.6488  183.6687 C   0  0  0  0  0  0  0  0  0  0  0  0
  159.4484  141.2945  184.0063 C   0  0  0  0  0  0  0  0  0  0  0  0
  159.4222  142.3779  184.6479 O   0  0  0  0  0  0  0  0  0  0  0  0
  160.7143  140.7481  183.6391 N   0  0  0  0  0  0  0  0  0  0  0  0
  161.8597  141.3499  183.9554 O   0  0  0  0  0  0  0  0  0  0  0  0
  160.7633  139.8505  183.1068 H   0  0  0  0  0  0  0  0  0  0  0  0
  162.2492  141.8911  183.2250 H   0  0  0  0  0  0  0  0  0  0  0  0
  154.2363  138.5874  185.5318 C   0  0  0  0  0  0  0  0  0  0  0  0
  155.1656  137.7808  185.7685 O   0  0  0  0  0  0  0  0  0  0  0  0
  153.2882  138.8467  186.5332 N   0  0  0  0  0  0  0  0  0  0  0  0
  152.5137  139.5064  186.3667 H   0  0  0  0  0  0  0  0  0  0  0  0
  153.3613  138.2031  187.8271 C   0  0  0  0  0  0  0  0  0  0  0  0
  154.1205  138.5712  188.8435 N   0  0  0  0  0  0  0  0  0  0  0  0
  154.0853  137.9002  189.9501 C   0  0  0  0  0  0  0  0  0  0  0  0
  153.2439  136.8180  190.0126 C   0  0  0  0  0  0  0  0  0  0  0  0
  152.5495  136.8434  188.4441 S   0  0  0  0  0  0  0  0  0  0  0  0
  153.4840  138.2934  183.2581 C   0  0  0  0  0  0  0  0  0  0  0  0
  152.6549  138.9323  182.2373 C   0  0  0  0  0  0  0  0  0  0  0  0
  152.8521  140.2107  181.7392 C   0  0  0  0  0  0  0  0  0  0  0  0
  151.9176  140.4560  180.7802 N   0  0  0  0  0  0  0  0  0  0  0  0
  151.1355  139.3674  180.6600 C   0  0  0  0  0  0  0  0  0  0  0  0
  150.0517  139.1278  179.8386 C   0  0  0  0  0  0  0  0  0  0  0  0
  149.4066  137.9109  179.9242 C   0  0  0  0  0  0  0  0  0  0  0  0
  149.8102  136.9250  180.8055 C   0  0  0  0  0  0  0  0  0  0  0  0
  150.9021  137.2055  181.6115 C   0  0  0  0  0  0  0  0  0  0  0  0
  151.5865  138.4010  181.5703 C   0  0  0  0  0  0  0  0  0  0  0  0
  151.8213  141.3483  180.2240 H   0  0  0  0  0  0  0  0  0  0  0  0
  8  9  1  0  0  0
  9 10  1  0  0  0
  9  7  1  0  0  0
  7  6  1  0  0  0
  6 11  1  0  0  0
 11 12  1  0  0  0
 12 13  2  0  0  0
 12 14  1  0  0  0
 14 15  1  0  0  0
  6  2  1  0  0  0
  2  3  2  0  0  0
  2  4  1  0  0  0
  4  1  1  0  0  0
  1 27  1  0  0  0
 27 28  1  0  0  0
 28 29  2  0  0  0
 29 30  1  0  0  0
 30 31  1  0  0  0
 31 32  2  0  0  0
 32 33  1  0  0  0
 33 34  2  0  0  0
 34 35  1  0  0  0
 35 36  2  0  0  0
  1 18  1  0  0  0
 18 19  2  0  0  0
 18 20  1  0  0  0
 20 22  1  0  0  0
 22 23  2  0  0  0
 23 24  1  0  0  0
 24 25  2  0  0  0
 25 26  1  0  0  0
 36 28  1  0  0  0
 26 22  1  0  0  0
 36 31  1  0  0  0
 14 16  1  0  0  0
 15 17  1  0  0  0
  4  5  1  0  0  0
 30 37  1  0  0  0
 20 21  1  0  0  0
M  END
> <minimizedAffinity>
-7.48094

> <CNNscore>
0.2066882253

> <CNNaffinity>
6.1594500542

> <CNN_VS>
1.2730858326

> <CNNaffinity_variance>
0.1006261483

$$$$
[H]OC([H])([H])[C@@]1([H])[C@]([H])(O[H])[C@@]([H])(O[H])[C@]([H])(O[H])[C@@]([H])(O[H])[C@]1([H])O[H]


 19 19  0  0  0  0  0  0  0  0999 V2000
  157.3131  141.1039  183.0049 C   0  0  0  0  0  0  0  0  0  0  0  0
  156.8155  141.7919  181.7861 C   0  0  0  0  0  0  0  0  0  0  0  0
  157.2115  141.1176  180.6244 O   0  0  0  0  0  0  0  0  0  0  0  0
  157.2378  143.2336  181.6809 C   0  0  0  0  0  0  0  0  0  0  0  0
  156.4646  144.0133  182.5152 O   0  0  0  0  0  0  0  0  0  0  0  0
  158.7016  143.3988  181.8633 C   0  0  0  0  0  0  0  0  0  0  0  0
  159.3285  142.9335  180.6843 O   0  0  0  0  0  0  0  0  0  0  0  0
  159.2864  142.6602  183.0112 C   0  0  0  0  0  0  0  0  0  0  0  0
  159.9019  143.5785  183.8617 O   0  0  0  0  0  0  0  0  0  0  0  0
  158.2863  141.8792  183.8212 C   0  0  0  0  0  0  0  0  0  0  0  0
  159.0357  140.9430  184.5746 O   0  0  0  0  0  0  0  0  0  0  0  0
  156.6649  141.3962  179.8499 H   0  0  0  0  0  0  0  0  0  0  0  0
  156.9184  144.3488  183.3019 H   0  0  0  0  0  0  0  0  0  0  0  0
  160.1950  142.5187  180.8732 H   0  0  0  0  0  0  0  0  0  0  0  0
  159.2130  144.0477  184.3966 H   0  0  0  0  0  0  0  0  0  0  0  0
  159.8686  141.3938  184.8530 H   0  0  0  0  0  0  0  0  0  0  0  0
  155.0584  141.5483  183.7139 O   0  0  0  0  0  0  0  0  0  0  0  0
  156.1566  140.7081  183.9204 C   0  0  0  0  0  0  0  0  0  0  0  0
  154.2531  140.9711  183.5892 H   0  0  0  0  0  0  0  0  0  0  0  0
 17 18  1  0  0  0
 18  1  1  0  0  0
  1  2  1  0  0  0
  2  3  1  0  0  0
  2  4  1  0  0  0
  4  5  1  0  0  0
  4  6  1  0  0  0
  6  7  1  0  0  0
  6  8  1  0  0  0
  8  9  1  0  0  0
  8 10  1  0  0  0
 10 11  1  0  0  0
 10  1  1  0  0  0
 17 19  1  0  0  0
  3 12  1  0  0  0
  5 13  1  0  0  0
  7 14  1  0  0  0
  9 15  1  0  0  0
 11 16  1  0  0  0
M  END
> <minimizedAffinity>
-5.01205

> <CNNscore>
0.5038722754

> <CNNaffinity>
3.2949290276

> <CNN_VS>
1.6602233648

> <CNNaffinity_variance>
0.1243297905

$$$$
[H]OC([H])([H])[C@@]1([H])[C@]([H])(O[H])[C@@]([H])(O[H])[C@]([H])(O[H])[C@@]([H])(O[H])[C@]1([H])O[H]


 19 19  0  0  0  0  0  0  0  0999 V2000
  158.6850  140.8599  183.3185 C   0  0  0  0  0  0  0  0  0  0  0  0
  158.0765  142.1341  183.7793 C   0  0  0  0  0  0  0  0  0  0  0  0
  156.8843  141.9047  184.4773 O   0  0  0  0  0  0  0  0  0  0  0  0
  157.8118  143.1217  182.6737 C   0  0  0  0  0  0  0  0  0  0  0  0
  158.9870  143.7416  182.3041 O   0  0  0  0  0  0  0  0  0  0  0  0
  157.0571  142.5105  181.5512 C   0  0  0  0  0  0  0  0  0  0  0  0
  155.7199  142.3480  181.9812 O   0  0  0  0  0  0  0  0  0  0  0  0
  157.5533  141.1861  181.0983 C   0  0  0  0  0  0  0  0  0  0  0  0
  157.8887  141.2768  179.7475 O   0  0  0  0  0  0  0  0  0  0  0  0
  158.7643  140.6895  181.8422 C   0  0  0  0  0  0  0  0  0  0  0  0
  158.8386  139.2982  181.5878 O   0  0  0  0  0  0  0  0  0  0  0  0
  156.6316  142.6942  185.0149 H   0  0  0  0  0  0  0  0  0  0  0  0
  159.3405  143.4731  181.4437 H   0  0  0  0  0  0  0  0  0  0  0  0
  155.3084  141.5486  181.5936 H   0  0  0  0  0  0  0  0  0  0  0  0
  158.7601  141.7380  179.6529 H   0  0  0  0  0  0  0  0  0  0  0  0
  158.5656  139.1591  180.6495 H   0  0  0  0  0  0  0  0  0  0  0  0
  160.6416  141.9380  184.2090 O   0  0  0  0  0  0  0  0  0  0  0  0
  160.0966  140.6941  183.8773 C   0  0  0  0  0  0  0  0  0  0  0  0
  161.0077  141.8723  185.1358 H   0  0  0  0  0  0  0  0  0  0  0  0
 17 18  1  0  0  0
 18  1  1  0  0  0
  1  2  1  0  0  0
  2  3  1  0  0  0
  2  4  1  0  0  0
  4  5  1  0  0  0
  4  6  1  0  0  0
  6  7  1  0  0  0
  6  8  1  0  0  0
  8  9  1  0  0  0
  8 10  1  0  0  0
 10 11  1  0  0  0
 10  1  1  0  0  0
 17 19  1  0  0  0
  3 12  1  0  0  0
  5 13  1  0  0  0
  7 14  1  0  0  0
  9 15  1  0  0  0
 11 16  1  0  0  0
M  END
> <minimizedAffinity>
-5.22207

> <CNNscore>
0.4964259863

> <CNNaffinity>
3.3040263653

> <CNN_VS>
1.6402045488

> <CNNaffinity_variance>
0.0481942818

$$$$
[H]OC([H])([H])[C@@]1([H])[C@]([H])(O[H])[C@@]([H])(O[H])[C@]([H])(O[H])[C@@]([H])(O[H])[C@]1([H])O[H]


 19 19  0  0  0  0  0  0  0  0999 V2000
  158.7612  141.7827  181.4634 C   0  0  0  0  0  0  0  0  0  0  0  0
  158.3748  143.0075  182.2096 C   0  0  0  0  0  0  0  0  0  0  0  0
  159.4198  143.4554  183.0273 O   0  0  0  0  0  0  0  0  0  0  0  0
  157.1338  142.8484  183.0478 C   0  0  0  0  0  0  0  0  0  0  0  0
  156.0131  142.9053  182.2460 O   0  0  0  0  0  0  0  0  0  0  0  0
  157.2050  141.6532  183.9250 C   0  0  0  0  0  0  0  0  0  0  0  0
  158.1029  141.9538  184.9751 O   0  0  0  0  0  0  0  0  0  0  0  0
  157.6760  140.4085  183.2662 C   0  0  0  0  0  0  0  0  0  0  0  0
  156.6853  139.4354  183.3975 O   0  0  0  0  0  0  0  0  0  0  0  0
  157.9827  140.5599  181.8001 C   0  0  0  0  0  0  0  0  0  0  0  0
  158.7849  139.4468  181.4492 O   0  0  0  0  0  0  0  0  0  0  0  0
  159.2791  144.3950  183.2983 H   0  0  0  0  0  0  0  0  0  0  0  0
  155.5567  142.0612  182.1170 H   0  0  0  0  0  0  0  0  0  0  0  0
  158.6022  141.1626  185.2636 H   0  0  0  0  0  0  0  0  0  0  0  0
  155.9588  139.6129  182.7483 H   0  0  0  0  0  0  0  0  0  0  0  0
  158.4401  138.6700  181.9513 H   0  0  0  0  0  0  0  0  0  0  0  0
  157.5771  141.2666  179.4348 O   0  0  0  0  0  0  0  0  0  0  0  0
  158.6462  142.0011  179.9563 C   0  0  0  0  0  0  0  0  0  0  0  0
  157.0297  141.8840  178.8722 H   0  0  0  0  0  0  0  0  0  0  0  0
 17 18  1  0  0  0
 18  1  1  0  0  0
  1  2  1  0  0  0
  2  3  1  0  0  0
  2  4  1  0  0  0
  4  5  1  0  0  0
  4  6  1  0  0  0
  6  7  1  0  0  0
  6  8  1  0  0  0
  8  9  1  0  0  0
  8 10  1  0  0  0
 10 11  1  0  0  0
 10  1  1  0  0  0
 17 19  1  0  0  0
  3 12  1  0  0  0
  5 13  1  0  0  0
  7 14  1  0  0  0
  9 15  1  0  0  0
 11 16  1  0  0  0
M  END
> <minimizedAffinity>
-5.44734

> <CNNscore>
0.4800730646

> <CNNaffinity>
3.3977324963

> <CNN_VS>
1.6311599016

> <CNNaffinity_variance>
0.0239888765

$$$$
[H]OC([H])([H])[C@@]1([H])[C@]([H])(O[H])[C@@]([H])(O[H])[C@]([H])(O[H])[C@@]([H])(O[H])[C@]1([H])O[H]


 19 19  0  0  0  0  0  0  0  0999 V2000
  158.2723  141.1093  183.4204 C   0  0  0  0  0  0  0  0  0  0  0  0
  159.0670  142.0154  182.5523 C   0  0  0  0  0  0  0  0  0  0  0  0
  159.5554  143.1117  183.2740 O   0  0  0  0  0  0  0  0  0  0  0  0
  158.3196  142.5198  181.3461 C   0  0  0  0  0  0  0  0  0  0  0  0
  158.2652  141.5367  180.3804 O   0  0  0  0  0  0  0  0  0  0  0  0
  157.0030  143.1002  181.7106 C   0  0  0  0  0  0  0  0  0  0  0  0
  157.2483  144.3540  182.3167 O   0  0  0  0  0  0  0  0  0  0  0  0
  156.1906  142.2904  182.6537 C   0  0  0  0  0  0  0  0  0  0  0  0
  154.9723  141.9904  182.0444 O   0  0  0  0  0  0  0  0  0  0  0  0
  156.8310  140.9926  183.0685 C   0  0  0  0  0  0  0  0  0  0  0  0
  156.1502  140.5743  184.2378 O   0  0  0  0  0  0  0  0  0  0  0  0
  160.2958  143.5522  182.7903 H   0  0  0  0  0  0  0  0  0  0  0  0
  157.3957  141.1289  180.2574 H   0  0  0  0  0  0  0  0  0  0  0  0
  156.5925  144.5540  183.0156 H   0  0  0  0  0  0  0  0  0  0  0  0
  155.1017  141.2616  181.3864 H   0  0  0  0  0  0  0  0  0  0  0  0
  155.1980  140.8057  184.1185 H   0  0  0  0  0  0  0  0  0  0  0  0
  158.6629  139.0830  182.1856 O   0  0  0  0  0  0  0  0  0  0  0  0
  158.8607  139.7001  183.4244 C   0  0  0  0  0  0  0  0  0  0  0  0
  159.5394  138.7061  181.8902 H   0  0  0  0  0  0  0  0  0  0  0  0
 17 18  1  0  0  0
 18  1  1  0  0  0
  1  2  1  0  0  0
  2  3  1  0  0  0
  2  4  1  0  0  0
  4  5  1  0  0  0
  4  6  1  0  0  0
  6  7  1  0  0  0
  6  8  1  0  0  0
  8  9  1  0  0  0
  8 10  1  0  0  0
 10 11  1  0  0  0
 10  1  1  0  0  0
 17 19  1  0  0  0
  3 12  1  0  0  0
  5 13  1  0  0  0
  7 14  1  0  0  0
  9 15  1  0  0  0
 11 16  1  0  0  0
M  END
> <minimizedAffinity>
-5.08053

> <CNNscore>
0.4740295112

> <CNNaffinity>
3.2658088207

> <CNN_VS>
1.5480897427

> <CNNaffinity_variance>
0.0660869703

$$$$
[H]OC([H])([H])[C@@]1([H])[C@]([H])(O[H])[C@@]([H])(O[H])[C@]([H])(O[H])[C@@]([H])(O[H])[C@]1([H])O[H]


 19 19  0  0  0  0  0  0  0  0999 V2000
  157.9002  142.6933  182.1155 C   0  0  0  0  0  0  0  0  0  0  0  0
  158.5366  142.9409  183.4346 C   0  0  0  0  0  0  0  0  0  0  0  0
  159.7534  143.6196  183.2924 O   0  0  0  0  0  0  0  0  0  0  0  0
  158.7658  141.6944  184.2480 C   0  0  0  0  0  0  0  0  0  0  0  0
  157.5821  141.2832  184.8239 O   0  0  0  0  0  0  0  0  0  0  0  0
  159.4709  140.6451  183.4703 C   0  0  0  0  0  0  0  0  0  0  0  0
  160.8226  141.0436  183.3535 O   0  0  0  0  0  0  0  0  0  0  0  0
  158.9467  140.4084  182.1012 C   0  0  0  0  0  0  0  0  0  0  0  0
  158.5593  139.0723  181.9999 O   0  0  0  0  0  0  0  0  0  0  0  0
  157.7618  141.2615  181.7342 C   0  0  0  0  0  0  0  0  0  0  0  0
  157.6662  141.2149  180.3219 O   0  0  0  0  0  0  0  0  0  0  0  0
  160.0333  144.0269  184.1479 H   0  0  0  0  0  0  0  0  0  0  0  0
  157.1930  140.4848  184.4384 H   0  0  0  0  0  0  0  0  0  0  0  0
  161.2121  140.7610  182.5008 H   0  0  0  0  0  0  0  0  0  0  0  0
  157.6886  138.9445  182.4544 H   0  0  0  0  0  0  0  0  0  0  0  0
  157.9012  140.2971  180.0446 H   0  0  0  0  0  0  0  0  0  0  0  0
  155.6672  142.7472  183.0068 O   0  0  0  0  0  0  0  0  0  0  0  0
  156.5104  143.3230  182.0518 C   0  0  0  0  0  0  0  0  0  0  0  0
  155.2277  143.4888  183.5111 H   0  0  0  0  0  0  0  0  0  0  0  0
 17 18  1  0  0  0
 18  1  1  0  0  0
  1  2  1  0  0  0
  2  3  1  0  0  0
  2  4  1  0  0  0
  4  5  1  0  0  0
  4  6  1  0  0  0
  6  7  1  0  0  0
  6  8  1  0  0  0
  8  9  1  0  0  0
  8 10  1  0  0  0
 10 11  1  0  0  0
 10  1  1  0  0  0
 17 19  1  0  0  0
  3 12  1  0  0  0
  5 13  1  0  0  0
  7 14  1  0  0  0
  9 15  1  0  0  0
 11 16  1  0  0  0
M  END
> <minimizedAffinity>
-5.49845

> <CNNscore>
0.4593352079

> <CNNaffinity>
3.2610335350

> <CNN_VS>
1.4979075193

> <CNNaffinity_variance>
0.0203220434

$$$$
[H]OC([H])([H])[C@@]1([H])[C@]([H])(O[H])[C@@]([H])(O[H])[C@]([H])(O[H])[C@@]([H])(O[H])[C@]1([H])O[H]


 19 19  0  0  0  0  0  0  0  0999 V2000
  159.0665  142.3478  183.2148 C   0  0  0  0  0  0  0  0  0  0  0  0
  158.8158  142.8562  181.8418 C   0  0  0  0  0  0  0  0  0  0  0  0
  158.8276  144.2562  181.8083 O   0  0  0  0  0  0  0  0  0  0  0  0
  157.5297  142.3648  181.2318 C   0  0  0  0  0  0  0  0  0  0  0  0
  157.6823  141.0664  180.7927 O   0  0  0  0  0  0  0  0  0  0  0  0
  156.3696  142.5793  182.1325 C   0  0  0  0  0  0  0  0  0  0  0  0
  156.0703  143.9611  182.1127 O   0  0  0  0  0  0  0  0  0  0  0  0
  156.5810  142.1800  183.5472 C   0  0  0  0  0  0  0  0  0  0  0  0
  155.6250  141.2221  183.8848 O   0  0  0  0  0  0  0  0  0  0  0  0
  157.9394  141.5964  183.8311 C   0  0  0  0  0  0  0  0  0  0  0  0
  158.1117  141.6664  185.2350 O   0  0  0  0  0  0  0  0  0  0  0  0
  158.9433  144.5870  180.8845 H   0  0  0  0  0  0  0  0  0  0  0  0
  157.2259  140.3969  181.3227 H   0  0  0  0  0  0  0  0  0  0  0  0
  155.7363  144.2728  182.9787 H   0  0  0  0  0  0  0  0  0  0  0  0
  155.8849  140.3460  183.5029 H   0  0  0  0  0  0  0  0  0  0  0  0
  157.2355  141.4710  185.6457 H   0  0  0  0  0  0  0  0  0  0  0  0
  159.9365  140.1414  183.6130 O   0  0  0  0  0  0  0  0  0  0  0  0
  160.2956  141.4420  183.2469 C   0  0  0  0  0  0  0  0  0  0  0  0
  160.3433  139.5155  182.9496 H   0  0  0  0  0  0  0  0  0  0  0  0
 17 18  1  0  0  0
 18  1  1  0  0  0
  1  2  1  0  0  0
  2  3  1  0  0  0
  2  4  1  0  0  0
  4  5  1  0  0  0
  4  6  1  0  0  0
  6  7  1  0  0  0
  6  8  1  0  0  0
  8  9  1  0  0  0
  8 10  1  0  0  0
 10 11  1  0  0  0
 10  1  1  0  0  0
 17 19  1  0  0  0
  3 12  1  0  0  0
  5 13  1  0  0  0
  7 14  1  0  0  0
  9 15  1  0  0  0
 11 16  1  0  0  0
M  END
> <minimizedAffinity>
-5.23424

> <CNNscore>
0.4570539892

> <CNNaffinity>
3.2899539471

> <CNN_VS>
1.5036865473

> <CNNaffinity_variance>
0.0644864216

$$$$
[H]OC([H])([H])[C@@]1([H])[C@]([H])(O[H])[C@@]([H])(O[H])[C@]([H])(O[H])[C@@]([H])(O[H])[C@]1([H])O[H]


 19 19  0  0  0  0  0  0  0  0999 V2000
  157.8529  142.7485  181.2938 C   0  0  0  0  0  0  0  0  0  0  0  0
  157.1009  141.4680  181.3294 C   0  0  0  0  0  0  0  0  0  0  0  0
  155.7669  141.6724  181.7034 O   0  0  0  0  0  0  0  0  0  0  0  0
  157.7065  140.4267  182.2332 C   0  0  0  0  0  0  0  0  0  0  0  0
  158.7953  139.8448  181.6185 O   0  0  0  0  0  0  0  0  0  0  0  0
  157.9768  140.9594  183.5920 C   0  0  0  0  0  0  0  0  0  0  0  0
  156.7325  141.0800  184.2528 O   0  0  0  0  0  0  0  0  0  0  0  0
  158.6443  142.2853  183.6337 C   0  0  0  0  0  0  0  0  0  0  0  0
  159.8432  142.1560  184.3347 O   0  0  0  0  0  0  0  0  0  0  0  0
  158.9611  142.8636  182.2804 C   0  0  0  0  0  0  0  0  0  0  0  0
  159.1912  144.2457  182.4875 O   0  0  0  0  0  0  0  0  0  0  0  0
  155.2083  140.8945  181.4605 H   0  0  0  0  0  0  0  0  0  0  0  0
  159.6561  140.0943  181.9847 H   0  0  0  0  0  0  0  0  0  0  0  0
  156.7187  141.8446  184.8642 H   0  0  0  0  0  0  0  0  0  0  0  0
  160.5225  141.7301  183.7533 H   0  0  0  0  0  0  0  0  0  0  0  0
  159.6689  144.3354  183.3467 H   0  0  0  0  0  0  0  0  0  0  0  0
  158.4335  141.8218  179.1519 O   0  0  0  0  0  0  0  0  0  0  0  0
  158.4431  142.9980  179.9075 C   0  0  0  0  0  0  0  0  0  0  0  0
  158.0292  142.0343  178.2637 H   0  0  0  0  0  0  0  0  0  0  0  0
 17 18  1  0  0  0
 18  1  1  0  0  0
  1  2  1  0  0  0
  2  3  1  0  0  0
  2  4  1  0  0  0
  4  5  1  0  0  0
  4  6  1  0  0  0
  6  7  1  0  0  0
  6  8  1  0  0  0
  8  9  1  0  0  0
  8 10  1  0  0  0
 10 11  1  0  0  0
 10  1  1  0  0  0
 17 19  1  0  0  0
  3 12  1  0  0  0
  5 13  1  0  0  0
  7 14  1  0  0  0
  9 15  1  0  0  0
 11 16  1  0  0  0
M  END
> <minimizedAffinity>
-5.62164

> <CNNscore>
0.4542624354

> <CNNaffinity>
3.3452911377

> <CNN_VS>
1.5196400881

> <CNNaffinity_variance>
0.0213624723

$$$$
[H]OC([H])([H])[C@@]1([H])[C@]([H])(O[H])[C@@]([H])(O[H])[C@]([H])(O[H])[C@@]([H])(O[H])[C@]1([H])O[H]


 19 19  0  0  0  0  0  0  0  0999 V2000
  159.6452  141.6719  183.0360 C   0  0  0  0  0  0  0  0  0  0  0  0
  158.8961  140.3924  183.1253 C   0  0  0  0  0  0  0  0  0  0  0  0
  158.9774  139.6711  181.9277 O   0  0  0  0  0  0  0  0  0  0  0  0
  157.4462  140.5559  183.4984 C   0  0  0  0  0  0  0  0  0  0  0  0
  157.3317  140.7922  184.8523 O   0  0  0  0  0  0  0  0  0  0  0  0
  156.7598  141.5518  182.6380 C   0  0  0  0  0  0  0  0  0  0  0  0
  156.5612  140.9508  181.3736 O   0  0  0  0  0  0  0  0  0  0  0  0
  157.4963  142.8238  182.4263 C   0  0  0  0  0  0  0  0  0  0  0  0
  156.7003  143.8769  182.8766 O   0  0  0  0  0  0  0  0  0  0  0  0
  158.8169  142.9035  183.1448 C   0  0  0  0  0  0  0  0  0  0  0  0
  159.5415  143.9481  182.5208 O   0  0  0  0  0  0  0  0  0  0  0  0
  158.7326  138.7242  182.0676 H   0  0  0  0  0  0  0  0  0  0  0  0
  157.0869  141.6976  185.0923 H   0  0  0  0  0  0  0  0  0  0  0  0
  156.6219  141.6045  180.6473 H   0  0  0  0  0  0  0  0  0  0  0  0
  156.7321  143.9166  183.8657 H   0  0  0  0  0  0  0  0  0  0  0  0
  158.8935  144.6585  182.2974 H   0  0  0  0  0  0  0  0  0  0  0  0
  161.8833  141.0842  183.6908 O   0  0  0  0  0  0  0  0  0  0  0  0
  160.7272  141.7486  184.1109 C   0  0  0  0  0  0  0  0  0  0  0  0
  162.6576  141.6970  183.8405 H   0  0  0  0  0  0  0  0  0  0  0  0
 17 18  1  0  0  0
 18  1  1  0  0  0
  1  2  1  0  0  0
  2  3  1  0  0  0
  2  4  1  0  0  0
  4  5  1  0  0  0
  4  6  1  0  0  0
  6  7  1  0  0  0
  6  8  1  0  0  0
  8  9  1  0  0  0
  8 10  1  0  0  0
 10 11  1  0  0  0
 10  1  1  0  0  0
 17 19  1  0  0  0
  3 12  1  0  0  0
  5 13  1  0  0  0
  7 14  1  0  0  0
  9 15  1  0  0  0
 11 16  1  0  0  0
M  END
> <minimizedAffinity>
-5.45445

> <CNNscore>
0.4539449215

> <CNNaffinity>
3.1993432045

> <CNN_VS>
1.4523255825

> <CNNaffinity_variance>
0.0610441193

$$$$
[H]OC([H])([H])[C@@]1([H])[C@]([H])(O[H])[C@@]([H])(O[H])[C@]([H])(O[H])[C@@]([H])(O[H])[C@]1([H])O[H]


 19 19  0  0  0  0  0  0  0  0999 V2000
  156.5672  142.0971  182.1241 C   0  0  0  0  0  0  0  0  0  0  0  0
  157.8161  142.0383  181.3222 C   0  0  0  0  0  0  0  0  0  0  0  0
  157.6497  141.2458  180.1796 O   0  0  0  0  0  0  0  0  0  0  0  0
  159.0138  141.5427  182.0890 C   0  0  0  0  0  0  0  0  0  0  0  0
  159.5039  142.5464  182.8978 O   0  0  0  0  0  0  0  0  0  0  0  0
  158.7345  140.2653  182.7913 C   0  0  0  0  0  0  0  0  0  0  0  0
  158.7029  139.2446  181.8132 O   0  0  0  0  0  0  0  0  0  0  0  0
  157.4525  140.2183  183.5392 C   0  0  0  0  0  0  0  0  0  0  0  0
  157.7308  139.9487  184.8792 O   0  0  0  0  0  0  0  0  0  0  0  0
  156.6529  141.4926  183.4812 C   0  0  0  0  0  0  0  0  0  0  0  0
  155.3345  141.1473  183.8665 O   0  0  0  0  0  0  0  0  0  0  0  0
  158.3596  141.4270  179.5169 H   0  0  0  0  0  0  0  0  0  0  0  0
  159.3427  142.4267  183.8450 H   0  0  0  0  0  0  0  0  0  0  0  0
  158.0575  138.5442  182.0400 H   0  0  0  0  0  0  0  0  0  0  0  0
  158.0636  140.7707  185.3201 H   0  0  0  0  0  0  0  0  0  0  0  0
  155.4082  140.4732  184.5838 H   0  0  0  0  0  0  0  0  0  0  0  0
  157.1783  144.4184  182.2710 O   0  0  0  0  0  0  0  0  0  0  0  0
  156.0919  143.5387  182.2915 C   0  0  0  0  0  0  0  0  0  0  0  0
  156.9658  145.1489  181.6240 H   0  0  0  0  0  0  0  0  0  0  0  0
 17 18  1  0  0  0
 18  1  1  0  0  0
  1  2  1  0  0  0
  2  3  1  0  0  0
  2  4  1  0  0  0
  4  5  1  0  0  0
  4  6  1  0  0  0
  6  7  1  0  0  0
  6  8  1  0  0  0
  8  9  1  0  0  0
  8 10  1  0  0  0
 10 11  1  0  0  0
 10  1  1  0  0  0
 17 19  1  0  0  0
  3 12  1  0  0  0
  5 13  1  0  0  0
  7 14  1  0  0  0
  9 15  1  0  0  0
 11 16  1  0  0  0
M  END
> <minimizedAffinity>
-5.29328

> <CNNscore>
0.4455071092

> <CNNaffinity>
3.2274138927

> <CNN_VS>
1.4378358126

> <CNNaffinity_variance>
0.0309678577

$$$$
[H]C1=C([H])C([H])(F)C([H])([H])C([H])=C1N([H])C(=O)C1(C(=O)N([H])c2c([H])c([H])c(Oc3c([H])c([H])nc4c([H])c(OC([H])([H])C([H])([H])C([H])([H])N5C([H])([H])C([H])([H])C([H])(C([H])([H])[H])C([H])([H])C5([H])[H])c(OC([H])([H])[H])c([H])c34)c(F)c2[H])C([H])([H])C1([H])[H]


 49 54  0  0  0  0  0  0  0  0999 V2000
  154.4288  138.1822  185.7789 C   0  0  0  0  0  0  0  0  0  0  0  0
  153.1044  138.0920  186.1487 C   0  0  0  0  0  0  0  0  0  0  0  0
  152.7332  137.9390  187.4476 C   0  0  0  0  0  0  0  0  0  0  0  0
  153.6584  137.8594  188.5197 C   0  0  0  0  0  0  0  0  0  0  0  0
  154.9660  137.9489  188.1365 C   0  0  0  0  0  0  0  0  0  0  0  0
  155.3490  138.1070  186.7942 C   0  0  0  0  0  0  0  0  0  0  0  0
  156.6950  138.1611  186.5149 F   0  0  0  0  0  0  0  0  0  0  0  0
  153.1616  137.7050  189.8223 N   0  0  0  0  0  0  0  0  0  0  0  0
  152.6954  136.5376  190.3953 C   0  0  0  0  0  0  0  0  0  0  0  0
  152.6999  135.4456  189.7121 O   0  0  0  0  0  0  0  0  0  0  0  0
  153.1550  138.5754  190.4325 H   0  0  0  0  0  0  0  0  0  0  0  0
  152.1584  136.3392  191.7674 C   0  0  0  0  0  0  0  0  0  0  0  0
  153.1415  135.9305  192.8510 C   0  0  0  0  0  0  0  0  0  0  0  0
  152.6413  137.3454  192.7687 C   0  0  0  0  0  0  0  0  0  0  0  0
  150.8238  135.7561  191.9480 C   0  0  0  0  0  0  0  0  0  0  0  0
  149.9570  136.2829  192.6469 O   0  0  0  0  0  0  0  0  0  0  0  0
  150.4506  134.5191  191.3083 N   0  0  0  0  0  0  0  0  0  0  0  0
  151.1015  134.0029  190.6904 H   0  0  0  0  0  0  0  0  0  0  0  0
  149.1625  133.9544  191.4961 C   0  0  0  0  0  0  0  0  0  0  0  0
  148.3066  134.0141  190.5057 C   0  0  0  0  0  0  0  0  0  0  0  0
  146.9489  133.4642  190.5951 C   0  0  0  0  0  0  0  0  0  0  0  0
  146.6150  132.7563  191.8608 C   0  0  0  0  0  0  0  0  0  0  0  0
  146.3390  131.4208  191.5017 F   0  0  0  0  0  0  0  0  0  0  0  0
  147.6551  132.7662  192.8833 C   0  0  0  0  0  0  0  0  0  0  0  0
  148.8203  133.3058  192.7341 C   0  0  0  0  0  0  0  0  0  0  0  0
  154.7943  138.3361  184.4535 O   0  0  0  0  0  0  0  0  0  0  0  0
  151.9191  137.7056  181.5916 C   0  0  0  0  0  0  0  0  0  0  0  0
  152.8950  137.9162  182.5665 C   0  0  0  0  0  0  0  0  0  0  0  0
  153.3748  139.1937  182.7542 C   0  0  0  0  0  0  0  0  0  0  0  0
  154.3596  139.4245  183.7316 C   0  0  0  0  0  0  0  0  0  0  0  0
  154.8291  140.6946  183.9097 C   0  0  0  0  0  0  0  0  0  0  0  0
  154.3305  141.7253  183.1286 C   0  0  0  0  0  0  0  0  0  0  0  0
  153.3974  141.5099  182.2010 N   0  0  0  0  0  0  0  0  0  0  0  0
  152.9289  140.2746  182.0162 C   0  0  0  0  0  0  0  0  0  0  0  0
  151.9560  139.9920  181.0624 C   0  0  0  0  0  0  0  0  0  0  0  0
  151.4398  138.7459  180.8289 C   0  0  0  0  0  0  0  0  0  0  0  0
  152.0058  135.3508  182.1177 C   0  0  0  0  0  0  0  0  0  0  0  0
  151.4483  136.4206  181.4149 O   0  0  0  0  0  0  0  0  0  0  0  0
  150.4736  138.5732  179.8553 O   0  0  0  0  0  0  0  0  0  0  0  0
  149.2142  139.1623  179.8858 C   0  0  0  0  0  0  0  0  0  0  0  0
  148.4374  138.6506  181.0715 C   0  0  0  0  0  0  0  0  0  0  0  0
  146.9306  138.7337  180.8624 C   0  0  0  0  0  0  0  0  0  0  0  0
  146.5394  137.6505  180.0645 N   0  0  0  0  0  0  0  0  0  0  0  0
  146.6150  136.3362  180.5346 C   0  0  0  0  0  0  0  0  0  0  0  0
  146.1635  135.4006  179.4159 C   0  0  0  0  0  0  0  0  0  0  0  0
  146.8954  135.7531  178.1437 C   0  0  0  0  0  0  0  0  0  0  0  0
  146.5667  134.7872  177.0253 C   0  0  0  0  0  0  0  0  0  0  0  0
  146.6250  137.1864  177.7435 C   0  0  0  0  0  0  0  0  0  0  0  0
  145.8345  137.8775  178.8650 C   0  0  0  0  0  0  0  0  0  0  0  0
 37 38  1  0  0  0
 38 27  1  0  0  0
 27 28  2  0  0  0
 28 29  1  0  0  0
 29 30  2  0  0  0
 30 26  1  0  0  0
 26  1  1  0  0  0
  1  2  2  0  0  0
  2  3  1  0  0  0
  3  4  2  0  0  0
  4  8  1  0  0  0
  8  9  1  0  0  0
  9 10  2  0  0  0
  9 12  1  0  0  0
 12 13  1  0  0  0
 13 14  1  0  0  0
 12 15  1  0  0  0
 15 16  2  0  0  0
 15 17  1  0  0  0
 17 19  1  0  0  0
 19 20  2  0  0  0
 20 21  1  0  0  0
 21 22  1  0  0  0
 22 23  1  0  0  0
 22 24  1  0  0  0
 24 25  2  0  0  0
  4  5  1  0  0  0
  5  6  2  0  0  0
  6  7  1  0  0  0
 30 31  1  0  0  0
 31 32  2  0  0  0
 32 33  1  0  0  0
 33 34  2  0  0  0
 34 35  1  0  0  0
 35 36  2  0  0  0
 36 39  1  0  0  0
 39 40  1  0  0  0
 40 41  1  0  0  0
 41 42  1  0  0  0
 42 43  1  0  0  0
 43 44  1  0  0  0
 44 45  1  0  0  0
 45 46  1  0  0  0
 46 47  1  0  0  0
 46 48  1  0  0  0
 48 49  1  0  0  0
 36 27  1  0  0  0
 49 43  1  0  0  0
 34 29  1  0  0  0
  6  1  1  0  0  0
 14 12  1  0  0  0
 25 19  1  0  0  0
  8 11  1  0  0  0
 17 18  1  0  0  0
M  END
> <minimizedAffinity>
-7.40062

> <CNNscore>
0.3397719860

> <CNNaffinity>
6.3745384216

> <CNN_VS>
2.1658895016

> <CNNaffinity_variance>
0.2345001996

$$$$
[H]C1=C([H])C([H])(F)C([H])([H])C([H])=C1N([H])C(=O)C1(C(=O)N([H])c2c([H])c([H])c(Oc3c([H])c([H])nc4c([H])c(OC([H])([H])C([H])([H])C([H])([H])N5C([H])([H])C([H])([H])C([H])(C([H])([H])[H])C([H])([H])C5([H])[H])c(OC([H])([H])[H])c([H])c34)c(F)c2[H])C([H])([H])C1([H])[H]


 49 54  0  0  0  0  0  0  0  0999 V2000
  154.1713  137.7827  185.9263 C   0  0  0  0  0  0  0  0  0  0  0  0
  152.8717  137.3526  186.0843 C   0  0  0  0  0  0  0  0  0  0  0  0
  152.3309  137.1469  187.3146 C   0  0  0  0  0  0  0  0  0  0  0  0
  153.0425  137.3519  188.5243 C   0  0  0  0  0  0  0  0  0  0  0  0
  154.3287  137.7763  188.3504 C   0  0  0  0  0  0  0  0  0  0  0  0
  154.8870  137.9889  187.0789 C   0  0  0  0  0  0  0  0  0  0  0  0
  156.2006  138.3927  187.0161 F   0  0  0  0  0  0  0  0  0  0  0  0
  152.3821  137.1111  189.7381 N   0  0  0  0  0  0  0  0  0  0  0  0
  152.9128  136.5061  190.8610 C   0  0  0  0  0  0  0  0  0  0  0  0
  154.1376  136.1075  190.8523 O   0  0  0  0  0  0  0  0  0  0  0  0
  151.3731  137.4395  189.8011 H   0  0  0  0  0  0  0  0  0  0  0  0
  152.2421  136.2309  192.1591 C   0  0  0  0  0  0  0  0  0  0  0  0
  151.9683  137.4156  193.0698 C   0  0  0  0  0  0  0  0  0  0  0  0
  150.8577  136.7964  192.2685 C   0  0  0  0  0  0  0  0  0  0  0  0
  152.5554  134.9988  192.8919 C   0  0  0  0  0  0  0  0  0  0  0  0
  153.4471  134.9377  193.7396 O   0  0  0  0  0  0  0  0  0  0  0  0
  151.8265  133.7773  192.6562 N   0  0  0  0  0  0  0  0  0  0  0  0
  151.0500  133.7250  191.9733 H   0  0  0  0  0  0  0  0  0  0  0  0
  152.1419  132.5861  193.3598 C   0  0  0  0  0  0  0  0  0  0  0  0
  153.0061  131.7585  192.8259 C   0  0  0  0  0  0  0  0  0  0  0  0
  153.4006  130.4990  193.4676 C   0  0  0  0  0  0  0  0  0  0  0  0
  152.8176  130.2430  194.8126 C   0  0  0  0  0  0  0  0  0  0  0  0
  153.9065  130.1844  195.7069 F   0  0  0  0  0  0  0  0  0  0  0  0
  151.8668  131.2410  195.2894 C   0  0  0  0  0  0  0  0  0  0  0  0
  151.5483  132.3136  194.6419 C   0  0  0  0  0  0  0  0  0  0  0  0
  154.7110  137.9870  184.6689 O   0  0  0  0  0  0  0  0  0  0  0  0
  151.8405  137.5371  181.7685 C   0  0  0  0  0  0  0  0  0  0  0  0
  152.8145  137.6865  182.7565 C   0  0  0  0  0  0  0  0  0  0  0  0
  153.3803  138.9285  182.9423 C   0  0  0  0  0  0  0  0  0  0  0  0
  154.3647  139.0974  183.9328 C   0  0  0  0  0  0  0  0  0  0  0  0
  154.9199  140.3328  184.1090 C   0  0  0  0  0  0  0  0  0  0  0  0
  154.5065  141.3896  183.3131 C   0  0  0  0  0  0  0  0  0  0  0  0
  153.5741  141.2328  182.3731 N   0  0  0  0  0  0  0  0  0  0  0  0
  153.0225  140.0320  182.1900 C   0  0  0  0  0  0  0  0  0  0  0  0
  152.0461  139.8108  181.2238 C   0  0  0  0  0  0  0  0  0  0  0  0
  151.4468  138.6022  180.9914 C   0  0  0  0  0  0  0  0  0  0  0  0
  151.8087  135.1709  182.2474 C   0  0  0  0  0  0  0  0  0  0  0  0
  151.2830  136.2870  181.5939 O   0  0  0  0  0  0  0  0  0  0  0  0
  150.4851  138.4901  180.0046 O   0  0  0  0  0  0  0  0  0  0  0  0
  149.2358  139.0990  180.0530 C   0  0  0  0  0  0  0  0  0  0  0  0
  148.3671  138.4069  181.0714 C   0  0  0  0  0  0  0  0  0  0  0  0
  147.8577  139.3577  182.1473 C   0  0  0  0  0  0  0  0  0  0  0  0
  147.7467  138.6418  183.3466 N   0  0  0  0  0  0  0  0  0  0  0  0
  147.1894  139.2209  184.4904 C   0  0  0  0  0  0  0  0  0  0  0  0
  147.2586  138.2022  185.6253 C   0  0  0  0  0  0  0  0  0  0  0  0
  148.6582  137.6432  185.7105 C   0  0  0  0  0  0  0  0  0  0  0  0
  148.8135  136.7061  186.8893 C   0  0  0  0  0  0  0  0  0  0  0  0
  149.0556  136.9793  184.4109 C   0  0  0  0  0  0  0  0  0  0  0  0
  147.9688  137.2498  183.3592 C   0  0  0  0  0  0  0  0  0  0  0  0
 37 38  1  0  0  0
 38 27  1  0  0  0
 27 28  2  0  0  0
 28 29  1  0  0  0
 29 30  2  0  0  0
 30 26  1  0  0  0
 26  1  1  0  0  0
  1  2  2  0  0  0
  2  3  1  0  0  0
  3  4  2  0  0  0
  4  8  1  0  0  0
  8  9  1  0  0  0
  9 10  2  0  0  0
  9 12  1  0  0  0
 12 13  1  0  0  0
 13 14  1  0  0  0
 12 15  1  0  0  0
 15 16  2  0  0  0
 15 17  1  0  0  0
 17 19  1  0  0  0
 19 20  2  0  0  0
 20 21  1  0  0  0
 21 22  1  0  0  0
 22 23  1  0  0  0
 22 24  1  0  0  0
 24 25  2  0  0  0
  4  5  1  0  0  0
  5  6  2  0  0  0
  6  7  1  0  0  0
 30 31  1  0  0  0
 31 32  2  0  0  0
 32 33  1  0  0  0
 33 34  2  0  0  0
 34 35  1  0  0  0
 35 36  2  0  0  0
 36 39  1  0  0  0
 39 40  1  0  0  0
 40 41  1  0  0  0
 41 42  1  0  0  0
 42 43  1  0  0  0
 43 44  1  0  0  0
 44 45  1  0  0  0
 45 46  1  0  0  0
 46 47  1  0  0  0
 46 48  1  0  0  0
 48 49  1  0  0  0
 36 27  1  0  0  0
 49 43  1  0  0  0
 34 29  1  0  0  0
  6  1  1  0  0  0
 14 12  1  0  0  0
 25 19  1  0  0  0
  8 11  1  0  0  0
 17 18  1  0  0  0
M  END
> <minimizedAffinity>
-7.19847

> <CNNscore>
0.3175587654

> <CNNaffinity>
6.5452928543

> <CNN_VS>
2.0785150528

> <CNNaffinity_variance>
0.4665721059

$$$$
[H]C1=C([H])C([H])(F)C([H])([H])C([H])=C1N([H])C(=O)C1(C(=O)N([H])c2c([H])c([H])c(Oc3c([H])c([H])nc4c([H])c(OC([H])([H])C([H])([H])C([H])([H])N5C([H])([H])C([H])([H])C([H])(C([H])([H])[H])C([H])([H])C5([H])[H])c(OC([H])([H])[H])c([H])c34)c(F)c2[H])C([H])([H])C1([H])[H]


 49 54  0  0  0  0  0  0  0  0999 V2000
  154.0798  137.9606  185.4891 C   0  0  0  0  0  0  0  0  0  0  0  0
  153.4175  138.7740  186.3827 C   0  0  0  0  0  0  0  0  0  0  0  0
  152.6518  138.2632  187.3833 C   0  0  0  0  0  0  0  0  0  0  0  0
  152.4685  136.8725  187.5937 C   0  0  0  0  0  0  0  0  0  0  0  0
  153.1299  136.0806  186.6993 C   0  0  0  0  0  0  0  0  0  0  0  0
  153.9211  136.6089  185.6656 C   0  0  0  0  0  0  0  0  0  0  0  0
  154.5239  135.7220  184.8039 F   0  0  0  0  0  0  0  0  0  0  0  0
  151.6584  136.4584  188.6612 N   0  0  0  0  0  0  0  0  0  0  0  0
  150.5640  135.6183  188.5898 C   0  0  0  0  0  0  0  0  0  0  0  0
  150.2082  135.1294  187.4525 O   0  0  0  0  0  0  0  0  0  0  0  0
  151.9235  136.8208  189.6247 H   0  0  0  0  0  0  0  0  0  0  0  0
  149.6820  135.1637  189.6970 C   0  0  0  0  0  0  0  0  0  0  0  0
  148.1843  135.3437  189.5171 C   0  0  0  0  0  0  0  0  0  0  0  0
  148.8156  133.9899  189.3513 C   0  0  0  0  0  0  0  0  0  0  0  0
  150.1205  135.3251  191.0881 C   0  0  0  0  0  0  0  0  0  0  0  0
  150.3282  136.4278  191.5963 O   0  0  0  0  0  0  0  0  0  0  0  0
  150.3344  134.1864  191.9463 N   0  0  0  0  0  0  0  0  0  0  0  0
  150.1762  133.2165  191.6204 H   0  0  0  0  0  0  0  0  0  0  0  0
  150.7695  134.3484  193.2871 C   0  0  0  0  0  0  0  0  0  0  0  0
  152.0540  134.4738  193.5135 C   0  0  0  0  0  0  0  0  0  0  0  0
  152.6102  134.6436  194.8609 C   0  0  0  0  0  0  0  0  0  0  0  0
  151.6192  134.7447  195.9665 C   0  0  0  0  0  0  0  0  0  0  0  0
  151.7932  136.0245  196.5327 F   0  0  0  0  0  0  0  0  0  0  0  0
  150.2222  134.5844  195.5791 C   0  0  0  0  0  0  0  0  0  0  0  0
  149.8175  134.4043  194.3647 C   0  0  0  0  0  0  0  0  0  0  0  0
  154.8548  138.4923  184.4739 O   0  0  0  0  0  0  0  0  0  0  0  0
  151.9336  137.6403  181.7180 C   0  0  0  0  0  0  0  0  0  0  0  0
  152.9253  137.9263  182.6571 C   0  0  0  0  0  0  0  0  0  0  0  0
  153.3794  139.2225  182.7627 C   0  0  0  0  0  0  0  0  0  0  0  0
  154.3796  139.5289  183.7030 C   0  0  0  0  0  0  0  0  0  0  0  0
  154.8234  140.8170  183.7998 C   0  0  0  0  0  0  0  0  0  0  0  0
  154.2842  141.7913  182.9744 C   0  0  0  0  0  0  0  0  0  0  0  0
  153.3365  141.5041  182.0819 N   0  0  0  0  0  0  0  0  0  0  0  0
  152.8928  140.2504  181.9765 C   0  0  0  0  0  0  0  0  0  0  0  0
  151.9062  139.8938  181.0624 C   0  0  0  0  0  0  0  0  0  0  0  0
  151.4140  138.6256  180.9102 C   0  0  0  0  0  0  0  0  0  0  0  0
  152.2286  135.2870  182.1700 C   0  0  0  0  0  0  0  0  0  0  0  0
  151.4890  136.3374  181.6235 O   0  0  0  0  0  0  0  0  0  0  0  0
  150.4311  138.3778  179.9700 O   0  0  0  0  0  0  0  0  0  0  0  0
  149.2447  139.0958  179.8665 C   0  0  0  0  0  0  0  0  0  0  0  0
  148.0680  138.1645  180.0043 C   0  0  0  0  0  0  0  0  0  0  0  0
  147.0922  138.6122  181.0853 C   0  0  0  0  0  0  0  0  0  0  0  0
  147.7074  138.4324  182.3313 N   0  0  0  0  0  0  0  0  0  0  0  0
  148.2915  137.2126  182.6847 C   0  0  0  0  0  0  0  0  0  0  0  0
  148.8267  137.3327  184.1095 C   0  0  0  0  0  0  0  0  0  0  0  0
  147.7495  137.9003  185.0017 C   0  0  0  0  0  0  0  0  0  0  0  0
  148.1890  137.9409  186.4498 C   0  0  0  0  0  0  0  0  0  0  0  0
  147.3035  139.2604  184.5132 C   0  0  0  0  0  0  0  0  0  0  0  0
  147.9656  139.5456  183.1566 C   0  0  0  0  0  0  0  0  0  0  0  0
 37 38  1  0  0  0
 38 27  1  0  0  0
 27 28  2  0  0  0
 28 29  1  0  0  0
 29 30  2  0  0  0
 30 26  1  0  0  0
 26  1  1  0  0  0
  1  2  2  0  0  0
  2  3  1  0  0  0
  3  4  2  0  0  0
  4  8  1  0  0  0
  8  9  1  0  0  0
  9 10  2  0  0  0
  9 12  1  0  0  0
 12 13  1  0  0  0
 13 14  1  0  0  0
 12 15  1  0  0  0
 15 16  2  0  0  0
 15 17  1  0  0  0
 17 19  1  0  0  0
 19 20  2  0  0  0
 20 21  1  0  0  0
 21 22  1  0  0  0
 22 23  1  0  0  0
 22 24  1  0  0  0
 24 25  2  0  0  0
  4  5  1  0  0  0
  5  6  2  0  0  0
  6  7  1  0  0  0
 30 31  1  0  0  0
 31 32  2  0  0  0
 32 33  1  0  0  0
 33 34  2  0  0  0
 34 35  1  0  0  0
 35 36  2  0  0  0
 36 39  1  0  0  0
 39 40  1  0  0  0
 40 41  1  0  0  0
 41 42  1  0  0  0
 42 43  1  0  0  0
 43 44  1  0  0  0
 44 45  1  0  0  0
 45 46  1  0  0  0
 46 47  1  0  0  0
 46 48  1  0  0  0
 48 49  1  0  0  0
 36 27  1  0  0  0
 49 43  1  0  0  0
 34 29  1  0  0  0
  6  1  1  0  0  0
 14 12  1  0  0  0
 25 19  1  0  0  0
  8 11  1  0  0  0
 17 18  1  0  0  0
M  END
> <minimizedAffinity>
-7.55374

> <CNNscore>
0.2598281801

> <CNNaffinity>
6.4368948936

> <CNN_VS>
1.6724866629

> <CNNaffinity_variance>
0.5574929714

$$$$
[H]C1=C([H])C([H])(F)C([H])([H])C([H])=C1N([H])C(=O)C1(C(=O)N([H])c2c([H])c([H])c(Oc3c([H])c([H])nc4c([H])c(OC([H])([H])C([H])([H])C([H])([H])N5C([H])([H])C([H])([H])C([H])(C([H])([H])[H])C([H])([H])C5([H])[H])c(OC([H])([H])[H])c([H])c34)c(F)c2[H])C([H])([H])C1([H])[H]


 49 54  0  0  0  0  0  0  0  0999 V2000
  154.4216  138.1689  185.7610 C   0  0  0  0  0  0  0  0  0  0  0  0
  153.0919  138.0514  186.1032 C   0  0  0  0  0  0  0  0  0  0  0  0
  152.6969  137.8934  187.3945 C   0  0  0  0  0  0  0  0  0  0  0  0
  153.6009  137.8355  188.4859 C   0  0  0  0  0  0  0  0  0  0  0  0
  154.9140  137.9518  188.1300 C   0  0  0  0  0  0  0  0  0  0  0  0
  155.3217  138.1152  186.7955 C   0  0  0  0  0  0  0  0  0  0  0  0
  156.6719  138.1971  186.5443 F   0  0  0  0  0  0  0  0  0  0  0  0
  153.0802  137.6733  189.7782 N   0  0  0  0  0  0  0  0  0  0  0  0
  152.7924  136.4781  190.4085 C   0  0  0  0  0  0  0  0  0  0  0  0
  153.0108  135.3657  189.7970 O   0  0  0  0  0  0  0  0  0  0  0  0
  152.9003  138.5632  190.3310 H   0  0  0  0  0  0  0  0  0  0  0  0
  152.2365  136.2698  191.7716 C   0  0  0  0  0  0  0  0  0  0  0  0
  153.1980  135.8187  192.8577 C   0  0  0  0  0  0  0  0  0  0  0  0
  152.7334  137.2466  192.7948 C   0  0  0  0  0  0  0  0  0  0  0  0
  150.8863  135.7168  191.9288 C   0  0  0  0  0  0  0  0  0  0  0  0
  150.0092  136.2801  192.5851 O   0  0  0  0  0  0  0  0  0  0  0  0
  150.5088  134.4679  191.3151 N   0  0  0  0  0  0  0  0  0  0  0  0
  151.1679  133.9215  190.7329 H   0  0  0  0  0  0  0  0  0  0  0  0
  149.2051  133.9326  191.4804 C   0  0  0  0  0  0  0  0  0  0  0  0
  148.3574  134.0414  190.4872 C   0  0  0  0  0  0  0  0  0  0  0  0
  146.9852  133.5254  190.5541 C   0  0  0  0  0  0  0  0  0  0  0  0
  146.6248  132.7930  191.7984 C   0  0  0  0  0  0  0  0  0  0  0  0
  146.3161  131.4753  191.4020 F   0  0  0  0  0  0  0  0  0  0  0  0
  147.6583  132.7481  192.8267 C   0  0  0  0  0  0  0  0  0  0  0  0
  148.8382  133.2604  192.6986 C   0  0  0  0  0  0  0  0  0  0  0  0
  154.8115  138.3277  184.4432 O   0  0  0  0  0  0  0  0  0  0  0  0
  152.0089  137.9291  181.4698 C   0  0  0  0  0  0  0  0  0  0  0  0
  152.9599  138.0609  182.4824 C   0  0  0  0  0  0  0  0  0  0  0  0
  153.4958  139.3063  182.7257 C   0  0  0  0  0  0  0  0  0  0  0  0
  154.4567  139.4577  183.7418 C   0  0  0  0  0  0  0  0  0  0  0  0
  154.9824  140.6965  183.9750 C   0  0  0  0  0  0  0  0  0  0  0  0
  154.5628  141.7739  183.2106 C   0  0  0  0  0  0  0  0  0  0  0  0
  153.6527  141.6337  182.2465 N   0  0  0  0  0  0  0  0  0  0  0  0
  153.1300  140.4298  182.0077 C   0  0  0  0  0  0  0  0  0  0  0  0
  152.1777  140.2253  181.0140 C   0  0  0  0  0  0  0  0  0  0  0  0
  151.6085  139.0145  180.7248 C   0  0  0  0  0  0  0  0  0  0  0  0
  151.6253  135.6526  182.1768 C   0  0  0  0  0  0  0  0  0  0  0  0
  151.4812  136.6754  181.2375 O   0  0  0  0  0  0  0  0  0  0  0  0
  150.6691  138.9201  179.7149 O   0  0  0  0  0  0  0  0  0  0  0  0
  149.3307  138.5996  179.9151 C   0  0  0  0  0  0  0  0  0  0  0  0
  148.7679  139.4280  181.0411 C   0  0  0  0  0  0  0  0  0  0  0  0
  147.2466  139.3738  181.1023 C   0  0  0  0  0  0  0  0  0  0  0  0
  146.8812  138.5716  182.1915 N   0  0  0  0  0  0  0  0  0  0  0  0
  145.9581  137.5313  182.0511 C   0  0  0  0  0  0  0  0  0  0  0  0
  145.7469  136.8902  183.4205 C   0  0  0  0  0  0  0  0  0  0  0  0
  145.4670  137.9684  184.4392 C   0  0  0  0  0  0  0  0  0  0  0  0
  145.1425  137.3821  185.7967 C   0  0  0  0  0  0  0  0  0  0  0  0
  146.6127  138.9530  184.5135 C   0  0  0  0  0  0  0  0  0  0  0  0
  147.6154  138.6381  183.3930 C   0  0  0  0  0  0  0  0  0  0  0  0
 37 38  1  0  0  0
 38 27  1  0  0  0
 27 28  2  0  0  0
 28 29  1  0  0  0
 29 30  2  0  0  0
 30 26  1  0  0  0
 26  1  1  0  0  0
  1  2  2  0  0  0
  2  3  1  0  0  0
  3  4  2  0  0  0
  4  8  1  0  0  0
  8  9  1  0  0  0
  9 10  2  0  0  0
  9 12  1  0  0  0
 12 13  1  0  0  0
 13 14  1  0  0  0
 12 15  1  0  0  0
 15 16  2  0  0  0
 15 17  1  0  0  0
 17 19  1  0  0  0
 19 20  2  0  0  0
 20 21  1  0  0  0
 21 22  1  0  0  0
 22 23  1  0  0  0
 22 24  1  0  0  0
 24 25  2  0  0  0
  4  5  1  0  0  0
  5  6  2  0  0  0
  6  7  1  0  0  0
 30 31  1  0  0  0
 31 32  2  0  0  0
 32 33  1  0  0  0
 33 34  2  0  0  0
 34 35  1  0  0  0
 35 36  2  0  0  0
 36 39  1  0  0  0
 39 40  1  0  0  0
 40 41  1  0  0  0
 41 42  1  0  0  0
 42 43  1  0  0  0
 43 44  1  0  0  0
 44 45  1  0  0  0
 45 46  1  0  0  0
 46 47  1  0  0  0
 46 48  1  0  0  0
 48 49  1  0  0  0
 36 27  1  0  0  0
 49 43  1  0  0  0
 34 29  1  0  0  0
  6  1  1  0  0  0
 14 12  1  0  0  0
 25 19  1  0  0  0
  8 11  1  0  0  0
 17 18  1  0  0  0
M  END
> <minimizedAffinity>
-7.71636

> <CNNscore>
0.2554526925

> <CNNaffinity>
6.6596016884

> <CNN_VS>
1.7012132406

> <CNNaffinity_variance>
0.3240227103

$$$$
[H]C1=C([H])C([H])(F)C([H])([H])C([H])=C1N([H])C(=O)C1(C(=O)N([H])c2c([H])c([H])c(Oc3c([H])c([H])nc4c([H])c(OC([H])([H])C([H])([H])C([H])([H])N5C([H])([H])C([H])([H])C([H])(C([H])([H])[H])C([H])([H])C5([H])[H])c(OC([H])([H])[H])c([H])c34)c(F)c2[H])C([H])([H])C1([H])[H]


 49 54  0  0  0  0  0  0  0  0999 V2000
  155.5061  137.8214  186.3009 C   0  0  0  0  0  0  0  0  0  0  0  0
  155.7737  138.8951  185.4797 C   0  0  0  0  0  0  0  0  0  0  0  0
  154.9095  139.2823  184.5041 C   0  0  0  0  0  0  0  0  0  0  0  0
  153.6776  138.6279  184.2477 C   0  0  0  0  0  0  0  0  0  0  0  0
  153.4282  137.5657  185.0687 C   0  0  0  0  0  0  0  0  0  0  0  0
  154.3214  137.1660  186.0768 C   0  0  0  0  0  0  0  0  0  0  0  0
  153.9843  136.0663  186.8314 F   0  0  0  0  0  0  0  0  0  0  0  0
  152.8621  139.1168  183.2165 N   0  0  0  0  0  0  0  0  0  0  0  0
  152.3492  138.3944  182.1564 C   0  0  0  0  0  0  0  0  0  0  0  0
  152.6081  137.1366  182.0569 O   0  0  0  0  0  0  0  0  0  0  0  0
  152.6047  140.1470  183.2648 H   0  0  0  0  0  0  0  0  0  0  0  0
  151.4882  138.8800  181.0459 C   0  0  0  0  0  0  0  0  0  0  0  0
  151.6150  140.3412  180.6501 C   0  0  0  0  0  0  0  0  0  0  0  0
  152.2403  139.2653  179.8073 C   0  0  0  0  0  0  0  0  0  0  0  0
  150.1238  138.3588  180.9032 C   0  0  0  0  0  0  0  0  0  0  0  0
  149.3404  138.2780  181.8503 O   0  0  0  0  0  0  0  0  0  0  0  0
  149.6203  137.9076  179.6297 N   0  0  0  0  0  0  0  0  0  0  0  0
  150.1940  137.9446  178.7688 H   0  0  0  0  0  0  0  0  0  0  0  0
  148.3039  137.3939  179.5005 C   0  0  0  0  0  0  0  0  0  0  0  0
  148.1266  136.1007  179.6155 C   0  0  0  0  0  0  0  0  0  0  0  0
  146.8087  135.4661  179.4965 C   0  0  0  0  0  0  0  0  0  0  0  0
  145.6559  136.3888  179.3122 C   0  0  0  0  0  0  0  0  0  0  0  0
  144.8247  136.2067  180.4368 F   0  0  0  0  0  0  0  0  0  0  0  0
  145.9914  137.8035  179.1957 C   0  0  0  0  0  0  0  0  0  0  0  0
  147.1907  138.2785  179.2799 C   0  0  0  0  0  0  0  0  0  0  0  0
  156.3941  137.4360  187.2893 O   0  0  0  0  0  0  0  0  0  0  0  0
  157.3363  133.9974  189.3246 C   0  0  0  0  0  0  0  0  0  0  0  0
  157.0195  135.1654  188.6301 C   0  0  0  0  0  0  0  0  0  0  0  0
  156.3092  136.1487  189.2828 C   0  0  0  0  0  0  0  0  0  0  0  0
  155.9799  137.3323  188.5979 C   0  0  0  0  0  0  0  0  0  0  0  0
  155.2751  138.3011  189.2537 C   0  0  0  0  0  0  0  0  0  0  0  0
  154.8991  138.1007  190.5726 C   0  0  0  0  0  0  0  0  0  0  0  0
  155.2092  136.9798  191.2245 N   0  0  0  0  0  0  0  0  0  0  0  0
  155.8978  136.0250  190.5970 C   0  0  0  0  0  0  0  0  0  0  0  0
  156.2480  134.8353  191.2278 C   0  0  0  0  0  0  0  0  0  0  0  0
  156.9518  133.8224  190.6342 C   0  0  0  0  0  0  0  0  0  0  0  0
  159.3840  133.2229  188.3066 C   0  0  0  0  0  0  0  0  0  0  0  0
  158.0479  133.0213  188.6576 O   0  0  0  0  0  0  0  0  0  0  0  0
  157.2488  132.6788  191.3521 O   0  0  0  0  0  0  0  0  0  0  0  0
  158.3886  132.5151  192.1318 C   0  0  0  0  0  0  0  0  0  0  0  0
  158.7117  131.0494  192.2663 C   0  0  0  0  0  0  0  0  0  0  0  0
  159.6564  130.7636  193.4269 C   0  0  0  0  0  0  0  0  0  0  0  0
  160.8397  130.2245  192.9050 N   0  0  0  0  0  0  0  0  0  0  0  0
  162.0849  130.5260  193.4642 C   0  0  0  0  0  0  0  0  0  0  0  0
  163.1621  129.8232  192.6419 C   0  0  0  0  0  0  0  0  0  0  0  0
  162.9416  130.1136  191.1771 C   0  0  0  0  0  0  0  0  0  0  0  0
  164.0450  129.5298  190.3207 C   0  0  0  0  0  0  0  0  0  0  0  0
  161.5762  129.6397  190.7313 C   0  0  0  0  0  0  0  0  0  0  0  0
  160.7812  129.1782  191.9621 C   0  0  0  0  0  0  0  0  0  0  0  0
 37 38  1  0  0  0
 38 27  1  0  0  0
 27 28  2  0  0  0
 28 29  1  0  0  0
 29 30  2  0  0  0
 30 26  1  0  0  0
 26  1  1  0  0  0
  1  2  2  0  0  0
  2  3  1  0  0  0
  3  4  2  0  0  0
  4  8  1  0  0  0
  8  9  1  0  0  0
  9 10  2  0  0  0
  9 12  1  0  0  0
 12 13  1  0  0  0
 13 14  1  0  0  0
 12 15  1  0  0  0
 15 16  2  0  0  0
 15 17  1  0  0  0
 17 19  1  0  0  0
 19 20  2  0  0  0
 20 21  1  0  0  0
 21 22  1  0  0  0
 22 23  1  0  0  0
 22 24  1  0  0  0
 24 25  2  0  0  0
  4  5  1  0  0  0
  5  6  2  0  0  0
  6  7  1  0  0  0
 30 31  1  0  0  0
 31 32  2  0  0  0
 32 33  1  0  0  0
 33 34  2  0  0  0
 34 35  1  0  0  0
 35 36  2  0  0  0
 36 39  1  0  0  0
 39 40  1  0  0  0
 40 41  1  0  0  0
 41 42  1  0  0  0
 42 43  1  0  0  0
 43 44  1  0  0  0
 44 45  1  0  0  0
 45 46  1  0  0  0
 46 47  1  0  0  0
 46 48  1  0  0  0
 48 49  1  0  0  0
 36 27  1  0  0  0
 49 43  1  0  0  0
 34 29  1  0  0  0
  6  1  1  0  0  0
 14 12  1  0  0  0
 25 19  1  0  0  0
  8 11  1  0  0  0
 17 18  1  0  0  0
M  END
> <minimizedAffinity>
-7.61678

> <CNNscore>
0.2512549460

> <CNNaffinity>
6.0507555008

> <CNN_VS>
1.5202822685

> <CNNaffinity_variance>
0.0618432984

$$$$
[H]C1=C([H])C([H])(F)C([H])([H])C([H])=C1N([H])C(=O)C1(C(=O)N([H])c2c([H])c([H])c(Oc3c([H])c([H])nc4c([H])c(OC([H])([H])C([H])([H])C([H])([H])N5C([H])([H])C([H])([H])C([H])(C([H])([H])[H])C([H])([H])C5([H])[H])c(OC([H])([H])[H])c([H])c34)c(F)c2[H])C([H])([H])C1([H])[H]


 49 54  0  0  0  0  0  0  0  0999 V2000
  152.9747  135.5061  182.4771 C   0  0  0  0  0  0  0  0  0  0  0  0
  153.3323  135.0735  181.2186 C   0  0  0  0  0  0  0  0  0  0  0  0
  154.4060  134.2638  181.0187 C   0  0  0  0  0  0  0  0  0  0  0  0
  155.2402  133.8002  182.0680 C   0  0  0  0  0  0  0  0  0  0  0  0
  154.8734  134.2388  183.3080 C   0  0  0  0  0  0  0  0  0  0  0  0
  153.7637  135.0754  183.5140 C   0  0  0  0  0  0  0  0  0  0  0  0
  153.4972  135.4794  184.8018 F   0  0  0  0  0  0  0  0  0  0  0  0
  156.3197  132.9648  181.7452 N   0  0  0  0  0  0  0  0  0  0  0  0
  156.3307  131.5835  181.7681 C   0  0  0  0  0  0  0  0  0  0  0  0
  155.2659  130.9427  182.1066 O   0  0  0  0  0  0  0  0  0  0  0  0
  157.2169  133.4472  181.4411 H   0  0  0  0  0  0  0  0  0  0  0  0
  157.4554  130.6689  181.4382 C   0  0  0  0  0  0  0  0  0  0  0  0
  158.5240  130.4637  182.4982 C   0  0  0  0  0  0  0  0  0  0  0  0
  157.4825  129.4089  182.2503 C   0  0  0  0  0  0  0  0  0  0  0  0
  157.9841  130.6318  180.0697 C   0  0  0  0  0  0  0  0  0  0  0  0
  157.7334  131.5033  179.2361 O   0  0  0  0  0  0  0  0  0  0  0  0
  158.8368  129.5589  179.6216 N   0  0  0  0  0  0  0  0  0  0  0  0
  159.1177  128.7836  180.2475 H   0  0  0  0  0  0  0  0  0  0  0  0
  159.3354  129.5226  178.2936 C   0  0  0  0  0  0  0  0  0  0  0  0
  160.5093  130.0537  178.0552 C   0  0  0  0  0  0  0  0  0  0  0  0
  161.1160  130.0722  176.7190 C   0  0  0  0  0  0  0  0  0  0  0  0
  160.3520  129.3780  175.6472 C   0  0  0  0  0  0  0  0  0  0  0  0
  161.1745  128.3234  175.2000 F   0  0  0  0  0  0  0  0  0  0  0  0
  159.0586  128.8336  176.0449 C   0  0  0  0  0  0  0  0  0  0  0  0
  158.5808  128.8896  177.2447 C   0  0  0  0  0  0  0  0  0  0  0  0
  151.8808  136.3313  182.6677 O   0  0  0  0  0  0  0  0  0  0  0  0
  154.2045  139.5606  183.6803 C   0  0  0  0  0  0  0  0  0  0  0  0
  153.4177  138.4602  183.3380 C   0  0  0  0  0  0  0  0  0  0  0  0
  152.5388  138.5803  182.2842 C   0  0  0  0  0  0  0  0  0  0  0  0
  151.7368  137.4817  181.9258 C   0  0  0  0  0  0  0  0  0  0  0  0
  150.8682  137.6109  180.8797 C   0  0  0  0  0  0  0  0  0  0  0  0
  150.7932  138.8143  180.1961 C   0  0  0  0  0  0  0  0  0  0  0  0
  151.5516  139.8576  180.5335 N   0  0  0  0  0  0  0  0  0  0  0  0
  152.4049  139.7459  181.5528 C   0  0  0  0  0  0  0  0  0  0  0  0
  153.2198  140.8019  181.9488 C   0  0  0  0  0  0  0  0  0  0  0  0
  154.1117  140.7448  182.9857 C   0  0  0  0  0  0  0  0  0  0  0  0
  154.8920  138.4319  185.7009 C   0  0  0  0  0  0  0  0  0  0  0  0
  155.0801  139.4254  184.7383 O   0  0  0  0  0  0  0  0  0  0  0  0
  154.8758  141.8540  183.2973 O   0  0  0  0  0  0  0  0  0  0  0  0
  154.8004  143.0719  182.6302 C   0  0  0  0  0  0  0  0  0  0  0  0
  156.1862  143.5583  182.2927 C   0  0  0  0  0  0  0  0  0  0  0  0
  157.1897  142.4192  182.1634 C   0  0  0  0  0  0  0  0  0  0  0  0
  158.2394  142.6573  183.0604 N   0  0  0  0  0  0  0  0  0  0  0  0
  159.0586  143.7835  182.9388 C   0  0  0  0  0  0  0  0  0  0  0  0
  160.1225  143.7224  184.0320 C   0  0  0  0  0  0  0  0  0  0  0  0
  160.7686  142.3582  184.0247 C   0  0  0  0  0  0  0  0  0  0  0  0
  161.9076  142.2754  185.0185 C   0  0  0  0  0  0  0  0  0  0  0  0
  159.7420  141.2721  184.2575 C   0  0  0  0  0  0  0  0  0  0  0  0
  158.3397  141.8994  184.2447 C   0  0  0  0  0  0  0  0  0  0  0  0
 37 38  1  0  0  0
 38 27  1  0  0  0
 27 28  2  0  0  0
 28 29  1  0  0  0
 29 30  2  0  0  0
 30 26  1  0  0  0
 26  1  1  0  0  0
  1  2  2  0  0  0
  2  3  1  0  0  0
  3  4  2  0  0  0
  4  8  1  0  0  0
  8  9  1  0  0  0
  9 10  2  0  0  0
  9 12  1  0  0  0
 12 13  1  0  0  0
 13 14  1  0  0  0
 12 15  1  0  0  0
 15 16  2  0  0  0
 15 17  1  0  0  0
 17 19  1  0  0  0
 19 20  2  0  0  0
 20 21  1  0  0  0
 21 22  1  0  0  0
 22 23  1  0  0  0
 22 24  1  0  0  0
 24 25  2  0  0  0
  4  5  1  0  0  0
  5  6  2  0  0  0
  6  7  1  0  0  0
 30 31  1  0  0  0
 31 32  2  0  0  0
 32 33  1  0  0  0
 33 34  2  0  0  0
 34 35  1  0  0  0
 35 36  2  0  0  0
 36 39  1  0  0  0
 39 40  1  0  0  0
 40 41  1  0  0  0
 41 42  1  0  0  0
 42 43  1  0  0  0
 43 44  1  0  0  0
 44 45  1  0  0  0
 45 46  1  0  0  0
 46 47  1  0  0  0
 46 48  1  0  0  0
 48 49  1  0  0  0
 36 27  1  0  0  0
 49 43  1  0  0  0
 34 29  1  0  0  0
  6  1  1  0  0  0
 14 12  1  0  0  0
 25 19  1  0  0  0
  8 11  1  0  0  0
 17 18  1  0  0  0
M  END
> <minimizedAffinity>
-8.07566

> <CNNscore>
0.2422197759

> <CNNaffinity>
6.8190917969

> <CNN_VS>
1.6517188549

> <CNNaffinity_variance>
0.1116268262

$$$$
[H]C1=C([H])C([H])(F)C([H])([H])C([H])=C1N([H])C(=O)C1(C(=O)N([H])c2c([H])c([H])c(Oc3c([H])c([H])nc4c([H])c(OC([H])([H])C([H])([H])C([H])([H])N5C([H])([H])C([H])([H])C([H])(C([H])([H])[H])C([H])([H])C5([H])[H])c(OC([H])([H])[H])c([H])c34)c(F)c2[H])C([H])([H])C1([H])[H]


 49 54  0  0  0  0  0  0  0  0999 V2000
  155.1360  137.0135  190.2258 C   0  0  0  0  0  0  0  0  0  0  0  0
  154.3769  138.0058  189.6443 C   0  0  0  0  0  0  0  0  0  0  0  0
  154.5573  138.3782  188.3493 C   0  0  0  0  0  0  0  0  0  0  0  0
  155.5254  137.7904  187.4956 C   0  0  0  0  0  0  0  0  0  0  0  0
  156.2699  136.8104  188.0871 C   0  0  0  0  0  0  0  0  0  0  0  0
  156.0831  136.4258  189.4253 C   0  0  0  0  0  0  0  0  0  0  0  0
  156.9048  135.4445  189.9298 F   0  0  0  0  0  0  0  0  0  0  0  0
  155.6209  138.2518  186.1745 N   0  0  0  0  0  0  0  0  0  0  0  0
  154.5928  138.7492  185.3971 C   0  0  0  0  0  0  0  0  0  0  0  0
  153.4037  138.8270  185.8860 O   0  0  0  0  0  0  0  0  0  0  0  0
  156.5874  138.2253  185.7326 H   0  0  0  0  0  0  0  0  0  0  0  0
  154.6569  139.2409  183.9955 C   0  0  0  0  0  0  0  0  0  0  0  0
  154.0455  138.3624  182.9175 C   0  0  0  0  0  0  0  0  0  0  0  0
  153.3238  139.5879  183.4034 C   0  0  0  0  0  0  0  0  0  0  0  0
  155.8401  139.9786  183.5378 C   0  0  0  0  0  0  0  0  0  0  0  0
  156.9557  139.8209  184.0355 O   0  0  0  0  0  0  0  0  0  0  0  0
  155.7590  140.9402  182.4665 N   0  0  0  0  0  0  0  0  0  0  0  0
  154.8707  141.1380  181.9731 H   0  0  0  0  0  0  0  0  0  0  0  0
  156.9044  141.6588  182.0362 C   0  0  0  0  0  0  0  0  0  0  0  0
  157.6273  141.1543  181.0667 C   0  0  0  0  0  0  0  0  0  0  0  0
  158.8316  141.8137  180.5482 C   0  0  0  0  0  0  0  0  0  0  0  0
  159.1509  143.1426  181.1367 C   0  0  0  0  0  0  0  0  0  0  0  0
  159.0814  144.0682  180.0750 F   0  0  0  0  0  0  0  0  0  0  0  0
  158.2689  143.5866  182.2102 C   0  0  0  0  0  0  0  0  0  0  0  0
  157.2416  142.9246  182.6315 C   0  0  0  0  0  0  0  0  0  0  0  0
  154.9442  136.6443  191.5453 O   0  0  0  0  0  0  0  0  0  0  0  0
  153.2773  132.9568  192.2370 C   0  0  0  0  0  0  0  0  0  0  0  0
  153.8480  134.2084  192.0021 C   0  0  0  0  0  0  0  0  0  0  0  0
  153.1184  135.3346  192.3130 C   0  0  0  0  0  0  0  0  0  0  0  0
  153.6772  136.6046  192.0818 C   0  0  0  0  0  0  0  0  0  0  0  0
  152.9457  137.7151  192.3930 C   0  0  0  0  0  0  0  0  0  0  0  0
  151.6745  137.5710  192.9263 C   0  0  0  0  0  0  0  0  0  0  0  0
  151.1418  136.3688  193.1462 N   0  0  0  0  0  0  0  0  0  0  0  0
  151.8448  135.2751  192.8477 C   0  0  0  0  0  0  0  0  0  0  0  0
  151.3385  133.9958  193.0555 C   0  0  0  0  0  0  0  0  0  0  0  0
  152.0132  132.8401  192.7678 C   0  0  0  0  0  0  0  0  0  0  0  0
  153.9644  131.2796  190.6419 C   0  0  0  0  0  0  0  0  0  0  0  0
  154.0201  131.8378  191.9204 O   0  0  0  0  0  0  0  0  0  0  0  0
  151.4177  131.6169  193.0136 O   0  0  0  0  0  0  0  0  0  0  0  0
  151.9297  130.6535  193.8761 C   0  0  0  0  0  0  0  0  0  0  0  0
  151.7871  131.1153  195.3034 C   0  0  0  0  0  0  0  0  0  0  0  0
  150.3712  131.5728  195.6305 C   0  0  0  0  0  0  0  0  0  0  0  0
  150.4556  132.6718  196.4956 N   0  0  0  0  0  0  0  0  0  0  0  0
  150.0458  133.9465  196.0943 C   0  0  0  0  0  0  0  0  0  0  0  0
  150.3099  134.9181  197.2419 C   0  0  0  0  0  0  0  0  0  0  0  0
  151.7261  134.7386  197.7327 C   0  0  0  0  0  0  0  0  0  0  0  0
  152.0788  135.7522  198.8004 C   0  0  0  0  0  0  0  0  0  0  0  0
  151.9587  133.3214  198.2069 C   0  0  0  0  0  0  0  0  0  0  0  0
  150.7256  132.4714  197.8646 C   0  0  0  0  0  0  0  0  0  0  0  0
 37 38  1  0  0  0
 38 27  1  0  0  0
 27 28  2  0  0  0
 28 29  1  0  0  0
 29 30  2  0  0  0
 30 26  1  0  0  0
 26  1  1  0  0  0
  1  2  2  0  0  0
  2  3  1  0  0  0
  3  4  2  0  0  0
  4  8  1  0  0  0
  8  9  1  0  0  0
  9 10  2  0  0  0
  9 12  1  0  0  0
 12 13  1  0  0  0
 13 14  1  0  0  0
 12 15  1  0  0  0
 15 16  2  0  0  0
 15 17  1  0  0  0
 17 19  1  0  0  0
 19 20  2  0  0  0
 20 21  1  0  0  0
 21 22  1  0  0  0
 22 23  1  0  0  0
 22 24  1  0  0  0
 24 25  2  0  0  0
  4  5  1  0  0  0
  5  6  2  0  0  0
  6  7  1  0  0  0
 30 31  1  0  0  0
 31 32  2  0  0  0
 32 33  1  0  0  0
 33 34  2  0  0  0
 34 35  1  0  0  0
 35 36  2  0  0  0
 36 39  1  0  0  0
 39 40  1  0  0  0
 40 41  1  0  0  0
 41 42  1  0  0  0
 42 43  1  0  0  0
 43 44  1  0  0  0
 44 45  1  0  0  0
 45 46  1  0  0  0
 46 47  1  0  0  0
 46 48  1  0  0  0
 48 49  1  0  0  0
 36 27  1  0  0  0
 49 43  1  0  0  0
 34 29  1  0  0  0
  6  1  1  0  0  0
 14 12  1  0  0  0
 25 19  1  0  0  0
  8 11  1  0  0  0
 17 18  1  0  0  0
M  END
> <minimizedAffinity>
-8.02908

> <CNNscore>
0.2327065021

> <CNNaffinity>
6.4356031418

> <CNN_VS>
1.4976067543

> <CNNaffinity_variance>
0.1160128266

$$$$
[H]C1=C([H])C([H])(F)C([H])([H])C([H])=C1N([H])C(=O)C1(C(=O)N([H])c2c([H])c([H])c(Oc3c([H])c([H])nc4c([H])c(OC([H])([H])C([H])([H])C([H])([H])N5C([H])([H])C([H])([H])C([H])(C([H])([H])[H])C([H])([H])C5([H])[H])c(OC([H])([H])[H])c([H])c34)c(F)c2[H])C([H])([H])C1([H])[H]


 49 54  0  0  0  0  0  0  0  0999 V2000
  152.4682  139.2325  182.3911 C   0  0  0  0  0  0  0  0  0  0  0  0
  152.5042  140.3393  181.5710 C   0  0  0  0  0  0  0  0  0  0  0  0
  153.5753  141.1762  181.5455 C   0  0  0  0  0  0  0  0  0  0  0  0
  154.7311  140.9895  182.3462 C   0  0  0  0  0  0  0  0  0  0  0  0
  154.6790  139.8897  183.1538 C   0  0  0  0  0  0  0  0  0  0  0  0
  153.5720  139.0251  183.1797 C   0  0  0  0  0  0  0  0  0  0  0  0
  153.6122  137.9597  184.0492 F   0  0  0  0  0  0  0  0  0  0  0  0
  155.7790  141.9152  182.2348 N   0  0  0  0  0  0  0  0  0  0  0  0
  157.0791  141.6486  181.8511 C   0  0  0  0  0  0  0  0  0  0  0  0
  157.4199  140.4445  181.5459 O   0  0  0  0  0  0  0  0  0  0  0  0
  155.5422  142.9271  182.4584 H   0  0  0  0  0  0  0  0  0  0  0  0
  158.2135  142.6016  181.7275 C   0  0  0  0  0  0  0  0  0  0  0  0
  158.9890  142.6002  180.4212 C   0  0  0  0  0  0  0  0  0  0  0  0
  157.9965  143.6890  180.7182 C   0  0  0  0  0  0  0  0  0  0  0  0
  159.0519  142.8887  182.8972 C   0  0  0  0  0  0  0  0  0  0  0  0
  159.3844  144.0320  183.2125 O   0  0  0  0  0  0  0  0  0  0  0  0
  159.5377  141.8338  183.7516 N   0  0  0  0  0  0  0  0  0  0  0  0
  159.3055  140.8393  183.5813 H   0  0  0  0  0  0  0  0  0  0  0  0
  160.3576  142.1168  184.8745 C   0  0  0  0  0  0  0  0  0  0  0  0
  161.6454  142.2646  184.6831 C   0  0  0  0  0  0  0  0  0  0  0  0
  162.5823  142.5561  185.7745 C   0  0  0  0  0  0  0  0  0  0  0  0
  161.9750  142.7545  187.1185 C   0  0  0  0  0  0  0  0  0  0  0  0
  162.2761  144.0804  187.4926 F   0  0  0  0  0  0  0  0  0  0  0  0
  160.5318  142.5573  187.1949 C   0  0  0  0  0  0  0  0  0  0  0  0
  159.7802  142.2676  186.1838 C   0  0  0  0  0  0  0  0  0  0  0  0
  151.3717  138.3890  182.4094 O   0  0  0  0  0  0  0  0  0  0  0  0
  147.4622  138.0964  183.6276 C   0  0  0  0  0  0  0  0  0  0  0  0
  148.7922  138.1972  183.2177 C   0  0  0  0  0  0  0  0  0  0  0  0
  149.0569  138.3948  181.8804 C   0  0  0  0  0  0  0  0  0  0  0  0
  150.3917  138.4975  181.4489 C   0  0  0  0  0  0  0  0  0  0  0  0
  150.6438  138.6930  180.1209 C   0  0  0  0  0  0  0  0  0  0  0  0
  149.5867  138.7850  179.2291 C   0  0  0  0  0  0  0  0  0  0  0  0
  148.3205  138.6876  179.6348 N   0  0  0  0  0  0  0  0  0  0  0  0
  148.0590  138.4972  180.9290 C   0  0  0  0  0  0  0  0  0  0  0  0
  146.7572  138.3876  181.4080 C   0  0  0  0  0  0  0  0  0  0  0  0
  146.4301  138.1914  182.7226 C   0  0  0  0  0  0  0  0  0  0  0  0
  147.7424  138.7605  185.9319 C   0  0  0  0  0  0  0  0  0  0  0  0
  147.2126  137.8982  184.9703 O   0  0  0  0  0  0  0  0  0  0  0  0
  145.1017  138.0966  183.0938 O   0  0  0  0  0  0  0  0  0  0  0  0
  144.1886  137.2152  182.5251 C   0  0  0  0  0  0  0  0  0  0  0  0
  143.2499  136.6957  183.5834 C   0  0  0  0  0  0  0  0  0  0  0  0
  143.2783  137.5371  184.8532 C   0  0  0  0  0  0  0  0  0  0  0  0
  143.6275  136.7024  185.9231 N   0  0  0  0  0  0  0  0  0  0  0  0
  143.3875  135.3260  185.8801 C   0  0  0  0  0  0  0  0  0  0  0  0
  143.8371  134.7196  187.2070 C   0  0  0  0  0  0  0  0  0  0  0  0
  143.2493  135.5175  188.3457 C   0  0  0  0  0  0  0  0  0  0  0  0
  143.5741  134.8966  189.6876 C   0  0  0  0  0  0  0  0  0  0  0  0
  143.6883  136.9632  188.2764 C   0  0  0  0  0  0  0  0  0  0  0  0
  144.4469  137.1923  186.9603 C   0  0  0  0  0  0  0  0  0  0  0  0
 37 38  1  0  0  0
 38 27  1  0  0  0
 27 28  2  0  0  0
 28 29  1  0  0  0
 29 30  2  0  0  0
 30 26  1  0  0  0
 26  1  1  0  0  0
  1  2  2  0  0  0
  2  3  1  0  0  0
  3  4  2  0  0  0
  4  8  1  0  0  0
  8  9  1  0  0  0
  9 10  2  0  0  0
  9 12  1  0  0  0
 12 13  1  0  0  0
 13 14  1  0  0  0
 12 15  1  0  0  0
 15 16  2  0  0  0
 15 17  1  0  0  0
 17 19  1  0  0  0
 19 20  2  0  0  0
 20 21  1  0  0  0
 21 22  1  0  0  0
 22 23  1  0  0  0
 22 24  1  0  0  0
 24 25  2  0  0  0
  4  5  1  0  0  0
  5  6  2  0  0  0
  6  7  1  0  0  0
 30 31  1  0  0  0
 31 32  2  0  0  0
 32 33  1  0  0  0
 33 34  2  0  0  0
 34 35  1  0  0  0
 35 36  2  0  0  0
 36 39  1  0  0  0
 39 40  1  0  0  0
 40 41  1  0  0  0
 41 42  1  0  0  0
 42 43  1  0  0  0
 43 44  1  0  0  0
 44 45  1  0  0  0
 45 46  1  0  0  0
 46 47  1  0  0  0
 46 48  1  0  0  0
 48 49  1  0  0  0
 36 27  1  0  0  0
 49 43  1  0  0  0
 34 29  1  0  0  0
  6  1  1  0  0  0
 14 12  1  0  0  0
 25 19  1  0  0  0
  8 11  1  0  0  0
 17 18  1  0  0  0
M  END
> <minimizedAffinity>
-9.91040

> <CNNscore>
0.2134169936

> <CNNaffinity>
6.6903028488

> <CNN_VS>
1.4278243780

> <CNNaffinity_variance>
0.0995040610

$$$$
[H]C1=C([H])C([H])(F)C([H])([H])C([H])=C1N([H])C(=O)C1(C(=O)N([H])c2c([H])c([H])c(Oc3c([H])c([H])nc4c([H])c(OC([H])([H])C([H])([H])C([H])([H])N5C([H])([H])C([H])([H])C([H])(C([H])([H])[H])C([H])([H])C5([H])[H])c(OC([H])([H])[H])c([H])c34)c(F)c2[H])C([H])([H])C1([H])[H]


 49 54  0  0  0  0  0  0  0  0999 V2000
  153.3651  137.0131  185.6698 C   0  0  0  0  0  0  0  0  0  0  0  0
  152.0490  136.8914  186.0598 C   0  0  0  0  0  0  0  0  0  0  0  0
  151.6920  136.8549  187.3712 C   0  0  0  0  0  0  0  0  0  0  0  0
  152.6246  136.9365  188.4367 C   0  0  0  0  0  0  0  0  0  0  0  0
  153.9239  137.0551  188.0336 C   0  0  0  0  0  0  0  0  0  0  0  0
  154.2923  137.0930  186.6784 C   0  0  0  0  0  0  0  0  0  0  0  0
  155.6322  137.1893  186.3819 F   0  0  0  0  0  0  0  0  0  0  0  0
  152.1423  136.8921  189.7530 N   0  0  0  0  0  0  0  0  0  0  0  0
  152.3480  135.8834  190.6743 C   0  0  0  0  0  0  0  0  0  0  0  0
  153.0535  134.8562  190.3486 O   0  0  0  0  0  0  0  0  0  0  0  0
  151.5693  137.7274  190.0754 H   0  0  0  0  0  0  0  0  0  0  0  0
  151.8489  135.8014  192.0724 C   0  0  0  0  0  0  0  0  0  0  0  0
  152.2950  136.8850  193.0390 C   0  0  0  0  0  0  0  0  0  0  0  0
  150.9097  136.9052  192.4564 C   0  0  0  0  0  0  0  0  0  0  0  0
  151.6860  134.4896  192.7098 C   0  0  0  0  0  0  0  0  0  0  0  0
  150.8400  133.6727  192.3434 O   0  0  0  0  0  0  0  0  0  0  0  0
  152.5188  134.0811  193.8136 N   0  0  0  0  0  0  0  0  0  0  0  0
  153.2679  134.6887  194.1898 H   0  0  0  0  0  0  0  0  0  0  0  0
  152.3487  132.8159  194.4333 C   0  0  0  0  0  0  0  0  0  0  0  0
  152.9129  131.7710  193.8794 C   0  0  0  0  0  0  0  0  0  0  0  0
  152.7980  130.4180  194.4360 C   0  0  0  0  0  0  0  0  0  0  0  0
  152.0606  130.3039  195.7235 C   0  0  0  0  0  0  0  0  0  0  0  0
  152.9900  129.8165  196.6655 F   0  0  0  0  0  0  0  0  0  0  0  0
  151.4785  131.5418  196.2299 C   0  0  0  0  0  0  0  0  0  0  0  0
  151.6004  132.6938  195.6562 C   0  0  0  0  0  0  0  0  0  0  0  0
  153.7162  137.0476  184.3321 O   0  0  0  0  0  0  0  0  0  0  0  0
  156.0192  140.4384  184.1010 C   0  0  0  0  0  0  0  0  0  0  0  0
  155.2400  139.2835  184.1807 C   0  0  0  0  0  0  0  0  0  0  0  0
  154.0730  139.2237  183.4515 C   0  0  0  0  0  0  0  0  0  0  0  0
  153.2743  138.0679  183.5207 C   0  0  0  0  0  0  0  0  0  0  0  0
  152.1188  138.0186  182.7941 C   0  0  0  0  0  0  0  0  0  0  0  0
  151.7567  139.1014  182.0084 C   0  0  0  0  0  0  0  0  0  0  0  0
  152.5112  140.1985  181.9409 N   0  0  0  0  0  0  0  0  0  0  0  0
  153.6428  140.2608  182.6446 C   0  0  0  0  0  0  0  0  0  0  0  0
  154.4682  141.3806  182.6126 C   0  0  0  0  0  0  0  0  0  0  0  0
  155.6381  141.5002  183.3131 C   0  0  0  0  0  0  0  0  0  0  0  0
  158.2582  139.6442  184.5317 C   0  0  0  0  0  0  0  0  0  0  0  0
  157.1853  140.4837  184.8373 O   0  0  0  0  0  0  0  0  0  0  0  0
  156.3856  142.6586  183.2104 O   0  0  0  0  0  0  0  0  0  0  0  0
  157.2099  142.9683  182.1341 C   0  0  0  0  0  0  0  0  0  0  0  0
  158.4978  143.5724  182.6316 C   0  0  0  0  0  0  0  0  0  0  0  0
  159.6721  142.6068  182.5332 C   0  0  0  0  0  0  0  0  0  0  0  0
  160.1971  142.4243  183.8194 N   0  0  0  0  0  0  0  0  0  0  0  0
  159.5713  142.9691  184.9445 C   0  0  0  0  0  0  0  0  0  0  0  0
  160.4131  142.6302  186.1721 C   0  0  0  0  0  0  0  0  0  0  0  0
  161.8543  142.9908  185.9048 C   0  0  0  0  0  0  0  0  0  0  0  0
  162.7190  142.7763  187.1287 C   0  0  0  0  0  0  0  0  0  0  0  0
  162.3862  142.2398  184.7045 C   0  0  0  0  0  0  0  0  0  0  0  0
  161.2277  141.4866  184.0331 C   0  0  0  0  0  0  0  0  0  0  0  0
 37 38  1  0  0  0
 38 27  1  0  0  0
 27 28  2  0  0  0
 28 29  1  0  0  0
 29 30  2  0  0  0
 30 26  1  0  0  0
 26  1  1  0  0  0
  1  2  2  0  0  0
  2  3  1  0  0  0
  3  4  2  0  0  0
  4  8  1  0  0  0
  8  9  1  0  0  0
  9 10  2  0  0  0
  9 12  1  0  0  0
 12 13  1  0  0  0
 13 14  1  0  0  0
 12 15  1  0  0  0
 15 16  2  0  0  0
 15 17  1  0  0  0
 17 19  1  0  0  0
 19 20  2  0  0  0
 20 21  1  0  0  0
 21 22  1  0  0  0
 22 23  1  0  0  0
 22 24  1  0  0  0
 24 25  2  0  0  0
  4  5  1  0  0  0
  5  6  2  0  0  0
  6  7  1  0  0  0
 30 31  1  0  0  0
 31 32  2  0  0  0
 32 33  1  0  0  0
 33 34  2  0  0  0
 34 35  1  0  0  0
 35 36  2  0  0  0
 36 39  1  0  0  0
 39 40  1  0  0  0
 40 41  1  0  0  0
 41 42  1  0  0  0
 42 43  1  0  0  0
 43 44  1  0  0  0
 44 45  1  0  0  0
 45 46  1  0  0  0
 46 47  1  0  0  0
 46 48  1  0  0  0
 48 49  1  0  0  0
 36 27  1  0  0  0
 49 43  1  0  0  0
 34 29  1  0  0  0
  6  1  1  0  0  0
 14 12  1  0  0  0
 25 19  1  0  0  0
  8 11  1  0  0  0
 17 18  1  0  0  0
M  END
> <minimizedAffinity>
-8.89690

> <CNNscore>
0.2120875567

> <CNNaffinity>
6.7758011818

> <CNN_VS>
1.4370630980

> <CNNaffinity_variance>
0.1646662503

$$$$
[H]c1c([H])c([H])c([C@]([H])(N([H])C(=O)C(=O)[C@@]([H])(N([H])C(=O)OC([H])(C([H])(C([H])([H])[H])C([H])([H])[H])C([H])(C([H])([H])[H])C([H])([H])[H])C([H])([H])C([H])([H])C([H])([H])C([H])([H])[H])C([H])([H])[H])c([H])c1[H]


 31 31  0  0  0  0  0  0  0  0999 V2000
  153.5647  139.6432  183.4101 C   0  0  0  0  0  0  0  0  0  0  0  0
  154.9105  140.2025  183.2777 N   0  0  0  0  0  0  0  0  0  0  0  0
  155.1532  141.5829  183.0625 C   0  0  0  0  0  0  0  0  0  0  0  0
  154.2249  142.4293  182.9690 O   0  0  0  0  0  0  0  0  0  0  0  0
  155.7014  139.5428  183.3478 H   0  0  0  0  0  0  0  0  0  0  0  0
  156.4277  142.0409  182.9483 O   0  0  0  0  0  0  0  0  0  0  0  0
  157.3902  141.6028  182.0311 C   0  0  0  0  0  0  0  0  0  0  0  0
  158.6068  141.0058  182.6479 C   0  0  0  0  0  0  0  0  0  0  0  0
  158.5266  139.5001  182.5004 C   0  0  0  0  0  0  0  0  0  0  0  0
  158.6369  141.3199  184.1209 C   0  0  0  0  0  0  0  0  0  0  0  0
  157.6767  142.6160  180.9525 C   0  0  0  0  0  0  0  0  0  0  0  0
  158.6225  143.6605  181.5415 C   0  0  0  0  0  0  0  0  0  0  0  0
  158.3064  142.0674  179.7316 C   0  0  0  0  0  0  0  0  0  0  0  0
  153.6436  138.5546  184.4031 C   0  0  0  0  0  0  0  0  0  0  0  0
  152.7954  137.6360  184.4211 O   0  0  0  0  0  0  0  0  0  0  0  0
  154.7065  138.5219  185.3814 C   0  0  0  0  0  0  0  0  0  0  0  0
  155.7870  139.1075  185.1519 O   0  0  0  0  0  0  0  0  0  0  0  0
  154.5597  137.8386  186.6078 N   0  0  0  0  0  0  0  0  0  0  0  0
  153.6591  137.3354  186.8312 H   0  0  0  0  0  0  0  0  0  0  0  0
  155.5923  137.7844  187.6011 C   0  0  0  0  0  0  0  0  0  0  0  0
  156.5355  136.6387  187.4204 C   0  0  0  0  0  0  0  0  0  0  0  0
  154.9679  137.7626  188.9518 C   0  0  0  0  0  0  0  0  0  0  0  0
  155.5078  138.4262  190.0180 C   0  0  0  0  0  0  0  0  0  0  0  0
  154.9385  138.4153  191.2839 C   0  0  0  0  0  0  0  0  0  0  0  0
  153.7813  137.7030  191.4624 C   0  0  0  0  0  0  0  0  0  0  0  0
  153.2197  137.0273  190.4028 C   0  0  0  0  0  0  0  0  0  0  0  0
  153.8071  137.0549  189.1538 C   0  0  0  0  0  0  0  0  0  0  0  0
  153.0876  139.1316  182.0625 C   0  0  0  0  0  0  0  0  0  0  0  0
  152.2116  140.1159  181.3451 C   0  0  0  0  0  0  0  0  0  0  0  0
  150.6618  139.7513  179.4904 C   0  0  0  0  0  0  0  0  0  0  0  0
  152.1213  139.6448  179.8965 C   0  0  0  0  0  0  0  0  0  0  0  0
 30 31  1  0  0  0
 31 29  1  0  0  0
 29 28  1  0  0  0
 28  1  1  0  0  0
  1  2  1  0  0  0
  2  3  1  0  0  0
  3  4  2  0  0  0
  3  6  1  0  0  0
  6  7  1  0  0  0
  7  8  1  0  0  0
  8  9  1  0  0  0
  8 10  1  0  0  0
  7 11  1  0  0  0
 11 12  1  0  0  0
 11 13  1  0  0  0
  1 14  1  0  0  0
 14 15  2  0  0  0
 14 16  1  0  0  0
 16 17  2  0  0  0
 16 18  1  0  0  0
 18 20  1  0  0  0
 20 21  1  0  0  0
 20 22  1  0  0  0
 22 23  2  0  0  0
 23 24  1  0  0  0
 24 25  2  0  0  0
 25 26  1  0  0  0
 26 27  2  0  0  0
 27 22  1  0  0  0
  2  5  1  0  0  0
 18 19  1  0  0  0
M  END
> <minimizedAffinity>
-7.12908

> <CNNscore>
0.7711994648

> <CNNaffinity>
6.2863960266

> <CNN_VS>
4.8480653763

> <CNNaffinity_variance>
0.0268009994

$$$$
[H]c1c([H])c([H])c([C@]([H])(N([H])C(=O)C(=O)[C@@]([H])(N([H])C(=O)OC([H])(C([H])(C([H])([H])[H])C([H])([H])[H])C([H])(C([H])([H])[H])C([H])([H])[H])C([H])([H])C([H])([H])C([H])([H])C([H])([H])[H])C([H])([H])[H])c([H])c1[H]


 31 31  0  0  0  0  0  0  0  0999 V2000
  154.0456  139.6595  183.6841 C   0  0  0  0  0  0  0  0  0  0  0  0
  155.2990  139.8925  182.9656 N   0  0  0  0  0  0  0  0  0  0  0  0
  155.9901  141.1301  183.0038 C   0  0  0  0  0  0  0  0  0  0  0  0
  155.5732  142.1210  183.6605 O   0  0  0  0  0  0  0  0  0  0  0  0
  155.6764  139.1059  182.4138 H   0  0  0  0  0  0  0  0  0  0  0  0
  157.1511  141.2837  182.3144 O   0  0  0  0  0  0  0  0  0  0  0  0
  158.2862  141.9829  182.7415 C   0  0  0  0  0  0  0  0  0  0  0  0
  159.1053  142.5643  181.6423 C   0  0  0  0  0  0  0  0  0  0  0  0
  158.7776  144.0393  181.5320 C   0  0  0  0  0  0  0  0  0  0  0  0
  158.7361  141.9148  180.3343 C   0  0  0  0  0  0  0  0  0  0  0  0
  159.0835  141.2310  183.7764 C   0  0  0  0  0  0  0  0  0  0  0  0
  160.5628  141.4476  183.4648 C   0  0  0  0  0  0  0  0  0  0  0  0
  158.8455  141.6511  185.1745 C   0  0  0  0  0  0  0  0  0  0  0  0
  154.2210  138.4243  184.4721 C   0  0  0  0  0  0  0  0  0  0  0  0
  153.4465  137.4532  184.3289 O   0  0  0  0  0  0  0  0  0  0  0  0
  155.2957  138.3052  185.4306 C   0  0  0  0  0  0  0  0  0  0  0  0
  156.2737  139.0820  185.3745 O   0  0  0  0  0  0  0  0  0  0  0  0
  155.2747  137.3234  186.4445 N   0  0  0  0  0  0  0  0  0  0  0  0
  154.4624  136.6535  186.5186 H   0  0  0  0  0  0  0  0  0  0  0  0
  156.3229  137.1755  187.4116 C   0  0  0  0  0  0  0  0  0  0  0  0
  156.8007  135.7672  187.5640 C   0  0  0  0  0  0  0  0  0  0  0  0
  155.8673  137.7355  188.7129 C   0  0  0  0  0  0  0  0  0  0  0  0
  156.6451  137.7011  189.8366 C   0  0  0  0  0  0  0  0  0  0  0  0
  156.2348  138.2180  191.0576 C   0  0  0  0  0  0  0  0  0  0  0  0
  154.9902  138.7872  191.1294 C   0  0  0  0  0  0  0  0  0  0  0  0
  154.1897  138.8331  190.0105 C   0  0  0  0  0  0  0  0  0  0  0  0
  154.6228  138.3111  188.8081 C   0  0  0  0  0  0  0  0  0  0  0  0
  152.9034  139.5276  182.6924 C   0  0  0  0  0  0  0  0  0  0  0  0
  152.9127  140.6062  181.6497 C   0  0  0  0  0  0  0  0  0  0  0  0
  150.8867  139.3265  181.1675 C   0  0  0  0  0  0  0  0  0  0  0  0
  152.0015  140.1307  180.5218 C   0  0  0  0  0  0  0  0  0  0  0  0
 30 31  1  0  0  0
 31 29  1  0  0  0
 29 28  1  0  0  0
 28  1  1  0  0  0
  1  2  1  0  0  0
  2  3  1  0  0  0
  3  4  2  0  0  0
  3  6  1  0  0  0
  6  7  1  0  0  0
  7  8  1  0  0  0
  8  9  1  0  0  0
  8 10  1  0  0  0
  7 11  1  0  0  0
 11 12  1  0  0  0
 11 13  1  0  0  0
  1 14  1  0  0  0
 14 15  2  0  0  0
 14 16  1  0  0  0
 16 17  2  0  0  0
 16 18  1  0  0  0
 18 20  1  0  0  0
 20 21  1  0  0  0
 20 22  1  0  0  0
 22 23  2  0  0  0
 23 24  1  0  0  0
 24 25  2  0  0  0
 25 26  1  0  0  0
 26 27  2  0  0  0
 27 22  1  0  0  0
  2  5  1  0  0  0
 18 19  1  0  0  0
M  END
> <minimizedAffinity>
-7.48207

> <CNNscore>
0.6856329441

> <CNNaffinity>
6.3723502159

> <CNN_VS>
4.3690934181

> <CNNaffinity_variance>
0.0291412883

$$$$
[H]c1c([H])c([H])c([C@]([H])(N([H])C(=O)C(=O)[C@@]([H])(N([H])C(=O)OC([H])(C([H])(C([H])([H])[H])C([H])([H])[H])C([H])(C([H])([H])[H])C([H])([H])[H])C([H])([H])C([H])([H])C([H])([H])C([H])([H])[H])C([H])([H])[H])c([H])c1[H]


 31 31  0  0  0  0  0  0  0  0999 V2000
  154.2021  140.1906  183.3182 C   0  0  0  0  0  0  0  0  0  0  0  0
  155.1801  140.8698  182.4673 N   0  0  0  0  0  0  0  0  0  0  0  0
  155.8002  142.0921  182.8309 C   0  0  0  0  0  0  0  0  0  0  0  0
  155.5525  142.6831  183.9155 O   0  0  0  0  0  0  0  0  0  0  0  0
  155.4122  140.4193  181.5680 H   0  0  0  0  0  0  0  0  0  0  0  0
  156.7017  142.6734  181.9965 O   0  0  0  0  0  0  0  0  0  0  0  0
  157.9712  142.1817  181.6703 C   0  0  0  0  0  0  0  0  0  0  0  0
  158.4649  141.0994  182.5658 C   0  0  0  0  0  0  0  0  0  0  0  0
  159.8160  141.5121  183.1129 C   0  0  0  0  0  0  0  0  0  0  0  0
  158.6598  139.8329  181.7739 C   0  0  0  0  0  0  0  0  0  0  0  0
  158.9748  143.2757  181.4099 C   0  0  0  0  0  0  0  0  0  0  0  0
  159.2054  143.3395  179.9014 C   0  0  0  0  0  0  0  0  0  0  0  0
  158.5641  144.6215  181.8658 C   0  0  0  0  0  0  0  0  0  0  0  0
  154.9405  139.1919  184.1149 C   0  0  0  0  0  0  0  0  0  0  0  0
  156.1166  138.8797  183.8271 O   0  0  0  0  0  0  0  0  0  0  0  0
  154.3218  138.5488  185.2513 C   0  0  0  0  0  0  0  0  0  0  0  0
  153.1188  138.2119  185.2019 O   0  0  0  0  0  0  0  0  0  0  0  0
  155.0455  138.2849  186.4341 N   0  0  0  0  0  0  0  0  0  0  0  0
  156.0629  138.5566  186.5063 H   0  0  0  0  0  0  0  0  0  0  0  0
  154.4647  137.6496  187.5809 C   0  0  0  0  0  0  0  0  0  0  0  0
  153.8939  138.6123  188.5720 C   0  0  0  0  0  0  0  0  0  0  0  0
  155.4791  136.7623  188.2118 C   0  0  0  0  0  0  0  0  0  0  0  0
  156.4679  136.1531  187.4907 C   0  0  0  0  0  0  0  0  0  0  0  0
  157.4209  135.3223  188.0636 C   0  0  0  0  0  0  0  0  0  0  0  0
  157.3587  135.1093  189.4160 C   0  0  0  0  0  0  0  0  0  0  0  0
  156.3717  135.7126  190.1622 C   0  0  0  0  0  0  0  0  0  0  0  0
  155.4361  136.5345  189.5665 C   0  0  0  0  0  0  0  0  0  0  0  0
  153.1389  139.5355  182.4545 C   0  0  0  0  0  0  0  0  0  0  0  0
  152.6787  140.4177  181.3316 C   0  0  0  0  0  0  0  0  0  0  0  0
  150.7721  138.9577  180.8756 C   0  0  0  0  0  0  0  0  0  0  0  0
  152.0601  139.5000  180.2811 C   0  0  0  0  0  0  0  0  0  0  0  0
 30 31  1  0  0  0
 31 29  1  0  0  0
 29 28  1  0  0  0
 28  1  1  0  0  0
  1  2  1  0  0  0
  2  3  1  0  0  0
  3  4  2  0  0  0
  3  6  1  0  0  0
  6  7  1  0  0  0
  7  8  1  0  0  0
  8  9  1  0  0  0
  8 10  1  0  0  0
  7 11  1  0  0  0
 11 12  1  0  0  0
 11 13  1  0  0  0
  1 14  1  0  0  0
 14 15  2  0  0  0
 14 16  1  0  0  0
 16 17  2  0  0  0
 16 18  1  0  0  0
 18 20  1  0  0  0
 20 21  1  0  0  0
 20 22  1  0  0  0
 22 23  2  0  0  0
 23 24  1  0  0  0
 24 25  2  0  0  0
 25 26  1  0  0  0
 26 27  2  0  0  0
 27 22  1  0  0  0
  2  5  1  0  0  0
 18 19  1  0  0  0
M  END
> <minimizedAffinity>
-7.03062

> <CNNscore>
0.6513620615

> <CNNaffinity>
6.3571252823

> <CNN_VS>
4.1407904625

> <CNNaffinity_variance>
0.0698786750

$$$$
[H]c1c([H])c([H])c([C@]([H])(N([H])C(=O)C(=O)[C@@]([H])(N([H])C(=O)OC([H])(C([H])(C([H])([H])[H])C([H])([H])[H])C([H])(C([H])([H])[H])C([H])([H])[H])C([H])([H])C([H])([H])C([H])([H])C([H])([H])[H])C([H])([H])[H])c([H])c1[H]


 31 31  0  0  0  0  0  0  0  0999 V2000
  154.8074  137.5390  185.6499 C   0  0  0  0  0  0  0  0  0  0  0  0
  155.3894  138.8775  185.5441 N   0  0  0  0  0  0  0  0  0  0  0  0
  155.4733  139.5863  184.3188 C   0  0  0  0  0  0  0  0  0  0  0  0
  155.0520  139.1129  183.2300 O   0  0  0  0  0  0  0  0  0  0  0  0
  155.7477  139.3031  186.4136 H   0  0  0  0  0  0  0  0  0  0  0  0
  156.0253  140.8277  184.2862 O   0  0  0  0  0  0  0  0  0  0  0  0
  157.2287  141.1874  183.6680 C   0  0  0  0  0  0  0  0  0  0  0  0
  157.0715  142.0248  182.4469 C   0  0  0  0  0  0  0  0  0  0  0  0
  157.9580  143.2451  182.5879 C   0  0  0  0  0  0  0  0  0  0  0  0
  155.6475  142.5042  182.3385 C   0  0  0  0  0  0  0  0  0  0  0  0
  158.1741  140.0250  183.5039 C   0  0  0  0  0  0  0  0  0  0  0  0
  158.3930  139.8172  182.0068 C   0  0  0  0  0  0  0  0  0  0  0  0
  159.4985  140.2028  184.1381 C   0  0  0  0  0  0  0  0  0  0  0  0
  153.3432  137.6942  185.5522 C   0  0  0  0  0  0  0  0  0  0  0  0
  152.6863  138.2086  186.4836 O   0  0  0  0  0  0  0  0  0  0  0  0
  152.6302  137.2557  184.3745 C   0  0  0  0  0  0  0  0  0  0  0  0
  152.2990  136.0562  184.2534 O   0  0  0  0  0  0  0  0  0  0  0  0
  152.2905  138.1543  183.3403 N   0  0  0  0  0  0  0  0  0  0  0  0
  152.5554  139.1734  183.4137 H   0  0  0  0  0  0  0  0  0  0  0  0
  151.5846  137.7549  182.1579 C   0  0  0  0  0  0  0  0  0  0  0  0
  152.2524  138.1822  180.8905 C   0  0  0  0  0  0  0  0  0  0  0  0
  150.1874  138.2622  182.2303 C   0  0  0  0  0  0  0  0  0  0  0  0
  149.3086  137.8504  183.1930 C   0  0  0  0  0  0  0  0  0  0  0  0
  148.0025  138.3131  183.2738 C   0  0  0  0  0  0  0  0  0  0  0  0
  147.5844  139.2252  182.3402 C   0  0  0  0  0  0  0  0  0  0  0  0
  148.4523  139.6543  181.3617 C   0  0  0  0  0  0  0  0  0  0  0  0
  149.7466  139.1774  181.3045 C   0  0  0  0  0  0  0  0  0  0  0  0
  155.2117  136.9074  186.9701 C   0  0  0  0  0  0  0  0  0  0  0  0
  155.8972  137.8741  187.8901 C   0  0  0  0  0  0  0  0  0  0  0  0
  156.6257  138.0286  190.2182 C   0  0  0  0  0  0  0  0  0  0  0  0
  156.4224  137.0582  189.0678 C   0  0  0  0  0  0  0  0  0  0  0  0
 30 31  1  0  0  0
 31 29  1  0  0  0
 29 28  1  0  0  0
 28  1  1  0  0  0
  1  2  1  0  0  0
  2  3  1  0  0  0
  3  4  2  0  0  0
  3  6  1  0  0  0
  6  7  1  0  0  0
  7  8  1  0  0  0
  8  9  1  0  0  0
  8 10  1  0  0  0
  7 11  1  0  0  0
 11 12  1  0  0  0
 11 13  1  0  0  0
  1 14  1  0  0  0
 14 15  2  0  0  0
 14 16  1  0  0  0
 16 17  2  0  0  0
 16 18  1  0  0  0
 18 20  1  0  0  0
 20 21  1  0  0  0
 20 22  1  0  0  0
 22 23  2  0  0  0
 23 24  1  0  0  0
 24 25  2  0  0  0
 25 26  1  0  0  0
 26 27  2  0  0  0
 27 22  1  0  0  0
  2  5  1  0  0  0
 18 19  1  0  0  0
M  END
> <minimizedAffinity>
-5.82155

> <CNNscore>
0.6181263924

> <CNNaffinity>
6.0957937241

> <CNN_VS>
3.7679710388

> <CNNaffinity_variance>
0.0652139783

$$$$
[H]c1c([H])c([H])c([C@]([H])(N([H])C(=O)C(=O)[C@@]([H])(N([H])C(=O)OC([H])(C([H])(C([H])([H])[H])C([H])([H])[H])C([H])(C([H])([H])[H])C([H])([H])[H])C([H])([H])C([H])([H])C([H])([H])C([H])([H])[H])C([H])([H])[H])c([H])c1[H]


 31 31  0  0  0  0  0  0  0  0999 V2000
  152.5559  139.3911  182.1451 C   0  0  0  0  0  0  0  0  0  0  0  0
  153.9618  139.7863  182.0514 N   0  0  0  0  0  0  0  0  0  0  0  0
  154.7249  140.1904  183.1762 C   0  0  0  0  0  0  0  0  0  0  0  0
  154.2456  140.2389  184.3403 O   0  0  0  0  0  0  0  0  0  0  0  0
  154.3946  139.7613  181.1145 H   0  0  0  0  0  0  0  0  0  0  0  0
  156.0278  140.5456  183.0238 O   0  0  0  0  0  0  0  0  0  0  0  0
  156.6990  141.5629  183.7124 C   0  0  0  0  0  0  0  0  0  0  0  0
  157.2572  142.6351  182.8430 C   0  0  0  0  0  0  0  0  0  0  0  0
  156.1745  143.6674  182.6037 C   0  0  0  0  0  0  0  0  0  0  0  0
  157.6417  142.0575  181.5060 C   0  0  0  0  0  0  0  0  0  0  0  0
  157.6648  141.0356  184.7424 C   0  0  0  0  0  0  0  0  0  0  0  0
  158.1806  139.6878  184.2426 C   0  0  0  0  0  0  0  0  0  0  0  0
  158.8341  141.9029  185.0039 C   0  0  0  0  0  0  0  0  0  0  0  0
  152.5202  137.9160  182.1552 C   0  0  0  0  0  0  0  0  0  0  0  0
  152.6112  137.2619  181.0934 O   0  0  0  0  0  0  0  0  0  0  0  0
  152.3799  137.1884  183.3956 C   0  0  0  0  0  0  0  0  0  0  0  0
  152.1264  135.9643  183.3783 O   0  0  0  0  0  0  0  0  0  0  0  0
  152.5230  137.8274  184.6461 N   0  0  0  0  0  0  0  0  0  0  0  0
  152.7381  138.8597  184.6937 H   0  0  0  0  0  0  0  0  0  0  0  0
  152.3901  137.1380  185.8962 C   0  0  0  0  0  0  0  0  0  0  0  0
  151.0663  137.3503  186.5577 C   0  0  0  0  0  0  0  0  0  0  0  0
  153.5112  137.5329  186.7916 C   0  0  0  0  0  0  0  0  0  0  0  0
  154.8206  137.4328  186.4120 C   0  0  0  0  0  0  0  0  0  0  0  0
  155.8776  137.7959  187.2351 C   0  0  0  0  0  0  0  0  0  0  0  0
  155.5839  138.2761  188.4847 C   0  0  0  0  0  0  0  0  0  0  0  0
  154.2724  138.3858  188.8882 C   0  0  0  0  0  0  0  0  0  0  0  0
  153.2401  138.0171  188.0490 C   0  0  0  0  0  0  0  0  0  0  0  0
  151.7850  139.9568  180.9655 C   0  0  0  0  0  0  0  0  0  0  0  0
  150.3818  139.4322  180.8839 C   0  0  0  0  0  0  0  0  0  0  0  0
  148.7612  138.4460  179.3425 C   0  0  0  0  0  0  0  0  0  0  0  0
  150.1096  139.1414  179.4109 C   0  0  0  0  0  0  0  0  0  0  0  0
 30 31  1  0  0  0
 31 29  1  0  0  0
 29 28  1  0  0  0
 28  1  1  0  0  0
  1  2  1  0  0  0
  2  3  1  0  0  0
  3  4  2  0  0  0
  3  6  1  0  0  0
  6  7  1  0  0  0
  7  8  1  0  0  0
  8  9  1  0  0  0
  8 10  1  0  0  0
  7 11  1  0  0  0
 11 12  1  0  0  0
 11 13  1  0  0  0
  1 14  1  0  0  0
 14 15  2  0  0  0
 14 16  1  0  0  0
 16 17  2  0  0  0
 16 18  1  0  0  0
 18 20  1  0  0  0
 20 21  1  0  0  0
 20 22  1  0  0  0
 22 23  2  0  0  0
 23 24  1  0  0  0
 24 25  2  0  0  0
 25 26  1  0  0  0
 26 27  2  0  0  0
 27 22  1  0  0  0
  2  5  1  0  0  0
 18 19  1  0  0  0
M  END
> <minimizedAffinity>
-6.52697

> <CNNscore>
0.5766600966

> <CNNaffinity>
5.9816007614

> <CNN_VS>
3.4493503571

> <CNNaffinity_variance>
0.0905550197

$$$$
[H]c1c([H])c([H])c([C@]([H])(N([H])C(=O)C(=O)[C@@]([H])(N([H])C(=O)OC([H])(C([H])(C([H])([H])[H])C([H])([H])[H])C([H])(C([H])([H])[H])C([H])([H])[H])C([H])([H])C([H])([H])C([H])([H])C([H])([H])[H])C([H])([H])[H])c([H])c1[H]


 31 31  0  0  0  0  0  0  0  0999 V2000
  154.1224  140.1200  183.1825 C   0  0  0  0  0  0  0  0  0  0  0  0
  155.1143  140.8182  182.3638 N   0  0  0  0  0  0  0  0  0  0  0  0
  155.6660  142.0733  182.7258 C   0  0  0  0  0  0  0  0  0  0  0  0
  155.3405  142.6794  183.7811 O   0  0  0  0  0  0  0  0  0  0  0  0
  155.4093  140.3562  181.4890 H   0  0  0  0  0  0  0  0  0  0  0  0
  156.5847  142.6710  181.9223 O   0  0  0  0  0  0  0  0  0  0  0  0
  157.8700  142.1979  181.6325 C   0  0  0  0  0  0  0  0  0  0  0  0
  158.3332  141.0872  182.5093 C   0  0  0  0  0  0  0  0  0  0  0  0
  159.6368  141.5042  183.1589 C   0  0  0  0  0  0  0  0  0  0  0  0
  158.6086  139.8625  181.6766 C   0  0  0  0  0  0  0  0  0  0  0  0
  158.8762  143.3057  181.4529 C   0  0  0  0  0  0  0  0  0  0  0  0
  159.1482  143.4424  179.9563 C   0  0  0  0  0  0  0  0  0  0  0  0
  158.4477  144.6270  181.9612 C   0  0  0  0  0  0  0  0  0  0  0  0
  154.8538  139.1372  184.0050 C   0  0  0  0  0  0  0  0  0  0  0  0
  156.1028  139.1476  184.0627 O   0  0  0  0  0  0  0  0  0  0  0  0
  154.1431  138.1363  184.7672 C   0  0  0  0  0  0  0  0  0  0  0  0
  154.0456  136.9689  184.3304 O   0  0  0  0  0  0  0  0  0  0  0  0
  153.5465  138.4409  186.0097 N   0  0  0  0  0  0  0  0  0  0  0  0
  153.6124  139.4171  186.4056 H   0  0  0  0  0  0  0  0  0  0  0  0
  152.8336  137.4742  186.7927 C   0  0  0  0  0  0  0  0  0  0  0  0
  151.3477  137.6148  186.7072 C   0  0  0  0  0  0  0  0  0  0  0  0
  153.3032  137.5479  188.2029 C   0  0  0  0  0  0  0  0  0  0  0  0
  154.2191  138.4724  188.6216 C   0  0  0  0  0  0  0  0  0  0  0  0
  154.6679  138.5538  189.9324 C   0  0  0  0  0  0  0  0  0  0  0  0
  154.1630  137.6611  190.8416 C   0  0  0  0  0  0  0  0  0  0  0  0
  153.2396  136.7216  190.4425 C   0  0  0  0  0  0  0  0  0  0  0  0
  152.8104  136.6627  189.1317 C   0  0  0  0  0  0  0  0  0  0  0  0
  153.1022  139.4426  182.2847 C   0  0  0  0  0  0  0  0  0  0  0  0
  152.6553  140.3177  181.1509 C   0  0  0  0  0  0  0  0  0  0  0  0
  150.9779  138.7961  180.2313 C   0  0  0  0  0  0  0  0  0  0  0  0
  151.1535  140.0969  180.9951 C   0  0  0  0  0  0  0  0  0  0  0  0
 30 31  1  0  0  0
 31 29  1  0  0  0
 29 28  1  0  0  0
 28  1  1  0  0  0
  1  2  1  0  0  0
  2  3  1  0  0  0
  3  4  2  0  0  0
  3  6  1  0  0  0
  6  7  1  0  0  0
  7  8  1  0  0  0
  8  9  1  0  0  0
  8 10  1  0  0  0
  7 11  1  0  0  0
 11 12  1  0  0  0
 11 13  1  0  0  0
  1 14  1  0  0  0
 14 15  2  0  0  0
 14 16  1  0  0  0
 16 17  2  0  0  0
 16 18  1  0  0  0
 18 20  1  0  0  0
 20 21  1  0  0  0
 20 22  1  0  0  0
 22 23  2  0  0  0
 23 24  1  0  0  0
 24 25  2  0  0  0
 25 26  1  0  0  0
 26 27  2  0  0  0
 27 22  1  0  0  0
  2  5  1  0  0  0
 18 19  1  0  0  0
M  END
> <minimizedAffinity>
-7.24945

> <CNNscore>
0.5639821291

> <CNNaffinity>
6.1126017570

> <CNN_VS>
3.4473981857

> <CNNaffinity_variance>
0.0111192418

$$$$
[H]c1c([H])c([H])c([C@]([H])(N([H])C(=O)C(=O)[C@@]([H])(N([H])C(=O)OC([H])(C([H])(C([H])([H])[H])C([H])([H])[H])C([H])(C([H])([H])[H])C([H])([H])[H])C([H])([H])C([H])([H])C([H])([H])C([H])([H])[H])C([H])([H])[H])c([H])c1[H]


 31 31  0  0  0  0  0  0  0  0999 V2000
  152.6567  139.5313  182.1037 C   0  0  0  0  0  0  0  0  0  0  0  0
  154.0212  139.9035  182.4791 N   0  0  0  0  0  0  0  0  0  0  0  0
  154.4332  141.2497  182.6492 C   0  0  0  0  0  0  0  0  0  0  0  0
  153.6519  142.2247  182.4882 O   0  0  0  0  0  0  0  0  0  0  0  0
  154.6950  139.1344  182.6208 H   0  0  0  0  0  0  0  0  0  0  0  0
  155.7160  141.5306  182.9994 O   0  0  0  0  0  0  0  0  0  0  0  0
  156.8476  141.4043  182.1850 C   0  0  0  0  0  0  0  0  0  0  0  0
  158.0822  140.9815  182.9018 C   0  0  0  0  0  0  0  0  0  0  0  0
  158.4207  139.5676  182.4758 C   0  0  0  0  0  0  0  0  0  0  0  0
  157.8278  140.9632  184.3864 C   0  0  0  0  0  0  0  0  0  0  0  0
  157.0398  142.5800  181.2615 C   0  0  0  0  0  0  0  0  0  0  0  0
  156.9943  143.8468  182.1133 C   0  0  0  0  0  0  0  0  0  0  0  0
  158.3134  142.5816  180.5093 C   0  0  0  0  0  0  0  0  0  0  0  0
  152.4739  138.1167  182.4817 C   0  0  0  0  0  0  0  0  0  0  0  0
  152.2384  137.2440  181.6177 O   0  0  0  0  0  0  0  0  0  0  0  0
  152.5638  137.7032  183.8633 C   0  0  0  0  0  0  0  0  0  0  0  0
  153.6338  137.8509  184.4928 O   0  0  0  0  0  0  0  0  0  0  0  0
  151.4630  137.1288  184.5347 N   0  0  0  0  0  0  0  0  0  0  0  0
  150.5458  136.9918  184.0306 H   0  0  0  0  0  0  0  0  0  0  0  0
  151.5158  136.7064  185.9039 C   0  0  0  0  0  0  0  0  0  0  0  0
  152.1000  135.3424  186.0861 C   0  0  0  0  0  0  0  0  0  0  0  0
  150.1521  136.7934  186.4932 C   0  0  0  0  0  0  0  0  0  0  0  0
  149.1836  137.6096  185.9788 C   0  0  0  0  0  0  0  0  0  0  0  0
  147.9076  137.7029  186.5168 C   0  0  0  0  0  0  0  0  0  0  0  0
  147.6152  136.9369  187.6151 C   0  0  0  0  0  0  0  0  0  0  0  0
  148.5749  136.1075  188.1499 C   0  0  0  0  0  0  0  0  0  0  0  0
  149.8367  136.0342  187.5946 C   0  0  0  0  0  0  0  0  0  0  0  0
  152.4616  139.7366  180.6119 C   0  0  0  0  0  0  0  0  0  0  0  0
  151.1232  140.3261  180.2774 C   0  0  0  0  0  0  0  0  0  0  0  0
  149.5216  138.5744  179.6930 C   0  0  0  0  0  0  0  0  0  0  0  0
  150.5664  139.5117  179.1131 C   0  0  0  0  0  0  0  0  0  0  0  0
 30 31  1  0  0  0
 31 29  1  0  0  0
 29 28  1  0  0  0
 28  1  1  0  0  0
  1  2  1  0  0  0
  2  3  1  0  0  0
  3  4  2  0  0  0
  3  6  1  0  0  0
  6  7  1  0  0  0
  7  8  1  0  0  0
  8  9  1  0  0  0
  8 10  1  0  0  0
  7 11  1  0  0  0
 11 12  1  0  0  0
 11 13  1  0  0  0
  1 14  1  0  0  0
 14 15  2  0  0  0
 14 16  1  0  0  0
 16 17  2  0  0  0
 16 18  1  0  0  0
 18 20  1  0  0  0
 20 21  1  0  0  0
 20 22  1  0  0  0
 22 23  2  0  0  0
 23 24  1  0  0  0
 24 25  2  0  0  0
 25 26  1  0  0  0
 26 27  2  0  0  0
 27 22  1  0  0  0
  2  5  1  0  0  0
 18 19  1  0  0  0
M  END
> <minimizedAffinity>
-6.01409

> <CNNscore>
0.5610935688

> <CNNaffinity>
5.9147248268

> <CNN_VS>
3.3187141418

> <CNNaffinity_variance>
0.0108071286

$$$$
[H]c1c([H])c([H])c([C@]([H])(N([H])C(=O)C(=O)[C@@]([H])(N([H])C(=O)OC([H])(C([H])(C([H])([H])[H])C([H])([H])[H])C([H])(C([H])([H])[H])C([H])([H])[H])C([H])([H])C([H])([H])C([H])([H])C([H])([H])[H])C([H])([H])[H])c([H])c1[H]


 31 31  0  0  0  0  0  0  0  0999 V2000
  154.6337  140.3220  183.1820 C   0  0  0  0  0  0  0  0  0  0  0  0
  155.5333  141.0055  182.2519 N   0  0  0  0  0  0  0  0  0  0  0  0
  155.9806  142.3363  182.4507 C   0  0  0  0  0  0  0  0  0  0  0  0
  155.6342  143.0281  183.4449 O   0  0  0  0  0  0  0  0  0  0  0  0
  155.8419  140.4744  181.4223 H   0  0  0  0  0  0  0  0  0  0  0  0
  156.8168  142.9158  181.5496 O   0  0  0  0  0  0  0  0  0  0  0  0
  158.2117  142.9935  181.6391 C   0  0  0  0  0  0  0  0  0  0  0  0
  158.9359  142.5616  180.4118 C   0  0  0  0  0  0  0  0  0  0  0  0
  159.5731  143.7819  179.7795 C   0  0  0  0  0  0  0  0  0  0  0  0
  157.9581  141.9899  179.4187 C   0  0  0  0  0  0  0  0  0  0  0  0
  158.7514  142.4027  182.9164 C   0  0  0  0  0  0  0  0  0  0  0  0
  159.5232  141.1372  182.5484 C   0  0  0  0  0  0  0  0  0  0  0  0
  159.6609  143.2865  183.6778 C   0  0  0  0  0  0  0  0  0  0  0  0
  155.4500  139.3581  183.9449 C   0  0  0  0  0  0  0  0  0  0  0  0
  156.6910  139.3085  183.8007 O   0  0  0  0  0  0  0  0  0  0  0  0
  154.8341  138.4456  184.8809 C   0  0  0  0  0  0  0  0  0  0  0  0
  154.4001  137.3418  184.4858 O   0  0  0  0  0  0  0  0  0  0  0  0
  154.7059  138.7675  186.2492 N   0  0  0  0  0  0  0  0  0  0  0  0
  155.0634  139.6914  186.6135 H   0  0  0  0  0  0  0  0  0  0  0  0
  154.1004  137.8878  187.2060 C   0  0  0  0  0  0  0  0  0  0  0  0
  152.6379  138.1304  187.3987 C   0  0  0  0  0  0  0  0  0  0  0  0
  154.8390  137.9867  188.4941 C   0  0  0  0  0  0  0  0  0  0  0  0
  154.3086  138.5967  189.5965 C   0  0  0  0  0  0  0  0  0  0  0  0
  154.9844  138.6981  190.8046 C   0  0  0  0  0  0  0  0  0  0  0  0
  156.2415  138.1581  190.8855 C   0  0  0  0  0  0  0  0  0  0  0  0
  156.7955  137.5389  189.7880 C   0  0  0  0  0  0  0  0  0  0  0  0
  156.1010  137.4522  188.5980 C   0  0  0  0  0  0  0  0  0  0  0  0
  153.5299  139.6239  182.4076 C   0  0  0  0  0  0  0  0  0  0  0  0
  152.7798  140.5541  181.5005 C   0  0  0  0  0  0  0  0  0  0  0  0
  150.9649  140.3026  179.8825 C   0  0  0  0  0  0  0  0  0  0  0  0
  152.2959  139.7167  180.3201 C   0  0  0  0  0  0  0  0  0  0  0  0
 30 31  1  0  0  0
 31 29  1  0  0  0
 29 28  1  0  0  0
 28  1  1  0  0  0
  1  2  1  0  0  0
  2  3  1  0  0  0
  3  4  2  0  0  0
  3  6  1  0  0  0
  6  7  1  0  0  0
  7  8  1  0  0  0
  8  9  1  0  0  0
  8 10  1  0  0  0
  7 11  1  0  0  0
 11 12  1  0  0  0
 11 13  1  0  0  0
  1 14  1  0  0  0
 14 15  2  0  0  0
 14 16  1  0  0  0
 16 17  2  0  0  0
 16 18  1  0  0  0
 18 20  1  0  0  0
 20 21  1  0  0  0
 20 22  1  0  0  0
 22 23  2  0  0  0
 23 24  1  0  0  0
 24 25  2  0  0  0
 25 26  1  0  0  0
 26 27  2  0  0  0
 27 22  1  0  0  0
  2  5  1  0  0  0
 18 19  1  0  0  0
M  END
> <minimizedAffinity>
-8.17846

> <CNNscore>
0.5568871498

> <CNNaffinity>
6.2629823685

> <CNN_VS>
3.4877743721

> <CNNaffinity_variance>
0.0085923690

$$$$
[H]c1c([H])c([H])c([C@]([H])(N([H])C(=O)C(=O)[C@@]([H])(N([H])C(=O)OC([H])(C([H])(C([H])([H])[H])C([H])([H])[H])C([H])(C([H])([H])[H])C([H])([H])[H])C([H])([H])C([H])([H])C([H])([H])C([H])([H])[H])C([H])([H])[H])c([H])c1[H]


 31 31  0  0  0  0  0  0  0  0999 V2000
  153.6127  138.0058  185.5839 C   0  0  0  0  0  0  0  0  0  0  0  0
  154.3624  138.8502  184.6530 N   0  0  0  0  0  0  0  0  0  0  0  0
  155.7295  139.1771  184.8397 C   0  0  0  0  0  0  0  0  0  0  0  0
  156.3987  138.7632  185.8235 O   0  0  0  0  0  0  0  0  0  0  0  0
  153.8514  139.2115  183.8320 H   0  0  0  0  0  0  0  0  0  0  0  0
  156.3706  139.9666  183.9382 O   0  0  0  0  0  0  0  0  0  0  0  0
  156.7981  141.2840  184.1415 C   0  0  0  0  0  0  0  0  0  0  0  0
  156.2044  142.2789  183.2063 C   0  0  0  0  0  0  0  0  0  0  0  0
  154.9753  142.8751  183.8611 C   0  0  0  0  0  0  0  0  0  0  0  0
  155.7602  141.5883  181.9434 C   0  0  0  0  0  0  0  0  0  0  0  0
  158.2928  141.3979  184.2995 C   0  0  0  0  0  0  0  0  0  0  0  0
  158.7474  142.6224  183.5080 C   0  0  0  0  0  0  0  0  0  0  0  0
  158.7633  141.5550  185.6930 C   0  0  0  0  0  0  0  0  0  0  0  0
  152.4845  137.4257  184.8302 C   0  0  0  0  0  0  0  0  0  0  0  0
  151.5578  136.8259  185.4175 O   0  0  0  0  0  0  0  0  0  0  0  0
  152.4216  137.5375  183.3909 C   0  0  0  0  0  0  0  0  0  0  0  0
  153.1079  136.7780  182.6733 O   0  0  0  0  0  0  0  0  0  0  0  0
  151.5957  138.4929  182.7605 N   0  0  0  0  0  0  0  0  0  0  0  0
  151.0036  139.1478  183.3391 H   0  0  0  0  0  0  0  0  0  0  0  0
  151.5084  138.6329  181.3362 C   0  0  0  0  0  0  0  0  0  0  0  0
  152.2801  139.7965  180.8019 C   0  0  0  0  0  0  0  0  0  0  0  0
  150.0756  138.7073  180.9411 C   0  0  0  0  0  0  0  0  0  0  0  0
  149.1027  139.1444  181.7962 C   0  0  0  0  0  0  0  0  0  0  0  0
  147.7623  139.2190  181.4437 C   0  0  0  0  0  0  0  0  0  0  0  0
  147.4082  138.8343  180.1769 C   0  0  0  0  0  0  0  0  0  0  0  0
  148.3711  138.3910  179.2987 C   0  0  0  0  0  0  0  0  0  0  0  0
  149.6977  138.3267  179.6757 C   0  0  0  0  0  0  0  0  0  0  0  0
  153.1267  138.8407  186.7553 C   0  0  0  0  0  0  0  0  0  0  0  0
  153.7721  138.4516  188.0526 C   0  0  0  0  0  0  0  0  0  0  0  0
  153.4652  137.0369  190.0222 C   0  0  0  0  0  0  0  0  0  0  0  0
  152.9599  137.2871  188.6121 C   0  0  0  0  0  0  0  0  0  0  0  0
 30 31  1  0  0  0
 31 29  1  0  0  0
 29 28  1  0  0  0
 28  1  1  0  0  0
  1  2  1  0  0  0
  2  3  1  0  0  0
  3  4  2  0  0  0
  3  6  1  0  0  0
  6  7  1  0  0  0
  7  8  1  0  0  0
  8  9  1  0  0  0
  8 10  1  0  0  0
  7 11  1  0  0  0
 11 12  1  0  0  0
 11 13  1  0  0  0
  1 14  1  0  0  0
 14 15  2  0  0  0
 14 16  1  0  0  0
 16 17  2  0  0  0
 16 18  1  0  0  0
 18 20  1  0  0  0
 20 21  1  0  0  0
 20 22  1  0  0  0
 22 23  2  0  0  0
 23 24  1  0  0  0
 24 25  2  0  0  0
 25 26  1  0  0  0
 26 27  2  0  0  0
 27 22  1  0  0  0
  2  5  1  0  0  0
 18 19  1  0  0  0
M  END
> <minimizedAffinity>
-6.42277

> <CNNscore>
0.5315445662

> <CNNaffinity>
5.8927545547

> <CNN_VS>
3.1322617531

> <CNNaffinity_variance>
0.0161774717

$$$$
[H]O[C@]1([H])C([H])([H])C([H])([H])C([H])([H])C([H])([H])[C@@]1([H])N1C([H])([H])C([H])([H])C([H])(c2c([H])c([H])c(F)c([H])c2[H])C([H])([H])C1([H])[H]


 21 23  0  0  0  0  0  0  0  0999 V2000
  150.1918  134.6006  181.4910 N   0  0  0  0  0  0  0  0  0  0  0  0
  151.4423  135.0597  181.0556 C   0  0  0  0  0  0  0  0  0  0  0  0
  152.5442  135.0969  182.0761 C   0  0  0  0  0  0  0  0  0  0  0  0
  152.4412  134.0048  183.1120 C   0  0  0  0  0  0  0  0  0  0  0  0
  151.4797  132.9549  182.5927 C   0  0  0  0  0  0  0  0  0  0  0  0
  150.1256  133.6335  182.5118 C   0  0  0  0  0  0  0  0  0  0  0  0
  147.7072  135.8726  183.2920 O   0  0  0  0  0  0  0  0  0  0  0  0
  148.9316  136.1983  182.7092 C   0  0  0  0  0  0  0  0  0  0  0  0
  149.0215  137.6904  182.5308 C   0  0  0  0  0  0  0  0  0  0  0  0
  147.9250  138.0723  181.5360 C   0  0  0  0  0  0  0  0  0  0  0  0
  148.4316  137.6131  180.1739 C   0  0  0  0  0  0  0  0  0  0  0  0
  149.3940  136.4784  180.2640 C   0  0  0  0  0  0  0  0  0  0  0  0
  149.0927  135.4946  181.3707 C   0  0  0  0  0  0  0  0  0  0  0  0
  147.0296  135.6369  182.5963 H   0  0  0  0  0  0  0  0  0  0  0  0
  153.7583  133.4215  183.4474 C   0  0  0  0  0  0  0  0  0  0  0  0
  154.1921  132.2903  182.7882 C   0  0  0  0  0  0  0  0  0  0  0  0
  155.4280  131.7007  183.0682 C   0  0  0  0  0  0  0  0  0  0  0  0
  156.2578  132.2462  184.0276 C   0  0  0  0  0  0  0  0  0  0  0  0
  157.4672  131.7072  184.3334 F   0  0  0  0  0  0  0  0  0  0  0  0
  155.8194  133.3779  184.6841 C   0  0  0  0  0  0  0  0  0  0  0  0
  154.5881  133.9631  184.4035 C   0  0  0  0  0  0  0  0  0  0  0  0
  7  8  1  0  0  0
  8  9  1  0  0  0
  9 10  1  0  0  0
 10 11  1  0  0  0
 11 12  1  0  0  0
 12 13  1  0  0  0
 13  1  1  0  0  0
  1  2  1  0  0  0
  2  3  1  0  0  0
  3  4  1  0  0  0
  4  5  1  0  0  0
  5  6  1  0  0  0
  4 15  1  0  0  0
 15 16  2  0  0  0
 16 17  1  0  0  0
 17 18  2  0  0  0
 18 19  1  0  0  0
 18 20  1  0  0  0
 20 21  2  0  0  0
 13  8  1  0  0  0
  6  1  1  0  0  0
 21 15  1  0  0  0
  7 14  1  0  0  0
M  END
> <minimizedAffinity>
-2.20562

> <CNNscore>
0.5770029426

> <CNNaffinity>
4.4267654419

> <CNN_VS>
2.5542566776

> <CNNaffinity_variance>
0.9426515698

$$$$
[H]O[C@]1([H])C([H])([H])C([H])([H])C([H])([H])C([H])([H])[C@@]1([H])N1C([H])([H])C([H])([H])C([H])(c2c([H])c([H])c(F)c([H])c2[H])C([H])([H])C1([H])[H]


 21 23  0  0  0  0  0  0  0  0999 V2000
  157.6227  141.8052  182.5660 N   0  0  0  0  0  0  0  0  0  0  0  0
  158.5666  142.8272  182.3962 C   0  0  0  0  0  0  0  0  0  0  0  0
  159.2207  143.3597  183.6394 C   0  0  0  0  0  0  0  0  0  0  0  0
  159.3945  142.3207  184.7194 C   0  0  0  0  0  0  0  0  0  0  0  0
  159.2155  140.9543  184.0890 C   0  0  0  0  0  0  0  0  0  0  0  0
  157.7717  140.8938  183.6284 C   0  0  0  0  0  0  0  0  0  0  0  0
  154.7334  140.2424  182.0714 O   0  0  0  0  0  0  0  0  0  0  0  0
  155.3647  141.1643  182.9059 C   0  0  0  0  0  0  0  0  0  0  0  0
  154.3268  141.9932  183.6142 C   0  0  0  0  0  0  0  0  0  0  0  0
  153.5936  142.7840  182.5303 C   0  0  0  0  0  0  0  0  0  0  0  0
  154.5599  143.8819  182.1017 C   0  0  0  0  0  0  0  0  0  0  0  0
  155.9882  143.5197  182.3275 C   0  0  0  0  0  0  0  0  0  0  0  0
  156.3008  142.0578  182.1072 C   0  0  0  0  0  0  0  0  0  0  0  0
  154.6570  140.5950  181.1395 H   0  0  0  0  0  0  0  0  0  0  0  0
  160.6978  142.4381  185.4086 C   0  0  0  0  0  0  0  0  0  0  0  0
  160.7381  142.8218  186.7328 C   0  0  0  0  0  0  0  0  0  0  0  0
  161.9436  142.9474  187.4289 C   0  0  0  0  0  0  0  0  0  0  0  0
  163.1428  142.6857  186.7965 C   0  0  0  0  0  0  0  0  0  0  0  0
  164.3385  142.7949  187.4329 F   0  0  0  0  0  0  0  0  0  0  0  0
  163.0972  142.3019  185.4720 C   0  0  0  0  0  0  0  0  0  0  0  0
  161.8954  142.1778  184.7808 C   0  0  0  0  0  0  0  0  0  0  0  0
  7  8  1  0  0  0
  8  9  1  0  0  0
  9 10  1  0  0  0
 10 11  1  0  0  0
 11 12  1  0  0  0
 12 13  1  0  0  0
 13  1  1  0  0  0
  1  2  1  0  0  0
  2  3  1  0  0  0
  3  4  1  0  0  0
  4  5  1  0  0  0
  5  6  1  0  0  0
  4 15  1  0  0  0
 15 16  2  0  0  0
 16 17  1  0  0  0
 17 18  2  0  0  0
 18 19  1  0  0  0
 18 20  1  0  0  0
 20 21  2  0  0  0
 13  8  1  0  0  0
  6  1  1  0  0  0
 21 15  1  0  0  0
  7 14  1  0  0  0
M  END
> <minimizedAffinity>
-8.55366

> <CNNscore>
0.5244972706

> <CNNaffinity>
6.1924734116

> <CNN_VS>
3.2479352951

> <CNNaffinity_variance>
0.1465820372

$$$$
[H]O[C@]1([H])C([H])([H])C([H])([H])C([H])([H])C([H])([H])[C@@]1([H])N1C([H])([H])C([H])([H])C([H])(c2c([H])c([H])c(F)c([H])c2[H])C([H])([H])C1([H])[H]


 21 23  0  0  0  0  0  0  0  0999 V2000
  155.4864  139.6278  184.5719 N   0  0  0  0  0  0  0  0  0  0  0  0
  156.8789  139.7666  184.6483 C   0  0  0  0  0  0  0  0  0  0  0  0
  157.6088  140.0043  183.3569 C   0  0  0  0  0  0  0  0  0  0  0  0
  156.8088  140.7945  182.3510 C   0  0  0  0  0  0  0  0  0  0  0  0
  155.6558  141.4529  183.0815 C   0  0  0  0  0  0  0  0  0  0  0  0
  154.7746  140.3213  183.5749 C   0  0  0  0  0  0  0  0  0  0  0  0
  155.8156  137.4315  187.0423 O   0  0  0  0  0  0  0  0  0  0  0  0
  154.9777  138.4357  186.5581 C   0  0  0  0  0  0  0  0  0  0  0  0
  153.5972  138.2572  187.1311 C   0  0  0  0  0  0  0  0  0  0  0  0
  153.0753  136.9255  186.5909 C   0  0  0  0  0  0  0  0  0  0  0  0
  152.7228  137.1869  185.1313 C   0  0  0  0  0  0  0  0  0  0  0  0
  153.5063  138.3066  184.5358 C   0  0  0  0  0  0  0  0  0  0  0  0
  154.9279  138.4063  185.0385 C   0  0  0  0  0  0  0  0  0  0  0  0
  155.8597  136.6625  186.4056 H   0  0  0  0  0  0  0  0  0  0  0  0
  157.6352  141.7857  181.6285 C   0  0  0  0  0  0  0  0  0  0  0  0
  158.0171  141.5375  180.3266 C   0  0  0  0  0  0  0  0  0  0  0  0
  158.7974  142.4418  179.6008 C   0  0  0  0  0  0  0  0  0  0  0  0
  159.2113  143.6250  180.1798 C   0  0  0  0  0  0  0  0  0  0  0  0
  159.9709  144.5332  179.5129 F   0  0  0  0  0  0  0  0  0  0  0  0
  158.8265  143.8687  181.4822 C   0  0  0  0  0  0  0  0  0  0  0  0
  158.0495  142.9665  182.2031 C   0  0  0  0  0  0  0  0  0  0  0  0
  7  8  1  0  0  0
  8  9  1  0  0  0
  9 10  1  0  0  0
 10 11  1  0  0  0
 11 12  1  0  0  0
 12 13  1  0  0  0
 13  1  1  0  0  0
  1  2  1  0  0  0
  2  3  1  0  0  0
  3  4  1  0  0  0
  4  5  1  0  0  0
  5  6  1  0  0  0
  4 15  1  0  0  0
 15 16  2  0  0  0
 16 17  1  0  0  0
 17 18  2  0  0  0
 18 19  1  0  0  0
 18 20  1  0  0  0
 20 21  2  0  0  0
 13  8  1  0  0  0
  6  1  1  0  0  0
 21 15  1  0  0  0
  7 14  1  0  0  0
M  END
> <minimizedAffinity>
-7.52485

> <CNNscore>
0.4894893765

> <CNNaffinity>
5.4877853394

> <CNN_VS>
2.6862125397

> <CNNaffinity_variance>
0.1221440062

$$$$
[H]O[C@]1([H])C([H])([H])C([H])([H])C([H])([H])C([H])([H])[C@@]1([H])N1C([H])([H])C([H])([H])C([H])(c2c([H])c([H])c(F)c([H])c2[H])C([H])([H])C1([H])[H]


 21 23  0  0  0  0  0  0  0  0999 V2000
  154.9058  140.2514  184.3884 N   0  0  0  0  0  0  0  0  0  0  0  0
  156.2947  140.0646  184.3779 C   0  0  0  0  0  0  0  0  0  0  0  0
  156.9848  140.1820  183.0486 C   0  0  0  0  0  0  0  0  0  0  0  0
  156.3329  141.1750  182.1185 C   0  0  0  0  0  0  0  0  0  0  0  0
  155.4067  142.0491  182.9398 C   0  0  0  0  0  0  0  0  0  0  0  0
  154.3176  141.1298  183.4588 C   0  0  0  0  0  0  0  0  0  0  0  0
  152.4241  138.2753  183.4028 O   0  0  0  0  0  0  0  0  0  0  0  0
  153.7945  138.2864  183.6612 C   0  0  0  0  0  0  0  0  0  0  0  0
  154.2695  136.8801  183.9119 C   0  0  0  0  0  0  0  0  0  0  0  0
  153.5674  136.4087  185.1857 C   0  0  0  0  0  0  0  0  0  0  0  0
  154.2686  137.1315  186.3297 C   0  0  0  0  0  0  0  0  0  0  0  0
  154.8892  138.4200  185.9095 C   0  0  0  0  0  0  0  0  0  0  0  0
  154.1078  139.1719  184.8571 C   0  0  0  0  0  0  0  0  0  0  0  0
  151.9002  138.4518  184.2353 H   0  0  0  0  0  0  0  0  0  0  0  0
  157.3233  141.9797  181.3708 C   0  0  0  0  0  0  0  0  0  0  0  0
  157.8096  143.1473  181.9207 C   0  0  0  0  0  0  0  0  0  0  0  0
  158.7462  143.9430  181.2549 C   0  0  0  0  0  0  0  0  0  0  0  0
  159.2146  143.5724  180.0100 C   0  0  0  0  0  0  0  0  0  0  0  0
  160.1244  144.3146  179.3258 F   0  0  0  0  0  0  0  0  0  0  0  0
  158.7252  142.4035  179.4643 C   0  0  0  0  0  0  0  0  0  0  0  0
  157.7924  141.6128  180.1292 C   0  0  0  0  0  0  0  0  0  0  0  0
  7  8  1  0  0  0
  8  9  1  0  0  0
  9 10  1  0  0  0
 10 11  1  0  0  0
 11 12  1  0  0  0
 12 13  1  0  0  0
 13  1  1  0  0  0
  1  2  1  0  0  0
  2  3  1  0  0  0
  3  4  1  0  0  0
  4  5  1  0  0  0
  5  6  1  0  0  0
  4 15  1  0  0  0
 15 16  2  0  0  0
 16 17  1  0  0  0
 17 18  2  0  0  0
 18 19  1  0  0  0
 18 20  1  0  0  0
 20 21  2  0  0  0
 13  8  1  0  0  0
  6  1  1  0  0  0
 21 15  1  0  0  0
  7 14  1  0  0  0
M  END
> <minimizedAffinity>
-7.30126

> <CNNscore>
0.4461418092

> <CNNaffinity>
5.5023851395

> <CNN_VS>
2.4548439980

> <CNNaffinity_variance>
0.1252589524

$$$$
[H]O[C@]1([H])C([H])([H])C([H])([H])C([H])([H])C([H])([H])[C@@]1([H])N1C([H])([H])C([H])([H])C([H])(c2c([H])c([H])c(F)c([H])c2[H])C([H])([H])C1([H])[H]


 21 23  0  0  0  0  0  0  0  0999 V2000
  151.1454  138.1362  181.1576 N   0  0  0  0  0  0  0  0  0  0  0  0
  151.8201  139.0623  180.3507 C   0  0  0  0  0  0  0  0  0  0  0  0
  152.3952  140.2683  181.0376 C   0  0  0  0  0  0  0  0  0  0  0  0
  152.8558  139.9943  182.4478 C   0  0  0  0  0  0  0  0  0  0  0  0
  152.9641  138.4928  182.6225 C   0  0  0  0  0  0  0  0  0  0  0  0
  151.5518  137.9552  182.4933 C   0  0  0  0  0  0  0  0  0  0  0  0
  148.2083  137.7530  182.6615 O   0  0  0  0  0  0  0  0  0  0  0  0
  148.9402  138.6388  181.8711 C   0  0  0  0  0  0  0  0  0  0  0  0
  147.9991  139.5845  181.1738 C   0  0  0  0  0  0  0  0  0  0  0  0
  147.1469  138.7301  180.2349 C   0  0  0  0  0  0  0  0  0  0  0  0
  148.0619  138.3643  179.0724 C   0  0  0  0  0  0  0  0  0  0  0  0
  149.5047  138.3605  179.4472 C   0  0  0  0  0  0  0  0  0  0  0  0
  149.7798  137.8819  180.8539 C   0  0  0  0  0  0  0  0  0  0  0  0
  148.0235  136.9023  182.1707 H   0  0  0  0  0  0  0  0  0  0  0  0
  154.1298  140.6748  182.7659 C   0  0  0  0  0  0  0  0  0  0  0  0
  155.0203  140.0843  183.6380 C   0  0  0  0  0  0  0  0  0  0  0  0
  156.2371  140.6861  183.9710 C   0  0  0  0  0  0  0  0  0  0  0  0
  156.5820  141.9067  183.4253 C   0  0  0  0  0  0  0  0  0  0  0  0
  157.7534  142.5292  183.7202 F   0  0  0  0  0  0  0  0  0  0  0  0
  155.6879  142.4932  182.5533 C   0  0  0  0  0  0  0  0  0  0  0  0
  154.4767  141.8919  182.2234 C   0  0  0  0  0  0  0  0  0  0  0  0
  7  8  1  0  0  0
  8  9  1  0  0  0
  9 10  1  0  0  0
 10 11  1  0  0  0
 11 12  1  0  0  0
 12 13  1  0  0  0
 13  1  1  0  0  0
  1  2  1  0  0  0
  2  3  1  0  0  0
  3  4  1  0  0  0
  4  5  1  0  0  0
  5  6  1  0  0  0
  4 15  1  0  0  0
 15 16  2  0  0  0
 16 17  1  0  0  0
 17 18  2  0  0  0
 18 19  1  0  0  0
 18 20  1  0  0  0
 20 21  2  0  0  0
 13  8  1  0  0  0
  6  1  1  0  0  0
 21 15  1  0  0  0
  7 14  1  0  0  0
M  END
> <minimizedAffinity>
-7.37982

> <CNNscore>
0.3801163435

> <CNNaffinity>
4.9970393181

> <CNN_VS>
1.8994562626

> <CNNaffinity_variance>
0.0499611646

$$$$
[H]O[C@]1([H])C([H])([H])C([H])([H])C([H])([H])C([H])([H])[C@@]1([H])N1C([H])([H])C([H])([H])C([H])(c2c([H])c([H])c(F)c([H])c2[H])C([H])([H])C1([H])[H]


 21 23  0  0  0  0  0  0  0  0999 V2000
  154.1577  136.8306  187.7995 N   0  0  0  0  0  0  0  0  0  0  0  0
  153.1273  137.7620  187.6124 C   0  0  0  0  0  0  0  0  0  0  0  0
  153.3627  138.8377  186.5903 C   0  0  0  0  0  0  0  0  0  0  0  0
  154.2164  138.3884  185.4305 C   0  0  0  0  0  0  0  0  0  0  0  0
  154.2609  136.8736  185.4398 C   0  0  0  0  0  0  0  0  0  0  0  0
  154.9856  136.4858  186.7145 C   0  0  0  0  0  0  0  0  0  0  0  0
  156.8517  135.6649  189.3545 O   0  0  0  0  0  0  0  0  0  0  0  0
  156.2298  136.8468  188.9533 C   0  0  0  0  0  0  0  0  0  0  0  0
  156.7542  137.9940  189.7749 C   0  0  0  0  0  0  0  0  0  0  0  0
  156.3293  137.7201  191.2179 C   0  0  0  0  0  0  0  0  0  0  0  0
  154.8361  138.0212  191.2680 C   0  0  0  0  0  0  0  0  0  0  0  0
  154.1660  137.8597  189.9464 C   0  0  0  0  0  0  0  0  0  0  0  0
  154.7204  136.7359  189.1019 C   0  0  0  0  0  0  0  0  0  0  0  0
  156.2996  135.1805  190.0321 H   0  0  0  0  0  0  0  0  0  0  0  0
  153.7286  138.9128  184.1364 C   0  0  0  0  0  0  0  0  0  0  0  0
  154.1109  140.1714  183.7218 C   0  0  0  0  0  0  0  0  0  0  0  0
  153.6777  140.7123  182.5080 C   0  0  0  0  0  0  0  0  0  0  0  0
  152.8428  139.9869  181.6815 C   0  0  0  0  0  0  0  0  0  0  0  0
  152.3963  140.4722  180.4932 F   0  0  0  0  0  0  0  0  0  0  0  0
  152.4634  138.7283  182.1006 C   0  0  0  0  0  0  0  0  0  0  0  0
  152.8960  138.1918  183.3099 C   0  0  0  0  0  0  0  0  0  0  0  0
  7  8  1  0  0  0
  8  9  1  0  0  0
  9 10  1  0  0  0
 10 11  1  0  0  0
 11 12  1  0  0  0
 12 13  1  0  0  0
 13  1  1  0  0  0
  1  2  1  0  0  0
  2  3  1  0  0  0
  3  4  1  0  0  0
  4  5  1  0  0  0
  5  6  1  0  0  0
  4 15  1  0  0  0
 15 16  2  0  0  0
 16 17  1  0  0  0
 17 18  2  0  0  0
 18 19  1  0  0  0
 18 20  1  0  0  0
 20 21  2  0  0  0
 13  8  1  0  0  0
  6  1  1  0  0  0
 21 15  1  0  0  0
  7 14  1  0  0  0
M  END
> <minimizedAffinity>
-7.02784

> <CNNscore>
0.3692430854

> <CNNaffinity>
4.7230019569

> <CNN_VS>
1.7439358234

> <CNNaffinity_variance>
0.0200978760

$$$$
[H]O[C@]1([H])C([H])([H])C([H])([H])C([H])([H])C([H])([H])[C@@]1([H])N1C([H])([H])C([H])([H])C([H])(c2c([H])c([H])c(F)c([H])c2[H])C([H])([H])C1([H])[H]


 21 23  0  0  0  0  0  0  0  0999 V2000
  153.7245  139.6815  183.6027 N   0  0  0  0  0  0  0  0  0  0  0  0
  154.9456  139.9237  184.2463 C   0  0  0  0  0  0  0  0  0  0  0  0
  156.1238  140.2394  183.3691 C   0  0  0  0  0  0  0  0  0  0  0  0
  155.7537  140.9850  182.1109 C   0  0  0  0  0  0  0  0  0  0  0  0
  154.3552  141.5409  182.2891 C   0  0  0  0  0  0  0  0  0  0  0  0
  153.4381  140.3372  182.3903 C   0  0  0  0  0  0  0  0  0  0  0  0
  150.9782  137.9851  182.8186 O   0  0  0  0  0  0  0  0  0  0  0  0
  152.3448  138.0634  182.5523 C   0  0  0  0  0  0  0  0  0  0  0  0
  152.8230  136.7508  181.9916 C   0  0  0  0  0  0  0  0  0  0  0  0
  152.6310  135.7137  183.0986 C   0  0  0  0  0  0  0  0  0  0  0  0
  153.7377  135.9868  184.1103 C   0  0  0  0  0  0  0  0  0  0  0  0
  154.2063  137.4017  184.0913 C   0  0  0  0  0  0  0  0  0  0  0  0
  153.1181  138.4129  183.8143 C   0  0  0  0  0  0  0  0  0  0  0  0
  150.8116  137.7369  183.7722 H   0  0  0  0  0  0  0  0  0  0  0  0
  156.7266  142.0488  181.7805 C   0  0  0  0  0  0  0  0  0  0  0  0
  157.6510  141.8416  180.7781 C   0  0  0  0  0  0  0  0  0  0  0  0
  158.5911  142.8148  180.4278 C   0  0  0  0  0  0  0  0  0  0  0  0
  158.6167  144.0271  181.0882 C   0  0  0  0  0  0  0  0  0  0  0  0
  159.5125  145.0022  180.7821 F   0  0  0  0  0  0  0  0  0  0  0  0
  157.6898  144.2297  182.0900 C   0  0  0  0  0  0  0  0  0  0  0  0
  156.7547  143.2589  182.4371 C   0  0  0  0  0  0  0  0  0  0  0  0
  7  8  1  0  0  0
  8  9  1  0  0  0
  9 10  1  0  0  0
 10 11  1  0  0  0
 11 12  1  0  0  0
 12 13  1  0  0  0
 13  1  1  0  0  0
  1  2  1  0  0  0
  2  3  1  0  0  0
  3  4  1  0  0  0
  4  5  1  0  0  0
  5  6  1  0  0  0
  4 15  1  0  0  0
 15 16  2  0  0  0
 16 17  1  0  0  0
 17 18  2  0  0  0
 18 19  1  0  0  0
 18 20  1  0  0  0
 20 21  2  0  0  0
 13  8  1  0  0  0
  6  1  1  0  0  0
 21 15  1  0  0  0
  7 14  1  0  0  0
M  END
> <minimizedAffinity>
-6.84064

> <CNNscore>
0.3649933934

> <CNNaffinity>
5.3060226440

> <CNN_VS>
1.9366632700

> <CNNaffinity_variance>
0.0669953004

$$$$
[H]O[C@]1([H])C([H])([H])C([H])([H])C([H])([H])C([H])([H])[C@@]1([H])N1C([H])([H])C([H])([H])C([H])(c2c([H])c([H])c(F)c([H])c2[H])C([H])([H])C1([H])[H]


 21 23  0  0  0  0  0  0  0  0999 V2000
  156.5285  135.0134  189.8037 N   0  0  0  0  0  0  0  0  0  0  0  0
  155.5878  133.9922  189.9942 C   0  0  0  0  0  0  0  0  0  0  0  0
  154.8724  133.9667  191.3150 C   0  0  0  0  0  0  0  0  0  0  0  0
  154.6537  135.3371  191.9067 C   0  0  0  0  0  0  0  0  0  0  0  0
  154.8703  136.3613  190.8109 C   0  0  0  0  0  0  0  0  0  0  0  0
  156.3347  136.2596  190.4290 C   0  0  0  0  0  0  0  0  0  0  0  0
  158.7188  132.6469  190.6017 O   0  0  0  0  0  0  0  0  0  0  0  0
  157.9107  133.1015  189.5601 C   0  0  0  0  0  0  0  0  0  0  0  0
  158.4335  132.5723  188.2514 C   0  0  0  0  0  0  0  0  0  0  0  0
  159.8187  133.1902  188.0592 C   0  0  0  0  0  0  0  0  0  0  0  0
  159.5678  134.6433  187.6742 C   0  0  0  0  0  0  0  0  0  0  0  0
  158.2673  135.1634  188.1843 C   0  0  0  0  0  0  0  0  0  0  0  0
  157.8692  134.6215  189.5376 C   0  0  0  0  0  0  0  0  0  0  0  0
  159.4216  133.3193  190.8309 H   0  0  0  0  0  0  0  0  0  0  0  0
  153.3186  135.4754  192.5276 C   0  0  0  0  0  0  0  0  0  0  0  0
  152.5166  136.5460  192.1917 C   0  0  0  0  0  0  0  0  0  0  0  0
  151.2473  136.7217  192.7500 C   0  0  0  0  0  0  0  0  0  0  0  0
  150.7583  135.8122  193.6665 C   0  0  0  0  0  0  0  0  0  0  0  0
  149.5310  135.9427  194.2353 F   0  0  0  0  0  0  0  0  0  0  0  0
  151.5642  134.7429  193.9992 C   0  0  0  0  0  0  0  0  0  0  0  0
  152.8279  134.5700  193.4419 C   0  0  0  0  0  0  0  0  0  0  0  0
  7  8  1  0  0  0
  8  9  1  0  0  0
  9 10  1  0  0  0
 10 11  1  0  0  0
 11 12  1  0  0  0
 12 13  1  0  0  0
 13  1  1  0  0  0
  1  2  1  0  0  0
  2  3  1  0  0  0
  3  4  1  0  0  0
  4  5  1  0  0  0
  5  6  1  0  0  0
  4 15  1  0  0  0
 15 16  2  0  0  0
 16 17  1  0  0  0
 17 18  2  0  0  0
 18 19  1  0  0  0
 18 20  1  0  0  0
 20 21  2  0  0  0
 13  8  1  0  0  0
  6  1  1  0  0  0
 21 15  1  0  0  0
  7 14  1  0  0  0
M  END
> <minimizedAffinity>
-5.60883

> <CNNscore>
0.3630164862

> <CNNaffinity>
4.4007863998

> <CNN_VS>
1.5975580215

> <CNNaffinity_variance>
0.0265354924

$$$$
[H]O[C@]1([H])C([H])([H])C([H])([H])C([H])([H])C([H])([H])[C@@]1([H])N1C([H])([H])C([H])([H])C([H])(c2c([H])c([H])c(F)c([H])c2[H])C([H])([H])C1([H])[H]


 21 23  0  0  0  0  0  0  0  0999 V2000
  153.7307  136.2355  188.1490 N   0  0  0  0  0  0  0  0  0  0  0  0
  153.7763  137.1480  187.0863 C   0  0  0  0  0  0  0  0  0  0  0  0
  154.5092  136.7125  185.8493 C   0  0  0  0  0  0  0  0  0  0  0  0
  154.4205  135.2291  185.5890 C   0  0  0  0  0  0  0  0  0  0  0  0
  153.2928  134.6712  186.4338 C   0  0  0  0  0  0  0  0  0  0  0  0
  153.7231  134.8544  187.8766 C   0  0  0  0  0  0  0  0  0  0  0  0
  155.8870  135.2149  190.4606 O   0  0  0  0  0  0  0  0  0  0  0  0
  155.7247  136.1397  189.4295 C   0  0  0  0  0  0  0  0  0  0  0  0
  156.6834  137.2836  189.6256 C   0  0  0  0  0  0  0  0  0  0  0  0
  156.2719  137.9724  190.9272 C   0  0  0  0  0  0  0  0  0  0  0  0
  155.0020  138.7469  190.5954 C   0  0  0  0  0  0  0  0  0  0  0  0
  154.2441  138.1592  189.4543 C   0  0  0  0  0  0  0  0  0  0  0  0
  154.2929  136.6504  189.3874 C   0  0  0  0  0  0  0  0  0  0  0  0
  155.2351  135.3824  191.1993 H   0  0  0  0  0  0  0  0  0  0  0  0
  154.2336  134.9197  184.1549 C   0  0  0  0  0  0  0  0  0  0  0  0
  155.0065  133.9444  183.5602 C   0  0  0  0  0  0  0  0  0  0  0  0
  154.8686  133.6147  182.2090 C   0  0  0  0  0  0  0  0  0  0  0  0
  153.9394  134.2687  181.4245 C   0  0  0  0  0  0  0  0  0  0  0  0
  153.7707  133.9819  180.1068 F   0  0  0  0  0  0  0  0  0  0  0  0
  153.1684  135.2433  182.0240 C   0  0  0  0  0  0  0  0  0  0  0  0
  153.3078  135.5700  183.3698 C   0  0  0  0  0  0  0  0  0  0  0  0
  7  8  1  0  0  0
  8  9  1  0  0  0
  9 10  1  0  0  0
 10 11  1  0  0  0
 11 12  1  0  0  0
 12 13  1  0  0  0
 13  1  1  0  0  0
  1  2  1  0  0  0
  2  3  1  0  0  0
  3  4  1  0  0  0
  4  5  1  0  0  0
  5  6  1  0  0  0
  4 15  1  0  0  0
 15 16  2  0  0  0
 16 17  1  0  0  0
 17 18  2  0  0  0
 18 19  1  0  0  0
 18 20  1  0  0  0
 20 21  2  0  0  0
 13  8  1  0  0  0
  6  1  1  0  0  0
 21 15  1  0  0  0
  7 14  1  0  0  0
M  END
> <minimizedAffinity>
-5.02463

> <CNNscore>
0.3601602912

> <CNNaffinity>
4.3086862564

> <CNN_VS>
1.5518176556

> <CNNaffinity_variance>
0.0317245498

$$$$
[H]OC(=O)[C@@]([H])(N([H])C(=O)[C@@]([H])(N([H])C(=O)c1c([H])c(OC([H])([H])[H])c(OC([H])([H])[H])c(OC([H])([H])[H])c1[H])C([H])([H])c1c([H])n([H])c2c([H])c([H])c([H])c([H])c12)C([H])([H])C(C([H])([H])[H])(C([H])([H])[H])C([H])([H])[H]


 42 44  0  0  0  0  0  0  0  0999 V2000
  153.7921  138.2133  184.6263 C   0  0  0  0  0  0  0  0  0  0  0  0
  155.0312  140.2928  183.8772 C   0  0  0  0  0  0  0  0  0  0  0  0
  153.9565  140.8268  183.5069 O   0  0  0  0  0  0  0  0  0  0  0  0
  154.9971  138.9963  184.4365 N   0  0  0  0  0  0  0  0  0  0  0  0
  155.9104  138.5443  184.7467 H   0  0  0  0  0  0  0  0  0  0  0  0
  158.5257  141.6613  184.3869 C   0  0  0  0  0  0  0  0  0  0  0  0
  157.3555  140.9358  184.5657 C   0  0  0  0  0  0  0  0  0  0  0  0
  156.2647  141.0438  183.7096 C   0  0  0  0  0  0  0  0  0  0  0  0
  156.4079  141.9299  182.6478 C   0  0  0  0  0  0  0  0  0  0  0  0
  157.5510  142.6694  182.4334 C   0  0  0  0  0  0  0  0  0  0  0  0
  158.6034  142.5231  183.3146 C   0  0  0  0  0  0  0  0  0  0  0  0
  159.4877  142.1476  186.5351 C   0  0  0  0  0  0  0  0  0  0  0  0
  159.6047  141.5446  185.2457 O   0  0  0  0  0  0  0  0  0  0  0  0
  157.6937  143.5530  181.3747 O   0  0  0  0  0  0  0  0  0  0  0  0
  158.1877  143.0210  180.1601 C   0  0  0  0  0  0  0  0  0  0  0  0
  159.7451  143.2434  183.1250 O   0  0  0  0  0  0  0  0  0  0  0  0
  159.9598  144.5594  183.5872 C   0  0  0  0  0  0  0  0  0  0  0  0
  153.8848  137.4350  185.8930 C   0  0  0  0  0  0  0  0  0  0  0  0
  154.4826  136.3519  185.8803 O   0  0  0  0  0  0  0  0  0  0  0  0
  153.2968  137.9531  187.0395 N   0  0  0  0  0  0  0  0  0  0  0  0
  152.7802  138.8231  187.1425 H   0  0  0  0  0  0  0  0  0  0  0  0
  153.4207  137.1306  188.3286 C   0  0  0  0  0  0  0  0  0  0  0  0
  152.0754  136.5668  188.4815 C   0  0  0  0  0  0  0  0  0  0  0  0
  151.0580  136.4570  187.6138 O   0  0  0  0  0  0  0  0  0  0  0  0
  151.7887  136.0692  189.6715 O   0  0  0  0  0  0  0  0  0  0  0  0
  150.6164  135.5487  187.4237 H   0  0  0  0  0  0  0  0  0  0  0  0
  153.9125  138.0661  189.3121 C   0  0  0  0  0  0  0  0  0  0  0  0
  155.0694  137.7537  190.1465 C   0  0  0  0  0  0  0  0  0  0  0  0
  155.0977  138.9013  191.2267 C   0  0  0  0  0  0  0  0  0  0  0  0
  156.3270  137.9471  189.2775 C   0  0  0  0  0  0  0  0  0  0  0  0
  155.2054  136.4782  190.8610 C   0  0  0  0  0  0  0  0  0  0  0  0
  153.4691  137.3489  183.4531 C   0  0  0  0  0  0  0  0  0  0  0  0
  152.0974  137.6757  182.9765 C   0  0  0  0  0  0  0  0  0  0  0  0
  150.9145  137.2901  183.5920 C   0  0  0  0  0  0  0  0  0  0  0  0
  149.9073  137.7742  182.8630 N   0  0  0  0  0  0  0  0  0  0  0  0
  150.3665  138.4630  181.7915 C   0  0  0  0  0  0  0  0  0  0  0  0
  149.7741  139.1431  180.7552 C   0  0  0  0  0  0  0  0  0  0  0  0
  150.5673  139.7575  179.7956 C   0  0  0  0  0  0  0  0  0  0  0  0
  151.9361  139.6936  179.8700 C   0  0  0  0  0  0  0  0  0  0  0  0
  152.5394  139.0119  180.9089 C   0  0  0  0  0  0  0  0  0  0  0  0
  151.7328  138.4019  181.8617 C   0  0  0  0  0  0  0  0  0  0  0  0
  148.9133  137.6457  183.0781 H   0  0  0  0  0  0  0  0  0  0  0  0
 12 13  1  0  0  0
 13  6  1  0  0  0
  6  7  2  0  0  0
  7  8  1  0  0  0
  8  9  2  0  0  0
  9 10  1  0  0  0
 10 14  1  0  0  0
 14 15  1  0  0  0
 10 11  2  0  0  0
 11 16  1  0  0  0
 16 17  1  0  0  0
  8  2  1  0  0  0
  2  3  2  0  0  0
  2  4  1  0  0  0
  4  1  1  0  0  0
  1 32  1  0  0  0
 32 33  1  0  0  0
 33 34  2  0  0  0
 34 35  1  0  0  0
 35 36  1  0  0  0
 36 37  2  0  0  0
 37 38  1  0  0  0
 38 39  2  0  0  0
 39 40  1  0  0  0
 40 41  2  0  0  0
  1 18  1  0  0  0
 18 19  2  0  0  0
 18 20  1  0  0  0
 20 22  1  0  0  0
 22 27  1  0  0  0
 27 28  1  0  0  0
 28 29  1  0  0  0
 28 30  1  0  0  0
 28 31  1  0  0  0
 22 23  1  0  0  0
 23 24  1  0  0  0
 23 25  2  0  0  0
 11  6  1  0  0  0
 41 33  1  0  0  0
 41 36  1  0  0  0
  4  5  1  0  0  0
 35 42  1  0  0  0
 20 21  1  0  0  0
 24 26  1  0  0  0
M  END
> <minimizedAffinity>
-7.99004

> <CNNscore>
0.5247589946

> <CNNaffinity>
6.5190863609

> <CNN_VS>
3.4209492207

> <CNNaffinity_variance>
0.1248184219

$$$$
[H]OC(=O)[C@@]([H])(N([H])C(=O)[C@@]([H])(N([H])C(=O)c1c([H])c(OC([H])([H])[H])c(OC([H])([H])[H])c(OC([H])([H])[H])c1[H])C([H])([H])c1c([H])n([H])c2c([H])c([H])c([H])c([H])c12)C([H])([H])C(C([H])([H])[H])(C([H])([H])[H])C([H])([H])[H]


 42 44  0  0  0  0  0  0  0  0999 V2000
  153.9398  138.3205  184.6237 C   0  0  0  0  0  0  0  0  0  0  0  0
  155.1483  140.4184  183.8755 C   0  0  0  0  0  0  0  0  0  0  0  0
  154.0617  140.9516  183.5407 O   0  0  0  0  0  0  0  0  0  0  0  0
  155.1353  139.1133  184.4156 N   0  0  0  0  0  0  0  0  0  0  0  0
  156.0587  138.6619  184.6957 H   0  0  0  0  0  0  0  0  0  0  0  0
  157.7464  142.7997  182.4888 C   0  0  0  0  0  0  0  0  0  0  0  0
  156.5688  142.0818  182.6487 C   0  0  0  0  0  0  0  0  0  0  0  0
  156.3731  141.1789  183.6884 C   0  0  0  0  0  0  0  0  0  0  0  0
  157.4342  141.0290  184.5743 C   0  0  0  0  0  0  0  0  0  0  0  0
  158.6199  141.7211  184.4524 C   0  0  0  0  0  0  0  0  0  0  0  0
  158.7602  142.6048  183.4014 C   0  0  0  0  0  0  0  0  0  0  0  0
  158.2772  143.1606  180.1726 C   0  0  0  0  0  0  0  0  0  0  0  0
  157.9288  143.6959  181.4501 O   0  0  0  0  0  0  0  0  0  0  0  0
  159.6779  141.5717  185.3357 O   0  0  0  0  0  0  0  0  0  0  0  0
  159.5247  142.1460  186.6199 C   0  0  0  0  0  0  0  0  0  0  0  0
  159.9232  143.3014  183.2583 O   0  0  0  0  0  0  0  0  0  0  0  0
  160.1729  144.5818  183.7967 C   0  0  0  0  0  0  0  0  0  0  0  0
  154.0513  137.5556  185.8970 C   0  0  0  0  0  0  0  0  0  0  0  0
  154.6628  136.4801  185.8903 O   0  0  0  0  0  0  0  0  0  0  0  0
  153.4647  138.0770  187.0427 N   0  0  0  0  0  0  0  0  0  0  0  0
  152.9377  138.9413  187.1413 H   0  0  0  0  0  0  0  0  0  0  0  0
  153.6082  137.2685  188.3387 C   0  0  0  0  0  0  0  0  0  0  0  0
  152.2752  136.6781  188.4992 C   0  0  0  0  0  0  0  0  0  0  0  0
  151.2966  136.4475  187.6108 O   0  0  0  0  0  0  0  0  0  0  0  0
  151.9565  136.2935  189.7225 O   0  0  0  0  0  0  0  0  0  0  0  0
  150.8900  135.5105  187.4982 H   0  0  0  0  0  0  0  0  0  0  0  0
  154.0823  138.2225  189.3130 C   0  0  0  0  0  0  0  0  0  0  0  0
  155.1461  137.8832  190.2540 C   0  0  0  0  0  0  0  0  0  0  0  0
  155.0954  139.0281  191.3360 C   0  0  0  0  0  0  0  0  0  0  0  0
  156.4856  138.0499  189.5109 C   0  0  0  0  0  0  0  0  0  0  0  0
  155.1844  136.6038  190.9735 C   0  0  0  0  0  0  0  0  0  0  0  0
  153.6149  137.4417  183.4619 C   0  0  0  0  0  0  0  0  0  0  0  0
  152.2267  137.7327  183.0105 C   0  0  0  0  0  0  0  0  0  0  0  0
  151.0657  137.3083  183.6420 C   0  0  0  0  0  0  0  0  0  0  0  0
  150.0331  137.7689  182.9336 N   0  0  0  0  0  0  0  0  0  0  0  0
  150.4546  138.4792  181.8607 C   0  0  0  0  0  0  0  0  0  0  0  0
  149.8259  139.1503  180.8399 C   0  0  0  0  0  0  0  0  0  0  0  0
  150.5851  139.7948  179.8728 C   0  0  0  0  0  0  0  0  0  0  0  0
  151.9563  139.7698  179.9243 C   0  0  0  0  0  0  0  0  0  0  0  0
  152.5959  139.0975  180.9473 C   0  0  0  0  0  0  0  0  0  0  0  0
  151.8230  138.4569  181.9080 C   0  0  0  0  0  0  0  0  0  0  0  0
  149.0468  137.6102  183.1638 H   0  0  0  0  0  0  0  0  0  0  0  0
 12 13  1  0  0  0
 13  6  1  0  0  0
  6  7  2  0  0  0
  7  8  1  0  0  0
  8  9  2  0  0  0
  9 10  1  0  0  0
 10 14  1  0  0  0
 14 15  1  0  0  0
 10 11  2  0  0  0
 11 16  1  0  0  0
 16 17  1  0  0  0
  8  2  1  0  0  0
  2  3  2  0  0  0
  2  4  1  0  0  0
  4  1  1  0  0  0
  1 32  1  0  0  0
 32 33  1  0  0  0
 33 34  2  0  0  0
 34 35  1  0  0  0
 35 36  1  0  0  0
 36 37  2  0  0  0
 37 38  1  0  0  0
 38 39  2  0  0  0
 39 40  1  0  0  0
 40 41  2  0  0  0
  1 18  1  0  0  0
 18 19  2  0  0  0
 18 20  1  0  0  0
 20 22  1  0  0  0
 22 27  1  0  0  0
 27 28  1  0  0  0
 28 29  1  0  0  0
 28 30  1  0  0  0
 28 31  1  0  0  0
 22 23  1  0  0  0
 23 24  1  0  0  0
 23 25  2  0  0  0
 11  6  1  0  0  0
 41 33  1  0  0  0
 41 36  1  0  0  0
  4  5  1  0  0  0
 35 42  1  0  0  0
 20 21  1  0  0  0
 24 26  1  0  0  0
M  END
> <minimizedAffinity>
-8.06443

> <CNNscore>
0.4671617150

> <CNNaffinity>
6.4981055260

> <CNN_VS>
3.0356662273

> <CNNaffinity_variance>
0.1317005605

$$$$
[H]OC(=O)[C@@]([H])(N([H])C(=O)[C@@]([H])(N([H])C(=O)c1c([H])c(OC([H])([H])[H])c(OC([H])([H])[H])c(OC([H])([H])[H])c1[H])C([H])([H])c1c([H])n([H])c2c([H])c([H])c([H])c([H])c12)C([H])([H])C(C([H])([H])[H])(C([H])([H])[H])C([H])([H])[H]


 42 44  0  0  0  0  0  0  0  0999 V2000
  153.0394  138.5941  183.1901 C   0  0  0  0  0  0  0  0  0  0  0  0
  154.4178  140.6864  182.8113 C   0  0  0  0  0  0  0  0  0  0  0  0
  153.3906  141.3307  182.4845 O   0  0  0  0  0  0  0  0  0  0  0  0
  154.2907  139.3254  183.1671 N   0  0  0  0  0  0  0  0  0  0  0  0
  155.1640  138.7802  183.4407 H   0  0  0  0  0  0  0  0  0  0  0  0
  157.7280  142.1699  183.9002 C   0  0  0  0  0  0  0  0  0  0  0  0
  156.5103  141.5032  183.9265 C   0  0  0  0  0  0  0  0  0  0  0  0
  155.6949  141.3810  182.8065 C   0  0  0  0  0  0  0  0  0  0  0  0
  156.1687  141.9701  181.6396 C   0  0  0  0  0  0  0  0  0  0  0  0
  157.3706  142.6411  181.5695 C   0  0  0  0  0  0  0  0  0  0  0  0
  158.1401  142.7322  182.7117 C   0  0  0  0  0  0  0  0  0  0  0  0
  159.3579  141.1687  185.3556 C   0  0  0  0  0  0  0  0  0  0  0  0
  158.5308  142.2842  185.0217 O   0  0  0  0  0  0  0  0  0  0  0  0
  157.8429  143.2285  180.4060 O   0  0  0  0  0  0  0  0  0  0  0  0
  158.3575  142.3598  179.4145 C   0  0  0  0  0  0  0  0  0  0  0  0
  159.3329  143.3909  182.6690 O   0  0  0  0  0  0  0  0  0  0  0  0
  159.5047  144.7728  182.8978 C   0  0  0  0  0  0  0  0  0  0  0  0
  153.0211  137.6523  184.3441 C   0  0  0  0  0  0  0  0  0  0  0  0
  153.0862  136.4377  184.1184 O   0  0  0  0  0  0  0  0  0  0  0  0
  152.9309  138.1721  185.6287 N   0  0  0  0  0  0  0  0  0  0  0  0
  152.8633  139.1475  185.9086 H   0  0  0  0  0  0  0  0  0  0  0  0
  152.9255  137.1744  186.7942 C   0  0  0  0  0  0  0  0  0  0  0  0
  151.6004  136.5557  186.6824 C   0  0  0  0  0  0  0  0  0  0  0  0
  151.2330  135.2908  186.4280 O   0  0  0  0  0  0  0  0  0  0  0  0
  150.5689  137.3616  186.8627 O   0  0  0  0  0  0  0  0  0  0  0  0
  150.6044  134.7815  187.0617 H   0  0  0  0  0  0  0  0  0  0  0  0
  153.2398  137.9703  187.9570 C   0  0  0  0  0  0  0  0  0  0  0  0
  153.7947  137.3655  189.1647 C   0  0  0  0  0  0  0  0  0  0  0  0
  154.6790  138.5027  189.8045 C   0  0  0  0  0  0  0  0  0  0  0  0
  154.7701  136.2598  188.7170 C   0  0  0  0  0  0  0  0  0  0  0  0
  152.9490  136.8172  190.2325 C   0  0  0  0  0  0  0  0  0  0  0  0
  152.7409  137.9110  181.8971 C   0  0  0  0  0  0  0  0  0  0  0  0
  151.6115  138.6142  181.2296 C   0  0  0  0  0  0  0  0  0  0  0  0
  151.6997  139.3571  180.0603 C   0  0  0  0  0  0  0  0  0  0  0  0
  150.4798  139.8248  179.7899 N   0  0  0  0  0  0  0  0  0  0  0  0
  149.5855  139.4275  180.7256 C   0  0  0  0  0  0  0  0  0  0  0  0
  148.2390  139.6216  180.9179 C   0  0  0  0  0  0  0  0  0  0  0  0
  147.6139  139.0506  182.0181 C   0  0  0  0  0  0  0  0  0  0  0  0
  148.3248  138.2945  182.9160 C   0  0  0  0  0  0  0  0  0  0  0  0
  149.6788  138.0945  182.7298 C   0  0  0  0  0  0  0  0  0  0  0  0
  150.2909  138.6722  181.6242 C   0  0  0  0  0  0  0  0  0  0  0  0
  150.2419  140.4095  178.9822 H   0  0  0  0  0  0  0  0  0  0  0  0
 12 13  1  0  0  0
 13  6  1  0  0  0
  6  7  2  0  0  0
  7  8  1  0  0  0
  8  9  2  0  0  0
  9 10  1  0  0  0
 10 14  1  0  0  0
 14 15  1  0  0  0
 10 11  2  0  0  0
 11 16  1  0  0  0
 16 17  1  0  0  0
  8  2  1  0  0  0
  2  3  2  0  0  0
  2  4  1  0  0  0
  4  1  1  0  0  0
  1 32  1  0  0  0
 32 33  1  0  0  0
 33 34  2  0  0  0
 34 35  1  0  0  0
 35 36  1  0  0  0
 36 37  2  0  0  0
 37 38  1  0  0  0
 38 39  2  0  0  0
 39 40  1  0  0  0
 40 41  2  0  0  0
  1 18  1  0  0  0
 18 19  2  0  0  0
 18 20  1  0  0  0
 20 22  1  0  0  0
 22 27  1  0  0  0
 27 28  1  0  0  0
 28 29  1  0  0  0
 28 30  1  0  0  0
 28 31  1  0  0  0
 22 23  1  0  0  0
 23 24  1  0  0  0
 23 25  2  0  0  0
 11  6  1  0  0  0
 41 33  1  0  0  0
 41 36  1  0  0  0
  4  5  1  0  0  0
 35 42  1  0  0  0
 20 21  1  0  0  0
 24 26  1  0  0  0
M  END
> <minimizedAffinity>
-7.14917

> <CNNscore>
0.4249694645

> <CNNaffinity>
6.4562187195

> <CNN_VS>
2.7436957359

> <CNNaffinity_variance>
0.1149289384

$$$$
[H]OC(=O)[C@@]([H])(N([H])C(=O)[C@@]([H])(N([H])C(=O)c1c([H])c(OC([H])([H])[H])c(OC([H])([H])[H])c(OC([H])([H])[H])c1[H])C([H])([H])c1c([H])n([H])c2c([H])c([H])c([H])c([H])c12)C([H])([H])C(C([H])([H])[H])(C([H])([H])[H])C([H])([H])[H]


 42 44  0  0  0  0  0  0  0  0999 V2000
  153.3128  138.1882  183.9791 C   0  0  0  0  0  0  0  0  0  0  0  0
  154.6853  140.2633  183.4980 C   0  0  0  0  0  0  0  0  0  0  0  0
  153.6417  140.9431  183.3369 O   0  0  0  0  0  0  0  0  0  0  0  0
  154.5694  138.8920  183.8158 N   0  0  0  0  0  0  0  0  0  0  0  0
  155.4561  138.3167  183.9487 H   0  0  0  0  0  0  0  0  0  0  0  0
  157.5144  142.3964  182.1602 C   0  0  0  0  0  0  0  0  0  0  0  0
  156.2823  141.7685  182.2841 C   0  0  0  0  0  0  0  0  0  0  0  0
  155.9689  140.9291  183.3478 C   0  0  0  0  0  0  0  0  0  0  0  0
  156.9687  140.7475  184.2969 C   0  0  0  0  0  0  0  0  0  0  0  0
  158.2050  141.3508  184.2125 C   0  0  0  0  0  0  0  0  0  0  0  0
  158.4625  142.1742  183.1351 C   0  0  0  0  0  0  0  0  0  0  0  0
  158.3004  142.6211  179.9000 C   0  0  0  0  0  0  0  0  0  0  0  0
  157.8141  143.2300  181.0969 O   0  0  0  0  0  0  0  0  0  0  0  0
  159.2019  141.1697  185.1587 O   0  0  0  0  0  0  0  0  0  0  0  0
  159.0393  141.8390  186.3948 C   0  0  0  0  0  0  0  0  0  0  0  0
  159.6777  142.7826  183.0281 O   0  0  0  0  0  0  0  0  0  0  0  0
  159.9997  144.0498  183.5595 C   0  0  0  0  0  0  0  0  0  0  0  0
  153.3434  137.3742  185.2263 C   0  0  0  0  0  0  0  0  0  0  0  0
  154.0845  136.3846  185.2698 O   0  0  0  0  0  0  0  0  0  0  0  0
  152.5390  137.7555  186.2923 N   0  0  0  0  0  0  0  0  0  0  0  0
  151.8954  138.5413  186.3443 H   0  0  0  0  0  0  0  0  0  0  0  0
  152.6034  136.9011  187.5649 C   0  0  0  0  0  0  0  0  0  0  0  0
  151.2316  136.3959  187.6834 C   0  0  0  0  0  0  0  0  0  0  0  0
  150.6084  135.7534  188.6828 O   0  0  0  0  0  0  0  0  0  0  0  0
  150.4486  136.5981  186.6385 O   0  0  0  0  0  0  0  0  0  0  0  0
  149.7267  136.1072  189.0748 H   0  0  0  0  0  0  0  0  0  0  0  0
  153.1199  137.7922  188.5766 C   0  0  0  0  0  0  0  0  0  0  0  0
  154.1697  137.3683  189.4988 C   0  0  0  0  0  0  0  0  0  0  0  0
  154.8379  136.1279  188.7922 C   0  0  0  0  0  0  0  0  0  0  0  0
  153.4769  136.8241  190.7630 C   0  0  0  0  0  0  0  0  0  0  0  0
  155.2527  138.2628  189.9264 C   0  0  0  0  0  0  0  0  0  0  0  0
  152.9405  137.3772  182.7828 C   0  0  0  0  0  0  0  0  0  0  0  0
  151.9734  138.1512  181.9574 C   0  0  0  0  0  0  0  0  0  0  0  0
  152.2804  138.8585  180.8031 C   0  0  0  0  0  0  0  0  0  0  0  0
  151.1506  139.4137  180.3611 N   0  0  0  0  0  0  0  0  0  0  0  0
  150.1075  139.1084  181.1686 C   0  0  0  0  0  0  0  0  0  0  0  0
  148.7674  139.4111  181.1704 C   0  0  0  0  0  0  0  0  0  0  0  0
  147.9535  138.9154  182.1800 C   0  0  0  0  0  0  0  0  0  0  0  0
  148.4716  138.1265  183.1762 C   0  0  0  0  0  0  0  0  0  0  0  0
  149.8179  137.8175  183.1815 C   0  0  0  0  0  0  0  0  0  0  0  0
  150.6201  138.3208  182.1647 C   0  0  0  0  0  0  0  0  0  0  0  0
  151.0733  139.9970  179.5216 H   0  0  0  0  0  0  0  0  0  0  0  0
 12 13  1  0  0  0
 13  6  1  0  0  0
  6  7  2  0  0  0
  7  8  1  0  0  0
  8  9  2  0  0  0
  9 10  1  0  0  0
 10 14  1  0  0  0
 14 15  1  0  0  0
 10 11  2  0  0  0
 11 16  1  0  0  0
 16 17  1  0  0  0
  8  2  1  0  0  0
  2  3  2  0  0  0
  2  4  1  0  0  0
  4  1  1  0  0  0
  1 32  1  0  0  0
 32 33  1  0  0  0
 33 34  2  0  0  0
 34 35  1  0  0  0
 35 36  1  0  0  0
 36 37  2  0  0  0
 37 38  1  0  0  0
 38 39  2  0  0  0
 39 40  1  0  0  0
 40 41  2  0  0  0
  1 18  1  0  0  0
 18 19  2  0  0  0
 18 20  1  0  0  0
 20 22  1  0  0  0
 22 27  1  0  0  0
 27 28  1  0  0  0
 28 29  1  0  0  0
 28 30  1  0  0  0
 28 31  1  0  0  0
 22 23  1  0  0  0
 23 24  1  0  0  0
 23 25  2  0  0  0
 11  6  1  0  0  0
 41 33  1  0  0  0
 41 36  1  0  0  0
  4  5  1  0  0  0
 35 42  1  0  0  0
 20 21  1  0  0  0
 24 26  1  0  0  0
M  END
> <minimizedAffinity>
-6.99919

> <CNNscore>
0.3884597421

> <CNNaffinity>
6.4257278442

> <CNN_VS>
2.4961366653

> <CNNaffinity_variance>
0.0984831080

$$$$
[H]OC(=O)[C@@]([H])(N([H])C(=O)[C@@]([H])(N([H])C(=O)c1c([H])c(OC([H])([H])[H])c(OC([H])([H])[H])c(OC([H])([H])[H])c1[H])C([H])([H])c1c([H])n([H])c2c([H])c([H])c([H])c([H])c12)C([H])([H])C(C([H])([H])[H])(C([H])([H])[H])C([H])([H])[H]


 42 44  0  0  0  0  0  0  0  0999 V2000
  155.7151  136.8423  188.3778 C   0  0  0  0  0  0  0  0  0  0  0  0
  155.1986  137.8531  186.1123 C   0  0  0  0  0  0  0  0  0  0  0  0
  154.4206  136.9051  185.8420 O   0  0  0  0  0  0  0  0  0  0  0  0
  155.8637  137.8619  187.3584 N   0  0  0  0  0  0  0  0  0  0  0  0
  156.5257  138.6655  187.5840 H   0  0  0  0  0  0  0  0  0  0  0  0
  156.7496  140.4862  183.8751 C   0  0  0  0  0  0  0  0  0  0  0  0
  156.6022  139.4872  184.8279 C   0  0  0  0  0  0  0  0  0  0  0  0
  155.3752  138.9011  185.1203 C   0  0  0  0  0  0  0  0  0  0  0  0
  154.2854  139.3742  184.3980 C   0  0  0  0  0  0  0  0  0  0  0  0
  154.3871  140.3639  183.4441 C   0  0  0  0  0  0  0  0  0  0  0  0
  155.6295  140.9108  183.1942 C   0  0  0  0  0  0  0  0  0  0  0  0
  158.8888  140.3067  182.7941 C   0  0  0  0  0  0  0  0  0  0  0  0
  157.9764  141.0613  183.5928 O   0  0  0  0  0  0  0  0  0  0  0  0
  153.3005  140.8356  182.7239 O   0  0  0  0  0  0  0  0  0  0  0  0
  152.7851  139.9875  181.7152 C   0  0  0  0  0  0  0  0  0  0  0  0
  155.7568  141.8915  182.2558 O   0  0  0  0  0  0  0  0  0  0  0  0
  155.6677  143.2762  182.5128 C   0  0  0  0  0  0  0  0  0  0  0  0
  154.3465  136.9026  188.9628 C   0  0  0  0  0  0  0  0  0  0  0  0
  153.8681  138.0100  189.2375 O   0  0  0  0  0  0  0  0  0  0  0  0
  153.6596  135.7151  189.1786 N   0  0  0  0  0  0  0  0  0  0  0  0
  153.9736  134.7653  188.9951 H   0  0  0  0  0  0  0  0  0  0  0  0
  152.2485  135.8148  189.7722 C   0  0  0  0  0  0  0  0  0  0  0  0
  151.4245  136.1119  188.5958 C   0  0  0  0  0  0  0  0  0  0  0  0
  151.6979  136.7936  187.4731 O   0  0  0  0  0  0  0  0  0  0  0  0
  150.1930  135.6335  188.6166 O   0  0  0  0  0  0  0  0  0  0  0  0
  151.5606  136.3704  186.5468 H   0  0  0  0  0  0  0  0  0  0  0  0
  152.3635  136.7981  190.8230 C   0  0  0  0  0  0  0  0  0  0  0  0
  151.9666  136.4943  192.1951 C   0  0  0  0  0  0  0  0  0  0  0  0
  152.9620  135.3606  192.6516 C   0  0  0  0  0  0  0  0  0  0  0  0
  150.5704  135.8452  192.1353 C   0  0  0  0  0  0  0  0  0  0  0  0
  151.9475  137.5110  193.2543 C   0  0  0  0  0  0  0  0  0  0  0  0
  156.7801  136.9036  189.4217 C   0  0  0  0  0  0  0  0  0  0  0  0
  157.1286  135.5174  189.8372 C   0  0  0  0  0  0  0  0  0  0  0  0
  156.5799  134.8343  190.9139 C   0  0  0  0  0  0  0  0  0  0  0  0
  157.1498  133.6286  190.9556 N   0  0  0  0  0  0  0  0  0  0  0  0
  158.0518  133.4795  189.9569 C   0  0  0  0  0  0  0  0  0  0  0  0
  158.8894  132.4669  189.5560 C   0  0  0  0  0  0  0  0  0  0  0  0
  159.7094  132.6519  188.4511 C   0  0  0  0  0  0  0  0  0  0  0  0
  159.6933  133.8342  187.7546 C   0  0  0  0  0  0  0  0  0  0  0  0
  158.8539  134.8571  188.1512 C   0  0  0  0  0  0  0  0  0  0  0  0
  158.0391  134.6575  189.2588 C   0  0  0  0  0  0  0  0  0  0  0  0
  156.9389  132.9042  191.6497 H   0  0  0  0  0  0  0  0  0  0  0  0
 12 13  1  0  0  0
 13  6  1  0  0  0
  6  7  2  0  0  0
  7  8  1  0  0  0
  8  9  2  0  0  0
  9 10  1  0  0  0
 10 14  1  0  0  0
 14 15  1  0  0  0
 10 11  2  0  0  0
 11 16  1  0  0  0
 16 17  1  0  0  0
  8  2  1  0  0  0
  2  3  2  0  0  0
  2  4  1  0  0  0
  4  1  1  0  0  0
  1 32  1  0  0  0
 32 33  1  0  0  0
 33 34  2  0  0  0
 34 35  1  0  0  0
 35 36  1  0  0  0
 36 37  2  0  0  0
 37 38  1  0  0  0
 38 39  2  0  0  0
 39 40  1  0  0  0
 40 41  2  0  0  0
  1 18  1  0  0  0
 18 19  2  0  0  0
 18 20  1  0  0  0
 20 22  1  0  0  0
 22 27  1  0  0  0
 27 28  1  0  0  0
 28 29  1  0  0  0
 28 30  1  0  0  0
 28 31  1  0  0  0
 22 23  1  0  0  0
 23 24  1  0  0  0
 23 25  2  0  0  0
 11  6  1  0  0  0
 41 33  1  0  0  0
 41 36  1  0  0  0
  4  5  1  0  0  0
 35 42  1  0  0  0
 20 21  1  0  0  0
 24 26  1  0  0  0
M  END
> <minimizedAffinity>
-7.24759

> <CNNscore>
0.2878223062

> <CNNaffinity>
5.7106781006

> <CNN_VS>
1.6436605453

> <CNNaffinity_variance>
0.2784368694

$$$$
[H]OC(=O)[C@@]([H])(N([H])C(=O)[C@@]([H])(N([H])C(=O)c1c([H])c(OC([H])([H])[H])c(OC([H])([H])[H])c(OC([H])([H])[H])c1[H])C([H])([H])c1c([H])n([H])c2c([H])c([H])c([H])c([H])c12)C([H])([H])C(C([H])([H])[H])(C([H])([H])[H])C([H])([H])[H]


 42 44  0  0  0  0  0  0  0  0999 V2000
  154.1581  137.9924  184.6615 C   0  0  0  0  0  0  0  0  0  0  0  0
  155.2184  140.2013  184.0154 C   0  0  0  0  0  0  0  0  0  0  0  0
  154.0874  140.7312  183.8845 O   0  0  0  0  0  0  0  0  0  0  0  0
  155.3009  138.8441  184.3977 N   0  0  0  0  0  0  0  0  0  0  0  0
  156.2614  138.3960  184.5049 H   0  0  0  0  0  0  0  0  0  0  0  0
  158.6121  141.8489  184.3501 C   0  0  0  0  0  0  0  0  0  0  0  0
  157.4984  141.0612  184.6087 C   0  0  0  0  0  0  0  0  0  0  0  0
  156.3936  141.0197  183.7649 C   0  0  0  0  0  0  0  0  0  0  0  0
  156.4620  141.8203  182.6302 C   0  0  0  0  0  0  0  0  0  0  0  0
  157.5474  142.6171  182.3356 C   0  0  0  0  0  0  0  0  0  0  0  0
  158.6169  142.6199  183.2082 C   0  0  0  0  0  0  0  0  0  0  0  0
  159.4609  142.1543  186.5780 C   0  0  0  0  0  0  0  0  0  0  0  0
  159.7058  141.8812  185.1976 O   0  0  0  0  0  0  0  0  0  0  0  0
  157.6156  143.4154  181.2043 O   0  0  0  0  0  0  0  0  0  0  0  0
  158.1073  142.8103  180.0234 C   0  0  0  0  0  0  0  0  0  0  0  0
  159.7025  143.3996  182.9398 O   0  0  0  0  0  0  0  0  0  0  0  0
  159.8821  144.7236  183.3941 C   0  0  0  0  0  0  0  0  0  0  0  0
  154.4258  137.1345  185.8495 C   0  0  0  0  0  0  0  0  0  0  0  0
  154.8071  137.6738  186.8956 O   0  0  0  0  0  0  0  0  0  0  0  0
  154.2386  135.7629  185.7385 N   0  0  0  0  0  0  0  0  0  0  0  0
  153.9399  135.2335  184.9231 H   0  0  0  0  0  0  0  0  0  0  0  0
  154.5130  134.9108  186.9844 C   0  0  0  0  0  0  0  0  0  0  0  0
  155.1305  133.7057  186.4207 C   0  0  0  0  0  0  0  0  0  0  0  0
  155.6624  133.4663  185.2125 O   0  0  0  0  0  0  0  0  0  0  0  0
  155.1899  132.6572  187.2226 O   0  0  0  0  0  0  0  0  0  0  0  0
  156.6211  133.1096  185.1143 H   0  0  0  0  0  0  0  0  0  0  0  0
  153.2335  134.8082  187.6451 C   0  0  0  0  0  0  0  0  0  0  0  0
  153.0509  135.2583  189.0222 C   0  0  0  0  0  0  0  0  0  0  0  0
  154.5117  135.3342  189.6091 C   0  0  0  0  0  0  0  0  0  0  0  0
  152.3374  134.1247  189.7840 C   0  0  0  0  0  0  0  0  0  0  0  0
  152.3796  136.5205  189.3572 C   0  0  0  0  0  0  0  0  0  0  0  0
  153.7391  137.1958  183.4709 C   0  0  0  0  0  0  0  0  0  0  0  0
  152.3308  137.5391  183.1324 C   0  0  0  0  0  0  0  0  0  0  0  0
  151.2047  137.0943  183.8114 C   0  0  0  0  0  0  0  0  0  0  0  0
  150.1381  137.6175  183.2042 N   0  0  0  0  0  0  0  0  0  0  0  0
  150.5035  138.3888  182.1531 C   0  0  0  0  0  0  0  0  0  0  0  0
  149.8239  139.1355  181.2213 C   0  0  0  0  0  0  0  0  0  0  0  0
  150.5318  139.8287  180.2489 C   0  0  0  0  0  0  0  0  0  0  0  0
  151.9026  139.7771  180.2073 C   0  0  0  0  0  0  0  0  0  0  0  0
  152.5933  139.0288  181.1405 C   0  0  0  0  0  0  0  0  0  0  0  0
  151.8714  138.3403  182.1077 C   0  0  0  0  0  0  0  0  0  0  0  0
  149.1659  137.4609  183.4889 H   0  0  0  0  0  0  0  0  0  0  0  0
 12 13  1  0  0  0
 13  6  1  0  0  0
  6  7  2  0  0  0
  7  8  1  0  0  0
  8  9  2  0  0  0
  9 10  1  0  0  0
 10 14  1  0  0  0
 14 15  1  0  0  0
 10 11  2  0  0  0
 11 16  1  0  0  0
 16 17  1  0  0  0
  8  2  1  0  0  0
  2  3  2  0  0  0
  2  4  1  0  0  0
  4  1  1  0  0  0
  1 32  1  0  0  0
 32 33  1  0  0  0
 33 34  2  0  0  0
 34 35  1  0  0  0
 35 36  1  0  0  0
 36 37  2  0  0  0
 37 38  1  0  0  0
 38 39  2  0  0  0
 39 40  1  0  0  0
 40 41  2  0  0  0
  1 18  1  0  0  0
 18 19  2  0  0  0
 18 20  1  0  0  0
 20 22  1  0  0  0
 22 27  1  0  0  0
 27 28  1  0  0  0
 28 29  1  0  0  0
 28 30  1  0  0  0
 28 31  1  0  0  0
 22 23  1  0  0  0
 23 24  1  0  0  0
 23 25  2  0  0  0
 11  6  1  0  0  0
 41 33  1  0  0  0
 41 36  1  0  0  0
  4  5  1  0  0  0
 35 42  1  0  0  0
 20 21  1  0  0  0
 24 26  1  0  0  0
M  END
> <minimizedAffinity>
-6.51817

> <CNNscore>
0.2725409865

> <CNNaffinity>
6.2488012314

> <CNN_VS>
1.7030544281

> <CNNaffinity_variance>
0.1959288418

$$$$
[H]OC(=O)[C@@]([H])(N([H])C(=O)[C@@]([H])(N([H])C(=O)c1c([H])c(OC([H])([H])[H])c(OC([H])([H])[H])c(OC([H])([H])[H])c1[H])C([H])([H])c1c([H])n([H])c2c([H])c([H])c([H])c([H])c12)C([H])([H])C(C([H])([H])[H])(C([H])([H])[H])C([H])([H])[H]


 42 44  0  0  0  0  0  0  0  0999 V2000
  153.7806  138.1604  185.6768 C   0  0  0  0  0  0  0  0  0  0  0  0
  156.0623  139.2046  185.3242 C   0  0  0  0  0  0  0  0  0  0  0  0
  156.5682  138.4438  186.1859 O   0  0  0  0  0  0  0  0  0  0  0  0
  154.6826  139.1001  185.0409 N   0  0  0  0  0  0  0  0  0  0  0  0
  154.2552  139.7488  184.3119 H   0  0  0  0  0  0  0  0  0  0  0  0
  157.5941  141.4933  182.7243 C   0  0  0  0  0  0  0  0  0  0  0  0
  156.7536  140.5772  183.3423 C   0  0  0  0  0  0  0  0  0  0  0  0
  156.9309  140.1609  184.6574 C   0  0  0  0  0  0  0  0  0  0  0  0
  158.0108  140.7179  185.3334 C   0  0  0  0  0  0  0  0  0  0  0  0
  158.8695  141.6297  184.7583 C   0  0  0  0  0  0  0  0  0  0  0  0
  158.6467  142.0077  183.4496 C   0  0  0  0  0  0  0  0  0  0  0  0
  158.1770  141.2456  180.4058 C   0  0  0  0  0  0  0  0  0  0  0  0
  157.4068  141.9001  181.4148 O   0  0  0  0  0  0  0  0  0  0  0  0
  159.9462  142.1850  185.4323 O   0  0  0  0  0  0  0  0  0  0  0  0
  159.7899  142.3968  186.8226 C   0  0  0  0  0  0  0  0  0  0  0  0
  159.4819  142.9079  182.8575 O   0  0  0  0  0  0  0  0  0  0  0  0
  159.2477  144.2969  182.7720 C   0  0  0  0  0  0  0  0  0  0  0  0
  152.8145  137.6256  184.6770 C   0  0  0  0  0  0  0  0  0  0  0  0
  151.6490  137.4141  185.0338 O   0  0  0  0  0  0  0  0  0  0  0  0
  153.2577  137.3838  183.3832 N   0  0  0  0  0  0  0  0  0  0  0  0
  154.1920  137.5166  183.0040 H   0  0  0  0  0  0  0  0  0  0  0  0
  152.2337  136.8436  182.3766 C   0  0  0  0  0  0  0  0  0  0  0  0
  152.6061  135.4292  182.2661 C   0  0  0  0  0  0  0  0  0  0  0  0
  153.5273  134.7032  182.9173 O   0  0  0  0  0  0  0  0  0  0  0  0
  151.9293  134.7206  181.3797 O   0  0  0  0  0  0  0  0  0  0  0  0
  153.2730  133.8363  183.4071 H   0  0  0  0  0  0  0  0  0  0  0  0
  152.3667  137.7031  181.2243 C   0  0  0  0  0  0  0  0  0  0  0  0
  151.7810  139.0406  181.2021 C   0  0  0  0  0  0  0  0  0  0  0  0
  150.3937  138.8756  181.9318 C   0  0  0  0  0  0  0  0  0  0  0  0
  151.4594  139.3757  179.7329 C   0  0  0  0  0  0  0  0  0  0  0  0
  152.4505  140.2050  181.7953 C   0  0  0  0  0  0  0  0  0  0  0  0
  153.0977  138.7296  186.8756 C   0  0  0  0  0  0  0  0  0  0  0  0
  153.1796  137.7460  187.9898 C   0  0  0  0  0  0  0  0  0  0  0  0
  152.3309  136.6635  188.1765 C   0  0  0  0  0  0  0  0  0  0  0  0
  152.7285  136.0287  189.2806 N   0  0  0  0  0  0  0  0  0  0  0  0
  153.8015  136.6396  189.8362 C   0  0  0  0  0  0  0  0  0  0  0  0
  154.5799  136.4046  190.9436 C   0  0  0  0  0  0  0  0  0  0  0  0
  155.6389  137.2551  191.2307 C   0  0  0  0  0  0  0  0  0  0  0  0
  155.9178  138.3276  190.4213 C   0  0  0  0  0  0  0  0  0  0  0  0
  155.1401  138.5706  189.3059 C   0  0  0  0  0  0  0  0  0  0  0  0
  154.0835  137.7111  189.0313 C   0  0  0  0  0  0  0  0  0  0  0  0
  152.2851  135.1883  189.6655 H   0  0  0  0  0  0  0  0  0  0  0  0
 12 13  1  0  0  0
 13  6  1  0  0  0
  6  7  2  0  0  0
  7  8  1  0  0  0
  8  9  2  0  0  0
  9 10  1  0  0  0
 10 14  1  0  0  0
 14 15  1  0  0  0
 10 11  2  0  0  0
 11 16  1  0  0  0
 16 17  1  0  0  0
  8  2  1  0  0  0
  2  3  2  0  0  0
  2  4  1  0  0  0
  4  1  1  0  0  0
  1 32  1  0  0  0
 32 33  1  0  0  0
 33 34  2  0  0  0
 34 35  1  0  0  0
 35 36  1  0  0  0
 36 37  2  0  0  0
 37 38  1  0  0  0
 38 39  2  0  0  0
 39 40  1  0  0  0
 40 41  2  0  0  0
  1 18  1  0  0  0
 18 19  2  0  0  0
 18 20  1  0  0  0
 20 22  1  0  0  0
 22 27  1  0  0  0
 27 28  1  0  0  0
 28 29  1  0  0  0
 28 30  1  0  0  0
 28 31  1  0  0  0
 22 23  1  0  0  0
 23 24  1  0  0  0
 23 25  2  0  0  0
 11  6  1  0  0  0
 41 33  1  0  0  0
 41 36  1  0  0  0
  4  5  1  0  0  0
 35 42  1  0  0  0
 20 21  1  0  0  0
 24 26  1  0  0  0
M  END
> <minimizedAffinity>
-7.80423

> <CNNscore>
0.2600080967

> <CNNaffinity>
6.2304596901

> <CNN_VS>
1.6199699640

> <CNNaffinity_variance>
0.1816023290

$$$$
[H]OC(=O)[C@@]([H])(N([H])C(=O)[C@@]([H])(N([H])C(=O)c1c([H])c(OC([H])([H])[H])c(OC([H])([H])[H])c(OC([H])([H])[H])c1[H])C([H])([H])c1c([H])n([H])c2c([H])c([H])c([H])c([H])c12)C([H])([H])C(C([H])([H])[H])(C([H])([H])[H])C([H])([H])[H]


 42 44  0  0  0  0  0  0  0  0999 V2000
  154.2853  138.0703  185.2080 C   0  0  0  0  0  0  0  0  0  0  0  0
  156.2940  139.5766  184.8654 C   0  0  0  0  0  0  0  0  0  0  0  0
  156.9897  138.8589  185.6257 O   0  0  0  0  0  0  0  0  0  0  0  0
  154.9465  139.2240  184.6311 N   0  0  0  0  0  0  0  0  0  0  0  0
  154.3575  139.8363  183.9884 H   0  0  0  0  0  0  0  0  0  0  0  0
  158.8595  142.1175  183.7227 C   0  0  0  0  0  0  0  0  0  0  0  0
  158.2837  140.9980  184.3083 C   0  0  0  0  0  0  0  0  0  0  0  0
  156.9174  140.7426  184.2609 C   0  0  0  0  0  0  0  0  0  0  0  0
  156.1443  141.6807  183.5860 C   0  0  0  0  0  0  0  0  0  0  0  0
  156.6746  142.8052  182.9910 C   0  0  0  0  0  0  0  0  0  0  0  0
  158.0375  143.0093  183.0689 C   0  0  0  0  0  0  0  0  0  0  0  0
  160.7501  142.8742  184.9995 C   0  0  0  0  0  0  0  0  0  0  0  0
  160.2210  142.3603  183.7764 O   0  0  0  0  0  0  0  0  0  0  0  0
  155.9038  143.7406  182.3182 O   0  0  0  0  0  0  0  0  0  0  0  0
  154.4991  143.6004  182.4152 C   0  0  0  0  0  0  0  0  0  0  0  0
  158.5869  144.1140  182.4890 O   0  0  0  0  0  0  0  0  0  0  0  0
  159.0021  144.2016  181.1431 C   0  0  0  0  0  0  0  0  0  0  0  0
  153.1450  137.6526  184.3454 C   0  0  0  0  0  0  0  0  0  0  0  0
  152.0660  137.3750  184.8832 O   0  0  0  0  0  0  0  0  0  0  0  0
  153.3355  137.5896  182.9712 N   0  0  0  0  0  0  0  0  0  0  0  0
  154.1826  137.7879  182.4445 H   0  0  0  0  0  0  0  0  0  0  0  0
  152.1370  137.1663  182.1120 C   0  0  0  0  0  0  0  0  0  0  0  0
  152.3245  135.7168  181.9896 C   0  0  0  0  0  0  0  0  0  0  0  0
  153.3184  134.9955  181.4495 O   0  0  0  0  0  0  0  0  0  0  0  0
  151.3625  134.9647  182.4944 O   0  0  0  0  0  0  0  0  0  0  0  0
  153.8040  134.2694  181.9909 H   0  0  0  0  0  0  0  0  0  0  0  0
  152.2238  137.9938  180.9322 C   0  0  0  0  0  0  0  0  0  0  0  0
  151.4282  139.2108  180.7971 C   0  0  0  0  0  0  0  0  0  0  0  0
  152.3432  140.3480  181.3923 C   0  0  0  0  0  0  0  0  0  0  0  0
  150.2253  139.0803  181.7512 C   0  0  0  0  0  0  0  0  0  0  0  0
  150.9278  139.6865  179.5012 C   0  0  0  0  0  0  0  0  0  0  0  0
  153.8732  138.2848  186.6264 C   0  0  0  0  0  0  0  0  0  0  0  0
  154.6954  137.4088  187.5052 C   0  0  0  0  0  0  0  0  0  0  0  0
  155.2588  136.1947  187.1370 C   0  0  0  0  0  0  0  0  0  0  0  0
  155.9145  135.7195  188.1974 N   0  0  0  0  0  0  0  0  0  0  0  0
  155.8123  136.5614  189.2529 C   0  0  0  0  0  0  0  0  0  0  0  0
  156.2845  136.5536  190.5430 C   0  0  0  0  0  0  0  0  0  0  0  0
  155.9846  137.6122  191.3897 C   0  0  0  0  0  0  0  0  0  0  0  0
  155.2222  138.6664  190.9532 C   0  0  0  0  0  0  0  0  0  0  0  0
  154.7438  138.6819  189.6575 C   0  0  0  0  0  0  0  0  0  0  0  0
  155.0518  137.6156  188.8217 C   0  0  0  0  0  0  0  0  0  0  0  0
  156.4301  134.8337  188.2193 H   0  0  0  0  0  0  0  0  0  0  0  0
 12 13  1  0  0  0
 13  6  1  0  0  0
  6  7  2  0  0  0
  7  8  1  0  0  0
  8  9  2  0  0  0
  9 10  1  0  0  0
 10 14  1  0  0  0
 14 15  1  0  0  0
 10 11  2  0  0  0
 11 16  1  0  0  0
 16 17  1  0  0  0
  8  2  1  0  0  0
  2  3  2  0  0  0
  2  4  1  0  0  0
  4  1  1  0  0  0
  1 32  1  0  0  0
 32 33  1  0  0  0
 33 34  2  0  0  0
 34 35  1  0  0  0
 35 36  1  0  0  0
 36 37  2  0  0  0
 37 38  1  0  0  0
 38 39  2  0  0  0
 39 40  1  0  0  0
 40 41  2  0  0  0
  1 18  1  0  0  0
 18 19  2  0  0  0
 18 20  1  0  0  0
 20 22  1  0  0  0
 22 27  1  0  0  0
 27 28  1  0  0  0
 28 29  1  0  0  0
 28 30  1  0  0  0
 28 31  1  0  0  0
 22 23  1  0  0  0
 23 24  1  0  0  0
 23 25  2  0  0  0
 11  6  1  0  0  0
 41 33  1  0  0  0
 41 36  1  0  0  0
  4  5  1  0  0  0
 35 42  1  0  0  0
 20 21  1  0  0  0
 24 26  1  0  0  0
M  END
> <minimizedAffinity>
-7.88772

> <CNNscore>
0.2497190684

> <CNNaffinity>
6.3162527084

> <CNN_VS>
1.5772887468

> <CNNaffinity_variance>
0.1423410773

$$$$
[H]OC(=O)[C@@]([H])(N([H])C(=O)[C@@]([H])(N([H])C(=O)c1c([H])c(OC([H])([H])[H])c(OC([H])([H])[H])c(OC([H])([H])[H])c1[H])C([H])([H])c1c([H])n([H])c2c([H])c([H])c([H])c([H])c12)C([H])([H])C(C([H])([H])[H])(C([H])([H])[H])C([H])([H])[H]


 42 44  0  0  0  0  0  0  0  0999 V2000
  154.5366  139.4143  183.6048 C   0  0  0  0  0  0  0  0  0  0  0  0
  154.2849  137.9026  185.6229 C   0  0  0  0  0  0  0  0  0  0  0  0
  154.6285  136.9031  184.9447 O   0  0  0  0  0  0  0  0  0  0  0  0
  154.2237  139.1681  184.9986 N   0  0  0  0  0  0  0  0  0  0  0  0
  153.9288  140.0139  185.5752 H   0  0  0  0  0  0  0  0  0  0  0  0
  152.5772  136.8012  188.8189 C   0  0  0  0  0  0  0  0  0  0  0  0
  152.8634  136.9812  187.4722 C   0  0  0  0  0  0  0  0  0  0  0  0
  153.9657  137.7033  187.0271 C   0  0  0  0  0  0  0  0  0  0  0  0
  154.7800  138.2448  188.0154 C   0  0  0  0  0  0  0  0  0  0  0  0
  154.5327  138.0907  189.3625 C   0  0  0  0  0  0  0  0  0  0  0  0
  153.4242  137.3643  189.7484 C   0  0  0  0  0  0  0  0  0  0  0  0
  151.5063  134.6637  189.0668 C   0  0  0  0  0  0  0  0  0  0  0  0
  151.4772  136.0799  189.2493 O   0  0  0  0  0  0  0  0  0  0  0  0
  155.3446  138.6306  190.3479 O   0  0  0  0  0  0  0  0  0  0  0  0
  156.6049  138.0179  190.5447 C   0  0  0  0  0  0  0  0  0  0  0  0
  153.1570  137.1975  191.0748 O   0  0  0  0  0  0  0  0  0  0  0  0
  153.6623  136.1533  191.8786 C   0  0  0  0  0  0  0  0  0  0  0  0
  155.8677  140.0729  183.4903 C   0  0  0  0  0  0  0  0  0  0  0  0
  156.5111  140.2919  184.5241 O   0  0  0  0  0  0  0  0  0  0  0  0
  156.3362  140.4170  182.2291 N   0  0  0  0  0  0  0  0  0  0  0  0
  155.8770  140.2866  181.3311 H   0  0  0  0  0  0  0  0  0  0  0  0
  157.7155  141.0837  182.1470 C   0  0  0  0  0  0  0  0  0  0  0  0
  158.6070  140.0455  182.6746 C   0  0  0  0  0  0  0  0  0  0  0  0
  159.2835  139.9635  183.8303 O   0  0  0  0  0  0  0  0  0  0  0  0
  158.7920  138.9927  181.8979 O   0  0  0  0  0  0  0  0  0  0  0  0
  159.1787  139.1518  184.4518 H   0  0  0  0  0  0  0  0  0  0  0  0
  157.5650  142.3233  182.8717 C   0  0  0  0  0  0  0  0  0  0  0  0
  157.9467  143.6018  182.2784 C   0  0  0  0  0  0  0  0  0  0  0  0
  158.3413  143.2456  180.7945 C   0  0  0  0  0  0  0  0  0  0  0  0
  159.2439  144.0600  182.9724 C   0  0  0  0  0  0  0  0  0  0  0  0
  157.0334  144.7502  182.2236 C   0  0  0  0  0  0  0  0  0  0  0  0
  153.4663  140.1735  182.8936 C   0  0  0  0  0  0  0  0  0  0  0  0
  152.4484  139.2126  182.3876 C   0  0  0  0  0  0  0  0  0  0  0  0
  152.0748  138.0289  183.0091 C   0  0  0  0  0  0  0  0  0  0  0  0
  151.1431  137.4531  182.2472 N   0  0  0  0  0  0  0  0  0  0  0  0
  150.8809  138.1993  181.1482 C   0  0  0  0  0  0  0  0  0  0  0  0
  150.0340  138.0710  180.0740 C   0  0  0  0  0  0  0  0  0  0  0  0
  150.0156  139.0540  179.0938 C   0  0  0  0  0  0  0  0  0  0  0  0
  150.8331  140.1524  179.1852 C   0  0  0  0  0  0  0  0  0  0  0  0
  151.6872  140.2889  180.2621 C   0  0  0  0  0  0  0  0  0  0  0  0
  151.6949  139.2971  181.2352 C   0  0  0  0  0  0  0  0  0  0  0  0
  150.6815  136.5624  182.4581 H   0  0  0  0  0  0  0  0  0  0  0  0
 12 13  1  0  0  0
 13  6  1  0  0  0
  6  7  2  0  0  0
  7  8  1  0  0  0
  8  9  2  0  0  0
  9 10  1  0  0  0
 10 14  1  0  0  0
 14 15  1  0  0  0
 10 11  2  0  0  0
 11 16  1  0  0  0
 16 17  1  0  0  0
  8  2  1  0  0  0
  2  3  2  0  0  0
  2  4  1  0  0  0
  4  1  1  0  0  0
  1 32  1  0  0  0
 32 33  1  0  0  0
 33 34  2  0  0  0
 34 35  1  0  0  0
 35 36  1  0  0  0
 36 37  2  0  0  0
 37 38  1  0  0  0
 38 39  2  0  0  0
 39 40  1  0  0  0
 40 41  2  0  0  0
  1 18  1  0  0  0
 18 19  2  0  0  0
 18 20  1  0  0  0
 20 22  1  0  0  0
 22 27  1  0  0  0
 27 28  1  0  0  0
 28 29  1  0  0  0
 28 30  1  0  0  0
 28 31  1  0  0  0
 22 23  1  0  0  0
 23 24  1  0  0  0
 23 25  2  0  0  0
 11  6  1  0  0  0
 41 33  1  0  0  0
 41 36  1  0  0  0
  4  5  1  0  0  0
 35 42  1  0  0  0
 20 21  1  0  0  0
 24 26  1  0  0  0
M  END
> <minimizedAffinity>
-8.11469

> <CNNscore>
0.2394861877

> <CNNaffinity>
6.0698895454

> <CNN_VS>
1.4536547661

> <CNNaffinity_variance>
0.1995401978

$$$$
[H]N=C(N([H])[H])N([H])C([H])([H])C([H])([H])C([H])([H])[C@@]1([H])C(=O)N2C([H])([H])C([H])([H])C([H])([H])[C@@]2([H])C(=O)N([H])[C@]([H])(C([H])([H])c2c([H])c([H])c([H])c([H])c2[H])C(=O)N2C([H])([H])C([H])([H])C([H])([H])[C@@]2([H])C(=O)N1[H]


 42 45  0  0  0  0  0  0  0  0999 V2000
  154.7301  134.2050  186.1614 C   0  0  0  0  0  0  0  0  0  0  0  0
  155.1403  132.9975  186.8386 N   0  0  0  0  0  0  0  0  0  0  0  0
  156.4416  132.7678  187.3424 C   0  0  0  0  0  0  0  0  0  0  0  0
  157.0465  131.6942  187.1108 O   0  0  0  0  0  0  0  0  0  0  0  0
  157.2086  133.7554  188.1810 C   0  0  0  0  0  0  0  0  0  0  0  0
  158.4298  134.2711  187.5228 C   0  0  0  0  0  0  0  0  0  0  0  0
  159.6014  133.7081  188.2792 C   0  0  0  0  0  0  0  0  0  0  0  0
  159.0038  132.6307  189.1603 C   0  0  0  0  0  0  0  0  0  0  0  0
  157.6514  133.0879  189.4204 N   0  0  0  0  0  0  0  0  0  0  0  0
  156.8339  132.9503  190.5599 C   0  0  0  0  0  0  0  0  0  0  0  0
  156.6531  131.7420  190.9971 O   0  0  0  0  0  0  0  0  0  0  0  0
  156.1437  134.0230  191.3365 C   0  0  0  0  0  0  0  0  0  0  0  0
  154.7400  134.1048  191.1621 N   0  0  0  0  0  0  0  0  0  0  0  0
  153.8798  134.1528  190.0798 C   0  0  0  0  0  0  0  0  0  0  0  0
  153.1863  133.0830  189.8322 O   0  0  0  0  0  0  0  0  0  0  0  0
  153.5941  135.2464  189.1206 C   0  0  0  0  0  0  0  0  0  0  0  0
  152.5115  136.1809  189.7129 C   0  0  0  0  0  0  0  0  0  0  0  0
  151.2209  135.4430  189.4465 C   0  0  0  0  0  0  0  0  0  0  0  0
  151.5460  134.5772  188.2781 C   0  0  0  0  0  0  0  0  0  0  0  0
  152.9442  134.8591  187.9146 N   0  0  0  0  0  0  0  0  0  0  0  0
  153.4865  134.8033  186.6111 C   0  0  0  0  0  0  0  0  0  0  0  0
  152.8042  135.3566  185.6484 O   0  0  0  0  0  0  0  0  0  0  0  0
  154.4188  132.2572  186.9501 H   0  0  0  0  0  0  0  0  0  0  0  0
  154.1838  134.1135  192.1189 H   0  0  0  0  0  0  0  0  0  0  0  0
  154.6378  133.8318  184.6690 C   0  0  0  0  0  0  0  0  0  0  0  0
  155.9425  133.1972  184.2164 C   0  0  0  0  0  0  0  0  0  0  0  0
  155.6906  132.0283  183.3012 C   0  0  0  0  0  0  0  0  0  0  0  0
  155.1070  132.3754  182.0289 N   0  0  0  0  0  0  0  0  0  0  0  0
  154.0795  132.6951  181.9871 H   0  0  0  0  0  0  0  0  0  0  0  0
  157.0558  132.8132  180.5993 N   0  0  0  0  0  0  0  0  0  0  0  0
  155.7404  132.3479  180.7710 C   0  0  0  0  0  0  0  0  0  0  0  0
  155.1241  131.8907  179.7263 N   0  0  0  0  0  0  0  0  0  0  0  0
  157.8487  132.1430  180.3647 H   0  0  0  0  0  0  0  0  0  0  0  0
  157.3626  133.8085  180.6824 H   0  0  0  0  0  0  0  0  0  0  0  0
  155.5578  131.8539  178.7793 H   0  0  0  0  0  0  0  0  0  0  0  0
  156.9428  135.2820  191.3991 C   0  0  0  0  0  0  0  0  0  0  0  0
  156.2764  136.4799  190.8721 C   0  0  0  0  0  0  0  0  0  0  0  0
  156.4202  136.8963  189.5472 C   0  0  0  0  0  0  0  0  0  0  0  0
  155.7544  138.0050  189.0748 C   0  0  0  0  0  0  0  0  0  0  0  0
  154.9091  138.7592  189.8957 C   0  0  0  0  0  0  0  0  0  0  0  0
  154.7721  138.3434  191.1991 C   0  0  0  0  0  0  0  0  0  0  0  0
  155.4474  137.2314  191.6513 C   0  0  0  0  0  0  0  0  0  0  0  0
 30 31  1  0  0  0
 31 32  2  0  0  0
 31 28  1  0  0  0
 28 27  1  0  0  0
 27 26  1  0  0  0
 26 25  1  0  0  0
 25  1  1  0  0  0
  1  2  1  0  0  0
  2  3  1  0  0  0
  3  4  2  0  0  0
  3  5  1  0  0  0
  5  6  1  0  0  0
  6  7  1  0  0  0
  7  8  1  0  0  0
  8  9  1  0  0  0
  9 10  1  0  0  0
 10 11  2  0  0  0
 10 12  1  0  0  0
 12 36  1  0  0  0
 36 37  1  0  0  0
 37 38  2  0  0  0
 38 39  1  0  0  0
 39 40  2  0  0  0
 40 41  1  0  0  0
 41 42  2  0  0  0
 12 13  1  0  0  0
 13 14  1  0  0  0
 14 15  2  0  0  0
 14 16  1  0  0  0
 16 17  1  0  0  0
 17 18  1  0  0  0
 18 19  1  0  0  0
 19 20  1  0  0  0
 20 21  1  0  0  0
 21 22  2  0  0  0
 21  1  1  0  0  0
  9  5  1  0  0  0
 42 37  1  0  0  0
 20 16  1  0  0  0
 30 33  1  0  0  0
 30 34  1  0  0  0
 32 35  1  0  0  0
 28 29  1  0  0  0
  2 23  1  0  0  0
 13 24  1  0  0  0
M  END
> <minimizedAffinity>
-5.45447

> <CNNscore>
0.4011318088

> <CNNaffinity>
5.3907494545

> <CNN_VS>
2.1624009609

> <CNNaffinity_variance>
0.2627799511

$$$$
[H]N=C(N([H])[H])N([H])C([H])([H])C([H])([H])C([H])([H])[C@@]1([H])C(=O)N2C([H])([H])C([H])([H])C([H])([H])[C@@]2([H])C(=O)N([H])[C@]([H])(C([H])([H])c2c([H])c([H])c([H])c([H])c2[H])C(=O)N2C([H])([H])C([H])([H])C([H])([H])[C@@]2([H])C(=O)N1[H]


 42 45  0  0  0  0  0  0  0  0999 V2000
  151.0395  135.1399  187.9659 C   0  0  0  0  0  0  0  0  0  0  0  0
  150.0020  134.5989  187.1199 N   0  0  0  0  0  0  0  0  0  0  0  0
  148.9693  135.3666  186.5333 C   0  0  0  0  0  0  0  0  0  0  0  0
  147.7722  134.9990  186.5962 O   0  0  0  0  0  0  0  0  0  0  0  0
  149.1937  136.6606  185.7970 C   0  0  0  0  0  0  0  0  0  0  0  0
  148.5862  137.8351  186.4618 C   0  0  0  0  0  0  0  0  0  0  0  0
  147.4500  138.2895  185.5874 C   0  0  0  0  0  0  0  0  0  0  0  0
  147.2520  137.1571  184.6010 C   0  0  0  0  0  0  0  0  0  0  0  0
  148.5700  136.5659  184.4629 N   0  0  0  0  0  0  0  0  0  0  0  0
  149.2037  135.9732  183.3526 C   0  0  0  0  0  0  0  0  0  0  0  0
  148.5620  135.0072  182.7704 O   0  0  0  0  0  0  0  0  0  0  0  0
  150.5281  136.3156  182.7535 C   0  0  0  0  0  0  0  0  0  0  0  0
  151.5737  135.3915  182.9992 N   0  0  0  0  0  0  0  0  0  0  0  0
  152.0940  134.7619  184.1156 C   0  0  0  0  0  0  0  0  0  0  0  0
  151.8327  133.4971  184.2526 O   0  0  0  0  0  0  0  0  0  0  0  0
  152.9297  135.2894  185.2206 C   0  0  0  0  0  0  0  0  0  0  0  0
  154.4198  135.2491  184.8035 C   0  0  0  0  0  0  0  0  0  0  0  0
  154.8129  133.8083  185.0287 C   0  0  0  0  0  0  0  0  0  0  0  0
  153.8451  133.3371  186.0590 C   0  0  0  0  0  0  0  0  0  0  0  0
  152.9862  134.4846  186.3937 N   0  0  0  0  0  0  0  0  0  0  0  0
  152.3986  134.7375  187.6535 C   0  0  0  0  0  0  0  0  0  0  0  0
  153.1505  134.6018  188.7092 O   0  0  0  0  0  0  0  0  0  0  0  0
  150.0296  133.5743  186.9452 H   0  0  0  0  0  0  0  0  0  0  0  0
  152.0968  135.0733  182.0772 H   0  0  0  0  0  0  0  0  0  0  0  0
  150.6691  134.7132  189.3997 C   0  0  0  0  0  0  0  0  0  0  0  0
  149.9907  135.8668  190.1200 C   0  0  0  0  0  0  0  0  0  0  0  0
  150.4087  135.9274  191.5653 C   0  0  0  0  0  0  0  0  0  0  0  0
  150.1413  134.7276  192.3196 N   0  0  0  0  0  0  0  0  0  0  0  0
  150.6139  133.8041  192.0308 H   0  0  0  0  0  0  0  0  0  0  0  0
  148.4894  133.4688  193.6311 N   0  0  0  0  0  0  0  0  0  0  0  0
  149.2985  134.6028  193.4414 C   0  0  0  0  0  0  0  0  0  0  0  0
  149.2422  135.5373  194.3378 N   0  0  0  0  0  0  0  0  0  0  0  0
  148.6794  132.7859  194.4251 H   0  0  0  0  0  0  0  0  0  0  0  0
  147.6691  133.2035  193.0408 H   0  0  0  0  0  0  0  0  0  0  0  0
  148.6318  135.4825  195.1808 H   0  0  0  0  0  0  0  0  0  0  0  0
  150.8201  137.7778  182.8197 C   0  0  0  0  0  0  0  0  0  0  0  0
  150.8473  138.4755  181.5276 C   0  0  0  0  0  0  0  0  0  0  0  0
  149.7713  138.4489  180.6383 C   0  0  0  0  0  0  0  0  0  0  0  0
  149.8149  139.1419  179.4494 C   0  0  0  0  0  0  0  0  0  0  0  0
  150.9323  139.8993  179.0815 C   0  0  0  0  0  0  0  0  0  0  0  0
  151.9881  139.9210  179.9619 C   0  0  0  0  0  0  0  0  0  0  0  0
  151.9237  139.2204  181.1460 C   0  0  0  0  0  0  0  0  0  0  0  0
 30 31  1  0  0  0
 31 32  2  0  0  0
 31 28  1  0  0  0
 28 27  1  0  0  0
 27 26  1  0  0  0
 26 25  1  0  0  0
 25  1  1  0  0  0
  1  2  1  0  0  0
  2  3  1  0  0  0
  3  4  2  0  0  0
  3  5  1  0  0  0
  5  6  1  0  0  0
  6  7  1  0  0  0
  7  8  1  0  0  0
  8  9  1  0  0  0
  9 10  1  0  0  0
 10 11  2  0  0  0
 10 12  1  0  0  0
 12 36  1  0  0  0
 36 37  1  0  0  0
 37 38  2  0  0  0
 38 39  1  0  0  0
 39 40  2  0  0  0
 40 41  1  0  0  0
 41 42  2  0  0  0
 12 13  1  0  0  0
 13 14  1  0  0  0
 14 15  2  0  0  0
 14 16  1  0  0  0
 16 17  1  0  0  0
 17 18  1  0  0  0
 18 19  1  0  0  0
 19 20  1  0  0  0
 20 21  1  0  0  0
 21 22  2  0  0  0
 21  1  1  0  0  0
  9  5  1  0  0  0
 42 37  1  0  0  0
 20 16  1  0  0  0
 30 33  1  0  0  0
 30 34  1  0  0  0
 32 35  1  0  0  0
 28 29  1  0  0  0
  2 23  1  0  0  0
 13 24  1  0  0  0
M  END
> <minimizedAffinity>
-5.63524

> <CNNscore>
0.3291096091

> <CNNaffinity>
5.5303864479

> <CNN_VS>
1.8201032877

> <CNNaffinity_variance>
0.3020886183

$$$$
[H]N=C(N([H])[H])N([H])C([H])([H])C([H])([H])C([H])([H])[C@@]1([H])C(=O)N2C([H])([H])C([H])([H])C([H])([H])[C@@]2([H])C(=O)N([H])[C@]([H])(C([H])([H])c2c([H])c([H])c([H])c([H])c2[H])C(=O)N2C([H])([H])C([H])([H])C([H])([H])[C@@]2([H])C(=O)N1[H]


 42 45  0  0  0  0  0  0  0  0999 V2000
  154.0656  136.7726  186.6424 C   0  0  0  0  0  0  0  0  0  0  0  0
  152.7882  136.3734  187.1844 N   0  0  0  0  0  0  0  0  0  0  0  0
  152.2455  135.0723  187.0725 C   0  0  0  0  0  0  0  0  0  0  0  0
  151.0596  134.8937  186.7064 O   0  0  0  0  0  0  0  0  0  0  0  0
  153.0097  133.8102  187.3721 C   0  0  0  0  0  0  0  0  0  0  0  0
  153.2208  132.9484  186.1875 C   0  0  0  0  0  0  0  0  0  0  0  0
  152.3835  131.7160  186.3924 C   0  0  0  0  0  0  0  0  0  0  0  0
  151.4743  132.0619  187.5535 C   0  0  0  0  0  0  0  0  0  0  0  0
  152.2429  133.0060  188.3433 N   0  0  0  0  0  0  0  0  0  0  0  0
  152.2962  133.2162  189.7355 C   0  0  0  0  0  0  0  0  0  0  0  0
  151.1635  133.4359  190.3292 O   0  0  0  0  0  0  0  0  0  0  0  0
  153.4965  133.2180  190.6241 C   0  0  0  0  0  0  0  0  0  0  0  0
  153.9175  134.4883  191.0896 N   0  0  0  0  0  0  0  0  0  0  0  0
  154.1828  135.7153  190.5087 C   0  0  0  0  0  0  0  0  0  0  0  0
  153.3152  136.6607  190.7095 O   0  0  0  0  0  0  0  0  0  0  0  0
  155.3223  136.1621  189.6723 C   0  0  0  0  0  0  0  0  0  0  0  0
  156.4853  136.6167  190.5871 C   0  0  0  0  0  0  0  0  0  0  0  0
  156.0845  138.0117  191.0045 C   0  0  0  0  0  0  0  0  0  0  0  0
  155.1772  138.4588  189.9104 C   0  0  0  0  0  0  0  0  0  0  0  0
  155.1156  137.3606  188.9322 N   0  0  0  0  0  0  0  0  0  0  0  0
  154.9429  137.5051  187.5374 C   0  0  0  0  0  0  0  0  0  0  0  0
  155.6542  138.4132  186.9311 O   0  0  0  0  0  0  0  0  0  0  0  0
  152.2436  137.1055  187.6828 H   0  0  0  0  0  0  0  0  0  0  0  0
  154.0512  134.5254  192.1876 H   0  0  0  0  0  0  0  0  0  0  0  0
  153.7404  137.6197  185.3967 C   0  0  0  0  0  0  0  0  0  0  0  0
  153.9170  136.7788  184.1432 C   0  0  0  0  0  0  0  0  0  0  0  0
  152.5865  136.3490  183.5842 C   0  0  0  0  0  0  0  0  0  0  0  0
  151.5109  137.2840  183.8050 N   0  0  0  0  0  0  0  0  0  0  0  0
  151.7233  138.3394  183.8288 H   0  0  0  0  0  0  0  0  0  0  0  0
  149.3272  136.5621  182.9428 N   0  0  0  0  0  0  0  0  0  0  0  0
  150.1504  136.9781  184.0038 C   0  0  0  0  0  0  0  0  0  0  0  0
  149.6126  137.0733  185.1793 N   0  0  0  0  0  0  0  0  0  0  0  0
  148.9447  135.5697  182.9016 H   0  0  0  0  0  0  0  0  0  0  0  0
  149.0299  137.1569  182.1368 H   0  0  0  0  0  0  0  0  0  0  0  0
  148.6105  136.8564  185.3670 H   0  0  0  0  0  0  0  0  0  0  0  0
  154.5239  132.2252  190.1922 C   0  0  0  0  0  0  0  0  0  0  0  0
  155.9024  132.7282  190.1328 C   0  0  0  0  0  0  0  0  0  0  0  0
  156.6855  132.9065  191.2748 C   0  0  0  0  0  0  0  0  0  0  0  0
  157.9865  133.3475  191.1825 C   0  0  0  0  0  0  0  0  0  0  0  0
  158.5786  133.6347  189.9479 C   0  0  0  0  0  0  0  0  0  0  0  0
  157.8018  133.4569  188.8275 C   0  0  0  0  0  0  0  0  0  0  0  0
  156.5024  133.0149  188.9424 C   0  0  0  0  0  0  0  0  0  0  0  0
 30 31  1  0  0  0
 31 32  2  0  0  0
 31 28  1  0  0  0
 28 27  1  0  0  0
 27 26  1  0  0  0
 26 25  1  0  0  0
 25  1  1  0  0  0
  1  2  1  0  0  0
  2  3  1  0  0  0
  3  4  2  0  0  0
  3  5  1  0  0  0
  5  6  1  0  0  0
  6  7  1  0  0  0
  7  8  1  0  0  0
  8  9  1  0  0  0
  9 10  1  0  0  0
 10 11  2  0  0  0
 10 12  1  0  0  0
 12 36  1  0  0  0
 36 37  1  0  0  0
 37 38  2  0  0  0
 38 39  1  0  0  0
 39 40  2  0  0  0
 40 41  1  0  0  0
 41 42  2  0  0  0
 12 13  1  0  0  0
 13 14  1  0  0  0
 14 15  2  0  0  0
 14 16  1  0  0  0
 16 17  1  0  0  0
 17 18  1  0  0  0
 18 19  1  0  0  0
 19 20  1  0  0  0
 20 21  1  0  0  0
 21 22  2  0  0  0
 21  1  1  0  0  0
  9  5  1  0  0  0
 42 37  1  0  0  0
 20 16  1  0  0  0
 30 33  1  0  0  0
 30 34  1  0  0  0
 32 35  1  0  0  0
 28 29  1  0  0  0
  2 23  1  0  0  0
 13 24  1  0  0  0
M  END
> <minimizedAffinity>
-4.48434

> <CNNscore>
0.2919688225

> <CNNaffinity>
5.3733882904

> <CNN_VS>
1.5688618422

> <CNNaffinity_variance>
0.3256922066

$$$$
[H]N=C(N([H])[H])N([H])C([H])([H])C([H])([H])C([H])([H])[C@@]1([H])C(=O)N2C([H])([H])C([H])([H])C([H])([H])[C@@]2([H])C(=O)N([H])[C@]([H])(C([H])([H])c2c([H])c([H])c([H])c([H])c2[H])C(=O)N2C([H])([H])C([H])([H])C([H])([H])[C@@]2([H])C(=O)N1[H]


 42 45  0  0  0  0  0  0  0  0999 V2000
  152.2006  135.6892  190.7819 C   0  0  0  0  0  0  0  0  0  0  0  0
  152.2897  134.5697  189.8743 N   0  0  0  0  0  0  0  0  0  0  0  0
  151.4028  134.3439  188.7961 C   0  0  0  0  0  0  0  0  0  0  0  0
  150.8865  133.2171  188.6062 O   0  0  0  0  0  0  0  0  0  0  0  0
  151.0012  135.3977  187.7986 C   0  0  0  0  0  0  0  0  0  0  0  0
  149.5641  135.7479  187.8508 C   0  0  0  0  0  0  0  0  0  0  0  0
  148.9458  135.2355  186.5792 C   0  0  0  0  0  0  0  0  0  0  0  0
  150.0011  134.3280  185.9813 C   0  0  0  0  0  0  0  0  0  0  0  0
  151.2589  134.8900  186.4370 N   0  0  0  0  0  0  0  0  0  0  0  0
  152.5191  134.9600  185.8106 C   0  0  0  0  0  0  0  0  0  0  0  0
  153.0179  133.8377  185.3918 O   0  0  0  0  0  0  0  0  0  0  0  0
  153.3617  136.1679  185.5631 C   0  0  0  0  0  0  0  0  0  0  0  0
  154.5074  136.3000  186.3862 N   0  0  0  0  0  0  0  0  0  0  0  0
  154.7603  136.2402  187.7448 C   0  0  0  0  0  0  0  0  0  0  0  0
  155.3790  135.1851  188.1818 O   0  0  0  0  0  0  0  0  0  0  0  0
  154.4448  137.2002  188.8293 C   0  0  0  0  0  0  0  0  0  0  0  0
  155.5636  138.2665  188.9146 C   0  0  0  0  0  0  0  0  0  0  0  0
  156.6611  137.5692  189.6829 C   0  0  0  0  0  0  0  0  0  0  0  0
  155.9357  136.5299  190.4665 C   0  0  0  0  0  0  0  0  0  0  0  0
  154.5054  136.6812  190.1537 N   0  0  0  0  0  0  0  0  0  0  0  0
  153.4339  136.4117  191.0343 C   0  0  0  0  0  0  0  0  0  0  0  0
  153.5276  136.8587  192.2549 O   0  0  0  0  0  0  0  0  0  0  0  0
  153.0607  133.8929  190.0428 H   0  0  0  0  0  0  0  0  0  0  0  0
  155.4368  136.4745  185.8110 H   0  0  0  0  0  0  0  0  0  0  0  0
  151.6368  135.1133  192.0955 C   0  0  0  0  0  0  0  0  0  0  0  0
  150.2328  135.6460  192.3292 C   0  0  0  0  0  0  0  0  0  0  0  0
  149.8818  135.6316  193.7934 C   0  0  0  0  0  0  0  0  0  0  0  0
  149.3167  134.3911  194.2644 N   0  0  0  0  0  0  0  0  0  0  0  0
  149.2773  134.1951  195.3225 H   0  0  0  0  0  0  0  0  0  0  0  0
  147.4595  133.3895  193.0071 N   0  0  0  0  0  0  0  0  0  0  0  0
  148.7835  133.3510  193.4782 C   0  0  0  0  0  0  0  0  0  0  0  0
  149.5026  132.3192  193.1647 N   0  0  0  0  0  0  0  0  0  0  0  0
  147.2492  133.4974  191.9693 H   0  0  0  0  0  0  0  0  0  0  0  0
  146.6024  133.3202  193.6008 H   0  0  0  0  0  0  0  0  0  0  0  0
  149.1449  131.5296  192.5858 H   0  0  0  0  0  0  0  0  0  0  0  0
  152.5433  137.3780  185.2573 C   0  0  0  0  0  0  0  0  0  0  0  0
  151.9381  137.4095  183.9194 C   0  0  0  0  0  0  0  0  0  0  0  0
  150.5705  137.2219  183.7104 C   0  0  0  0  0  0  0  0  0  0  0  0
  150.0289  137.2915  182.4465 C   0  0  0  0  0  0  0  0  0  0  0  0
  150.8195  137.5520  181.3221 C   0  0  0  0  0  0  0  0  0  0  0  0
  152.1653  137.7358  181.5352 C   0  0  0  0  0  0  0  0  0  0  0  0
  152.6866  137.6618  182.8080 C   0  0  0  0  0  0  0  0  0  0  0  0
 30 31  1  0  0  0
 31 32  2  0  0  0
 31 28  1  0  0  0
 28 27  1  0  0  0
 27 26  1  0  0  0
 26 25  1  0  0  0
 25  1  1  0  0  0
  1  2  1  0  0  0
  2  3  1  0  0  0
  3  4  2  0  0  0
  3  5  1  0  0  0
  5  6  1  0  0  0
  6  7  1  0  0  0
  7  8  1  0  0  0
  8  9  1  0  0  0
  9 10  1  0  0  0
 10 11  2  0  0  0
 10 12  1  0  0  0
 12 36  1  0  0  0
 36 37  1  0  0  0
 37 38  2  0  0  0
 38 39  1  0  0  0
 39 40  2  0  0  0
 40 41  1  0  0  0
 41 42  2  0  0  0
 12 13  1  0  0  0
 13 14  1  0  0  0
 14 15  2  0  0  0
 14 16  1  0  0  0
 16 17  1  0  0  0
 17 18  1  0  0  0
 18 19  1  0  0  0
 19 20  1  0  0  0
 20 21  1  0  0  0
 21 22  2  0  0  0
 21  1  1  0  0  0
  9  5  1  0  0  0
 42 37  1  0  0  0
 20 16  1  0  0  0
 30 33  1  0  0  0
 30 34  1  0  0  0
 32 35  1  0  0  0
 28 29  1  0  0  0
  2 23  1  0  0  0
 13 24  1  0  0  0
M  END
> <minimizedAffinity>
-5.31213

> <CNNscore>
0.2441126853

> <CNNaffinity>
5.4035272598

> <CNN_VS>
1.3190695047

> <CNNaffinity_variance>
0.1335969269

$$$$
[H]N=C(N([H])[H])N([H])C([H])([H])C([H])([H])C([H])([H])[C@@]1([H])C(=O)N2C([H])([H])C([H])([H])C([H])([H])[C@@]2([H])C(=O)N([H])[C@]([H])(C([H])([H])c2c([H])c([H])c([H])c([H])c2[H])C(=O)N2C([H])([H])C([H])([H])C([H])([H])[C@@]2([H])C(=O)N1[H]


 42 45  0  0  0  0  0  0  0  0999 V2000
  153.5498  137.4557  183.8628 C   0  0  0  0  0  0  0  0  0  0  0  0
  152.7299  136.2857  184.0719 N   0  0  0  0  0  0  0  0  0  0  0  0
  153.0367  134.9973  183.5762 C   0  0  0  0  0  0  0  0  0  0  0  0
  152.1740  134.3093  182.9807 O   0  0  0  0  0  0  0  0  0  0  0  0
  154.3852  134.3410  183.7085 C   0  0  0  0  0  0  0  0  0  0  0  0
  155.0664  134.1173  182.4137 C   0  0  0  0  0  0  0  0  0  0  0  0
  155.0896  132.6308  182.1864 C   0  0  0  0  0  0  0  0  0  0  0  0
  154.1351  132.0723  183.2215 C   0  0  0  0  0  0  0  0  0  0  0  0
  154.2114  133.0115  184.3250 N   0  0  0  0  0  0  0  0  0  0  0  0
  154.1195  132.8097  185.7165 C   0  0  0  0  0  0  0  0  0  0  0  0
  153.0608  132.1906  186.1406 O   0  0  0  0  0  0  0  0  0  0  0  0
  155.0904  133.2181  186.7752 C   0  0  0  0  0  0  0  0  0  0  0  0
  154.6981  134.3148  187.5820 N   0  0  0  0  0  0  0  0  0  0  0  0
  154.2143  135.5896  187.3493 C   0  0  0  0  0  0  0  0  0  0  0  0
  152.9586  135.7980  187.6070 O   0  0  0  0  0  0  0  0  0  0  0  0
  154.8972  136.8049  186.8449 C   0  0  0  0  0  0  0  0  0  0  0  0
  155.5766  137.5409  188.0251 C   0  0  0  0  0  0  0  0  0  0  0  0
  154.4412  138.2975  188.6728 C   0  0  0  0  0  0  0  0  0  0  0  0
  153.4534  138.4612  187.5693 C   0  0  0  0  0  0  0  0  0  0  0  0
  154.0456  137.8432  186.3718 N   0  0  0  0  0  0  0  0  0  0  0  0
  153.8358  138.2586  185.0378 C   0  0  0  0  0  0  0  0  0  0  0  0
  153.9005  139.5354  184.7851 O   0  0  0  0  0  0  0  0  0  0  0  0
  151.8579  136.4196  184.6222 H   0  0  0  0  0  0  0  0  0  0  0  0
  154.7746  134.1049  188.6661 H   0  0  0  0  0  0  0  0  0  0  0  0
  152.8090  138.2967  182.8049 C   0  0  0  0  0  0  0  0  0  0  0  0
  151.3486  137.8801  182.7479 C   0  0  0  0  0  0  0  0  0  0  0  0
  150.8709  137.7637  181.3247 C   0  0  0  0  0  0  0  0  0  0  0  0
  150.5760  139.0218  180.6844 N   0  0  0  0  0  0  0  0  0  0  0  0
  149.6797  139.5552  180.9525 H   0  0  0  0  0  0  0  0  0  0  0  0
  152.7490  139.7490  179.7999 N   0  0  0  0  0  0  0  0  0  0  0  0
  151.3484  139.6745  179.7038 C   0  0  0  0  0  0  0  0  0  0  0  0
  150.7866  140.2314  178.6770 N   0  0  0  0  0  0  0  0  0  0  0  0
  153.3745  139.2282  179.1140 H   0  0  0  0  0  0  0  0  0  0  0  0
  153.2796  140.2934  180.5167 H   0  0  0  0  0  0  0  0  0  0  0  0
  151.3228  140.7236  177.9309 H   0  0  0  0  0  0  0  0  0  0  0  0
  156.5065  133.1260  186.3127 C   0  0  0  0  0  0  0  0  0  0  0  0
  157.5246  133.3183  187.3536 C   0  0  0  0  0  0  0  0  0  0  0  0
  157.8081  132.3454  188.3140 C   0  0  0  0  0  0  0  0  0  0  0  0
  158.7927  132.5426  189.2559 C   0  0  0  0  0  0  0  0  0  0  0  0
  159.5488  133.7192  189.2926 C   0  0  0  0  0  0  0  0  0  0  0  0
  159.2644  134.6729  188.3439 C   0  0  0  0  0  0  0  0  0  0  0  0
  158.2750  134.4553  187.4107 C   0  0  0  0  0  0  0  0  0  0  0  0
 30 31  1  0  0  0
 31 32  2  0  0  0
 31 28  1  0  0  0
 28 27  1  0  0  0
 27 26  1  0  0  0
 26 25  1  0  0  0
 25  1  1  0  0  0
  1  2  1  0  0  0
  2  3  1  0  0  0
  3  4  2  0  0  0
  3  5  1  0  0  0
  5  6  1  0  0  0
  6  7  1  0  0  0
  7  8  1  0  0  0
  8  9  1  0  0  0
  9 10  1  0  0  0
 10 11  2  0  0  0
 10 12  1  0  0  0
 12 36  1  0  0  0
 36 37  1  0  0  0
 37 38  2  0  0  0
 38 39  1  0  0  0
 39 40  2  0  0  0
 40 41  1  0  0  0
 41 42  2  0  0  0
 12 13  1  0  0  0
 13 14  1  0  0  0
 14 15  2  0  0  0
 14 16  1  0  0  0
 16 17  1  0  0  0
 17 18  1  0  0  0
 18 19  1  0  0  0
 19 20  1  0  0  0
 20 21  1  0  0  0
 21 22  2  0  0  0
 21  1  1  0  0  0
  9  5  1  0  0  0
 42 37  1  0  0  0
 20 16  1  0  0  0
 30 33  1  0  0  0
 30 34  1  0  0  0
 32 35  1  0  0  0
 28 29  1  0  0  0
  2 23  1  0  0  0
 13 24  1  0  0  0
M  END
> <minimizedAffinity>
-6.35196

> <CNNscore>
0.2426133752

> <CNNaffinity>
5.4738364220

> <CNN_VS>
1.3280259371

> <CNNaffinity_variance>
0.1699448377

$$$$
[H]N=C(N([H])[H])N([H])C([H])([H])C([H])([H])C([H])([H])[C@@]1([H])C(=O)N2C([H])([H])C([H])([H])C([H])([H])[C@@]2([H])C(=O)N([H])[C@]([H])(C([H])([H])c2c([H])c([H])c([H])c([H])c2[H])C(=O)N2C([H])([H])C([H])([H])C([H])([H])[C@@]2([H])C(=O)N1[H]


 42 45  0  0  0  0  0  0  0  0999 V2000
  153.3173  136.8570  187.0528 C   0  0  0  0  0  0  0  0  0  0  0  0
  152.1785  136.4290  187.8305 N   0  0  0  0  0  0  0  0  0  0  0  0
  151.6561  135.1148  187.8237 C   0  0  0  0  0  0  0  0  0  0  0  0
  150.4265  134.9065  187.6930 O   0  0  0  0  0  0  0  0  0  0  0  0
  152.4941  133.8725  187.9687 C   0  0  0  0  0  0  0  0  0  0  0  0
  152.4936  133.0121  186.7645 C   0  0  0  0  0  0  0  0  0  0  0  0
  151.7417  131.7606  187.1254 C   0  0  0  0  0  0  0  0  0  0  0  0
  151.0654  132.0885  188.4405 C   0  0  0  0  0  0  0  0  0  0  0  0
  151.9487  133.0534  189.0684 N   0  0  0  0  0  0  0  0  0  0  0  0
  152.2644  133.2696  190.4246 C   0  0  0  0  0  0  0  0  0  0  0  0
  151.2625  133.4641  191.2258 O   0  0  0  0  0  0  0  0  0  0  0  0
  153.6132  133.3033  191.0649 C   0  0  0  0  0  0  0  0  0  0  0  0
  154.0851  134.5849  191.4420 N   0  0  0  0  0  0  0  0  0  0  0  0
  154.2036  135.8160  190.8225 C   0  0  0  0  0  0  0  0  0  0  0  0
  153.3684  136.7410  191.1881 O   0  0  0  0  0  0  0  0  0  0  0  0
  155.1492  136.2872  189.7826 C   0  0  0  0  0  0  0  0  0  0  0  0
  156.4554  136.7727  190.4565 C   0  0  0  0  0  0  0  0  0  0  0  0
  156.1090  138.1591  190.9452 C   0  0  0  0  0  0  0  0  0  0  0  0
  154.9971  138.5805  190.0471 C   0  0  0  0  0  0  0  0  0  0  0  0
  154.7746  137.4779  189.0978 N   0  0  0  0  0  0  0  0  0  0  0  0
  154.3327  137.6133  187.7626 C   0  0  0  0  0  0  0  0  0  0  0  0
  154.8915  138.5363  187.0318 O   0  0  0  0  0  0  0  0  0  0  0  0
  151.7227  137.1495  188.4255 H   0  0  0  0  0  0  0  0  0  0  0  0
  154.4272  134.6290  192.4937 H   0  0  0  0  0  0  0  0  0  0  0  0
  152.7375  137.6918  185.8943 C   0  0  0  0  0  0  0  0  0  0  0  0
  153.0975  137.0470  184.5661 C   0  0  0  0  0  0  0  0  0  0  0  0
  153.5990  138.0706  183.5822 C   0  0  0  0  0  0  0  0  0  0  0  0
  154.4502  139.0860  184.1519 N   0  0  0  0  0  0  0  0  0  0  0  0
  154.8067  138.9727  185.1617 H   0  0  0  0  0  0  0  0  0  0  0  0
  156.0067  140.2662  182.6627 N   0  0  0  0  0  0  0  0  0  0  0  0
  154.8966  140.2660  183.5255 C   0  0  0  0  0  0  0  0  0  0  0  0
  154.2938  141.3953  183.7286 N   0  0  0  0  0  0  0  0  0  0  0  0
  155.8914  140.4477  181.6203 H   0  0  0  0  0  0  0  0  0  0  0  0
  156.9971  140.0962  182.9489 H   0  0  0  0  0  0  0  0  0  0  0  0
  154.5934  142.2894  183.2844 H   0  0  0  0  0  0  0  0  0  0  0  0
  154.5617  132.3340  190.4417 C   0  0  0  0  0  0  0  0  0  0  0  0
  155.9176  132.8440  190.1998 C   0  0  0  0  0  0  0  0  0  0  0  0
  156.8445  133.0269  191.2278 C   0  0  0  0  0  0  0  0  0  0  0  0
  158.1194  133.4745  190.9635 C   0  0  0  0  0  0  0  0  0  0  0  0
  158.5409  133.7639  189.6612 C   0  0  0  0  0  0  0  0  0  0  0  0
  157.6231  133.5815  188.6539 C   0  0  0  0  0  0  0  0  0  0  0  0
  156.3527  133.1329  188.9403 C   0  0  0  0  0  0  0  0  0  0  0  0
 30 31  1  0  0  0
 31 32  2  0  0  0
 31 28  1  0  0  0
 28 27  1  0  0  0
 27 26  1  0  0  0
 26 25  1  0  0  0
 25  1  1  0  0  0
  1  2  1  0  0  0
  2  3  1  0  0  0
  3  4  2  0  0  0
  3  5  1  0  0  0
  5  6  1  0  0  0
  6  7  1  0  0  0
  7  8  1  0  0  0
  8  9  1  0  0  0
  9 10  1  0  0  0
 10 11  2  0  0  0
 10 12  1  0  0  0
 12 36  1  0  0  0
 36 37  1  0  0  0
 37 38  2  0  0  0
 38 39  1  0  0  0
 39 40  2  0  0  0
 40 41  1  0  0  0
 41 42  2  0  0  0
 12 13  1  0  0  0
 13 14  1  0  0  0
 14 15  2  0  0  0
 14 16  1  0  0  0
 16 17  1  0  0  0
 17 18  1  0  0  0
 18 19  1  0  0  0
 19 20  1  0  0  0
 20 21  1  0  0  0
 21 22  2  0  0  0
 21  1  1  0  0  0
  9  5  1  0  0  0
 42 37  1  0  0  0
 20 16  1  0  0  0
 30 33  1  0  0  0
 30 34  1  0  0  0
 32 35  1  0  0  0
 28 29  1  0  0  0
  2 23  1  0  0  0
 13 24  1  0  0  0
M  END
> <minimizedAffinity>
-5.04692

> <CNNscore>
0.2381611466

> <CNNaffinity>
5.6591243744

> <CNN_VS>
1.3477835655

> <CNNaffinity_variance>
0.1864344776

$$$$
[H]N=C(N([H])[H])N([H])C([H])([H])C([H])([H])C([H])([H])[C@@]1([H])C(=O)N2C([H])([H])C([H])([H])C([H])([H])[C@@]2([H])C(=O)N([H])[C@]([H])(C([H])([H])c2c([H])c([H])c([H])c([H])c2[H])C(=O)N2C([H])([H])C([H])([H])C([H])([H])[C@@]2([H])C(=O)N1[H]


 42 45  0  0  0  0  0  0  0  0999 V2000
  152.8079  136.4439  186.5082 C   0  0  0  0  0  0  0  0  0  0  0  0
  153.3831  135.1242  186.3973 N   0  0  0  0  0  0  0  0  0  0  0  0
  154.6931  134.7873  186.8102 C   0  0  0  0  0  0  0  0  0  0  0  0
  155.4597  134.1326  186.0647 O   0  0  0  0  0  0  0  0  0  0  0  0
  155.2819  135.1668  188.1429 C   0  0  0  0  0  0  0  0  0  0  0  0
  156.4238  136.1030  188.0425 C   0  0  0  0  0  0  0  0  0  0  0  0
  157.6512  135.3362  188.4516 C   0  0  0  0  0  0  0  0  0  0  0  0
  157.2064  133.8883  188.4725 C   0  0  0  0  0  0  0  0  0  0  0  0
  155.7947  133.9505  188.8028 N   0  0  0  0  0  0  0  0  0  0  0  0
  154.9836  133.0773  189.5544 C   0  0  0  0  0  0  0  0  0  0  0  0
  154.9802  131.8331  189.1859 O   0  0  0  0  0  0  0  0  0  0  0  0
  154.1210  133.4000  190.7300 C   0  0  0  0  0  0  0  0  0  0  0  0
  152.7253  133.4129  190.4861 N   0  0  0  0  0  0  0  0  0  0  0  0
  151.8914  133.9948  189.5483 C   0  0  0  0  0  0  0  0  0  0  0  0
  151.3750  133.2089  188.6526 O   0  0  0  0  0  0  0  0  0  0  0  0
  151.4627  135.4037  189.3789 C   0  0  0  0  0  0  0  0  0  0  0  0
  150.2375  135.6813  190.2833 C   0  0  0  0  0  0  0  0  0  0  0  0
  149.0809  135.1057  189.5011 C   0  0  0  0  0  0  0  0  0  0  0  0
  149.5594  135.1392  188.0904 C   0  0  0  0  0  0  0  0  0  0  0  0
  150.9057  135.7340  188.1109 N   0  0  0  0  0  0  0  0  0  0  0  0
  151.4780  136.5190  187.0851 C   0  0  0  0  0  0  0  0  0  0  0  0
  150.7401  137.4541  186.5564 O   0  0  0  0  0  0  0  0  0  0  0  0
  152.7809  134.3865  185.9798 H   0  0  0  0  0  0  0  0  0  0  0  0
  152.1539  132.7933  191.2034 H   0  0  0  0  0  0  0  0  0  0  0  0
  152.8058  137.0163  185.0773 C   0  0  0  0  0  0  0  0  0  0  0  0
  152.8152  135.8792  184.0691 C   0  0  0  0  0  0  0  0  0  0  0  0
  152.5623  136.3865  182.6741 C   0  0  0  0  0  0  0  0  0  0  0  0
  151.3393  135.9127  182.0742 N   0  0  0  0  0  0  0  0  0  0  0  0
  150.4567  136.5284  182.1141 H   0  0  0  0  0  0  0  0  0  0  0  0
  149.8614  134.2634  181.0117 N   0  0  0  0  0  0  0  0  0  0  0  0
  151.1416  134.6862  181.4102 C   0  0  0  0  0  0  0  0  0  0  0  0
  152.1413  133.9045  181.1463 N   0  0  0  0  0  0  0  0  0  0  0  0
  149.6010  134.1979  179.9818 H   0  0  0  0  0  0  0  0  0  0  0  0
  149.0857  133.9890  181.6557 H   0  0  0  0  0  0  0  0  0  0  0  0
  152.0362  132.9899  180.6574 H   0  0  0  0  0  0  0  0  0  0  0  0
  154.7168  134.4581  191.5977 C   0  0  0  0  0  0  0  0  0  0  0  0
  153.7533  135.3198  192.2949 C   0  0  0  0  0  0  0  0  0  0  0  0
  153.5302  136.6475  191.9253 C   0  0  0  0  0  0  0  0  0  0  0  0
  152.5948  137.4190  192.5775 C   0  0  0  0  0  0  0  0  0  0  0  0
  151.8304  136.9102  193.6331 C   0  0  0  0  0  0  0  0  0  0  0  0
  152.0552  135.6021  193.9917 C   0  0  0  0  0  0  0  0  0  0  0  0
  152.9960  134.8480  193.3260 C   0  0  0  0  0  0  0  0  0  0  0  0
 30 31  1  0  0  0
 31 32  2  0  0  0
 31 28  1  0  0  0
 28 27  1  0  0  0
 27 26  1  0  0  0
 26 25  1  0  0  0
 25  1  1  0  0  0
  1  2  1  0  0  0
  2  3  1  0  0  0
  3  4  2  0  0  0
  3  5  1  0  0  0
  5  6  1  0  0  0
  6  7  1  0  0  0
  7  8  1  0  0  0
  8  9  1  0  0  0
  9 10  1  0  0  0
 10 11  2  0  0  0
 10 12  1  0  0  0
 12 36  1  0  0  0
 36 37  1  0  0  0
 37 38  2  0  0  0
 38 39  1  0  0  0
 39 40  2  0  0  0
 40 41  1  0  0  0
 41 42  2  0  0  0
 12 13  1  0  0  0
 13 14  1  0  0  0
 14 15  2  0  0  0
 14 16  1  0  0  0
 16 17  1  0  0  0
 17 18  1  0  0  0
 18 19  1  0  0  0
 19 20  1  0  0  0
 20 21  1  0  0  0
 21 22  2  0  0  0
 21  1  1  0  0  0
  9  5  1  0  0  0
 42 37  1  0  0  0
 20 16  1  0  0  0
 30 33  1  0  0  0
 30 34  1  0  0  0
 32 35  1  0  0  0
 28 29  1  0  0  0
  2 23  1  0  0  0
 13 24  1  0  0  0
M  END
> <minimizedAffinity>
-4.86581

> <CNNscore>
0.2243664563

> <CNNaffinity>
5.3722977638

> <CNN_VS>
1.2053633928

> <CNNaffinity_variance>
0.2540164590

$$$$
[H]N=C(N([H])[H])N([H])C([H])([H])C([H])([H])C([H])([H])[C@@]1([H])C(=O)N2C([H])([H])C([H])([H])C([H])([H])[C@@]2([H])C(=O)N([H])[C@]([H])(C([H])([H])c2c([H])c([H])c([H])c([H])c2[H])C(=O)N2C([H])([H])C([H])([H])C([H])([H])[C@@]2([H])C(=O)N1[H]


 42 45  0  0  0  0  0  0  0  0999 V2000
  154.7648  138.2660  185.7402 C   0  0  0  0  0  0  0  0  0  0  0  0
  155.2983  137.0105  186.2135 N   0  0  0  0  0  0  0  0  0  0  0  0
  155.8717  136.8184  187.4919 C   0  0  0  0  0  0  0  0  0  0  0  0
  156.9714  136.2316  187.6278 O   0  0  0  0  0  0  0  0  0  0  0  0
  155.2415  137.2825  188.7781 C   0  0  0  0  0  0  0  0  0  0  0  0
  156.0203  138.3290  189.4771 C   0  0  0  0  0  0  0  0  0  0  0  0
  156.5650  137.7007  190.7303 C   0  0  0  0  0  0  0  0  0  0  0  0
  156.3333  136.2155  190.5434 C   0  0  0  0  0  0  0  0  0  0  0  0
  155.1507  136.1385  189.7060 N   0  0  0  0  0  0  0  0  0  0  0  0
  154.0989  135.2013  189.6786 C   0  0  0  0  0  0  0  0  0  0  0  0
  154.4393  133.9564  189.5441 O   0  0  0  0  0  0  0  0  0  0  0  0
  152.6313  135.4565  189.7859 C   0  0  0  0  0  0  0  0  0  0  0  0
  151.8922  135.3210  188.5847 N   0  0  0  0  0  0  0  0  0  0  0  0
  152.0132  135.7956  187.2911 C   0  0  0  0  0  0  0  0  0  0  0  0
  152.3856  134.9433  186.3846 O   0  0  0  0  0  0  0  0  0  0  0  0
  151.7817  137.1492  186.7331 C   0  0  0  0  0  0  0  0  0  0  0  0
  150.2805  137.3170  186.3952 C   0  0  0  0  0  0  0  0  0  0  0  0
  150.1338  136.6102  185.0685 C   0  0  0  0  0  0  0  0  0  0  0  0
  151.5050  136.6651  184.4877 C   0  0  0  0  0  0  0  0  0  0  0  0
  152.3463  137.3956  185.4495 N   0  0  0  0  0  0  0  0  0  0  0  0
  153.4508  138.2152  185.1257 C   0  0  0  0  0  0  0  0  0  0  0  0
  153.3097  139.0588  184.1425 O   0  0  0  0  0  0  0  0  0  0  0  0
  155.2532  136.2068  185.5554 H   0  0  0  0  0  0  0  0  0  0  0  0
  151.0107  134.6600  188.6902 H   0  0  0  0  0  0  0  0  0  0  0  0
  155.8049  138.8071  184.7399 C   0  0  0  0  0  0  0  0  0  0  0  0
  156.8901  139.5649  185.4867 C   0  0  0  0  0  0  0  0  0  0  0  0
  157.5244  140.6121  184.6101 C   0  0  0  0  0  0  0  0  0  0  0  0
  158.8174  141.0683  185.0575 N   0  0  0  0  0  0  0  0  0  0  0  0
  159.1060  140.9177  186.0840 H   0  0  0  0  0  0  0  0  0  0  0  0
  160.4572  141.0643  183.2287 N   0  0  0  0  0  0  0  0  0  0  0  0
  159.7997  141.7186  184.2852 C   0  0  0  0  0  0  0  0  0  0  0  0
  160.1303  142.9480  184.5285 N   0  0  0  0  0  0  0  0  0  0  0  0
  160.2986  141.3580  182.2180 H   0  0  0  0  0  0  0  0  0  0  0  0
  161.1274  140.2693  183.3313 H   0  0  0  0  0  0  0  0  0  0  0  0
  160.8517  143.4635  183.9806 H   0  0  0  0  0  0  0  0  0  0  0  0
  152.3178  136.5871  190.7085 C   0  0  0  0  0  0  0  0  0  0  0  0
  151.8921  136.2002  192.0598 C   0  0  0  0  0  0  0  0  0  0  0  0
  150.5494  136.1615  192.4407 C   0  0  0  0  0  0  0  0  0  0  0  0
  150.1810  135.7613  193.7054 C   0  0  0  0  0  0  0  0  0  0  0  0
  151.1294  135.3774  194.6596 C   0  0  0  0  0  0  0  0  0  0  0  0
  152.4496  135.4178  194.2778 C   0  0  0  0  0  0  0  0  0  0  0  0
  152.7964  135.8215  193.0074 C   0  0  0  0  0  0  0  0  0  0  0  0
 30 31  1  0  0  0
 31 32  2  0  0  0
 31 28  1  0  0  0
 28 27  1  0  0  0
 27 26  1  0  0  0
 26 25  1  0  0  0
 25  1  1  0  0  0
  1  2  1  0  0  0
  2  3  1  0  0  0
  3  4  2  0  0  0
  3  5  1  0  0  0
  5  6  1  0  0  0
  6  7  1  0  0  0
  7  8  1  0  0  0
  8  9  1  0  0  0
  9 10  1  0  0  0
 10 11  2  0  0  0
 10 12  1  0  0  0
 12 36  1  0  0  0
 36 37  1  0  0  0
 37 38  2  0  0  0
 38 39  1  0  0  0
 39 40  2  0  0  0
 40 41  1  0  0  0
 41 42  2  0  0  0
 12 13  1  0  0  0
 13 14  1  0  0  0
 14 15  2  0  0  0
 14 16  1  0  0  0
 16 17  1  0  0  0
 17 18  1  0  0  0
 18 19  1  0  0  0
 19 20  1  0  0  0
 20 21  1  0  0  0
 21 22  2  0  0  0
 21  1  1  0  0  0
  9  5  1  0  0  0
 42 37  1  0  0  0
 20 16  1  0  0  0
 30 33  1  0  0  0
 30 34  1  0  0  0
 32 35  1  0  0  0
 28 29  1  0  0  0
  2 23  1  0  0  0
 13 24  1  0  0  0
M  END
> <minimizedAffinity>
-7.27670

> <CNNscore>
0.2210416198

> <CNNaffinity>
5.9347200394

> <CNN_VS>
1.3118201494

> <CNNaffinity_variance>
0.0512517467

$$$$
[H]N=C(N([H])[H])N([H])C([H])([H])C([H])([H])C([H])([H])[C@@]1([H])C(=O)N2C([H])([H])C([H])([H])C([H])([H])[C@@]2([H])C(=O)N([H])[C@]([H])(C([H])([H])c2c([H])c([H])c([H])c([H])c2[H])C(=O)N2C([H])([H])C([H])([H])C([H])([H])[C@@]2([H])C(=O)N1[H]


 42 45  0  0  0  0  0  0  0  0999 V2000
  153.6110  136.9897  184.9770 C   0  0  0  0  0  0  0  0  0  0  0  0
  152.4450  136.2209  185.3432 N   0  0  0  0  0  0  0  0  0  0  0  0
  152.3043  134.8309  185.1235 C   0  0  0  0  0  0  0  0  0  0  0  0
  151.2639  134.3581  184.6075 O   0  0  0  0  0  0  0  0  0  0  0  0
  153.3536  133.8102  185.4754 C   0  0  0  0  0  0  0  0  0  0  0  0
  153.9271  133.1185  184.2993 C   0  0  0  0  0  0  0  0  0  0  0  0
  153.4514  131.6930  184.3594 C   0  0  0  0  0  0  0  0  0  0  0  0
  152.3593  131.6999  185.4091 C   0  0  0  0  0  0  0  0  0  0  0  0
  152.7405  132.7651  186.3177 N   0  0  0  0  0  0  0  0  0  0  0  0
  152.5788  132.8907  187.7119 C   0  0  0  0  0  0  0  0  0  0  0  0
  151.3716  132.7521  188.1670 O   0  0  0  0  0  0  0  0  0  0  0  0
  153.6248  133.1640  188.7421 C   0  0  0  0  0  0  0  0  0  0  0  0
  153.6190  134.4679  189.2964 N   0  0  0  0  0  0  0  0  0  0  0  0
  153.5923  135.7558  188.7923 C   0  0  0  0  0  0  0  0  0  0  0  0
  152.4779  136.4117  188.9138 O   0  0  0  0  0  0  0  0  0  0  0  0
  154.6460  136.5515  188.1185 C   0  0  0  0  0  0  0  0  0  0  0  0
  155.5267  137.2471  189.1845 C   0  0  0  0  0  0  0  0  0  0  0  0
  154.7076  138.4484  189.5931 C   0  0  0  0  0  0  0  0  0  0  0  0
  153.8379  138.6997  188.4095 C   0  0  0  0  0  0  0  0  0  0  0  0
  154.1948  137.6929  187.3969 N   0  0  0  0  0  0  0  0  0  0  0  0
  154.1436  137.8748  185.9967 C   0  0  0  0  0  0  0  0  0  0  0  0
  154.6344  138.9808  185.5126 O   0  0  0  0  0  0  0  0  0  0  0  0
  151.6655  136.7415  185.7931 H   0  0  0  0  0  0  0  0  0  0  0  0
  153.6149  134.4687  190.4032 H   0  0  0  0  0  0  0  0  0  0  0  0
  153.2011  137.7943  183.7281 C   0  0  0  0  0  0  0  0  0  0  0  0
  151.7231  137.5840  183.4438 C   0  0  0  0  0  0  0  0  0  0  0  0
  151.4870  137.2753  181.9890 C   0  0  0  0  0  0  0  0  0  0  0  0
  151.1214  135.9072  181.7160 N   0  0  0  0  0  0  0  0  0  0  0  0
  150.0812  135.6471  181.6155 H   0  0  0  0  0  0  0  0  0  0  0  0
  151.5361  133.4871  181.6499 N   0  0  0  0  0  0  0  0  0  0  0  0
  151.9940  134.8130  181.5566 C   0  0  0  0  0  0  0  0  0  0  0  0
  153.2548  134.9975  181.3191 N   0  0  0  0  0  0  0  0  0  0  0  0
  151.5180  132.8515  180.7963 H   0  0  0  0  0  0  0  0  0  0  0  0
  151.1878  133.0257  182.5202 H   0  0  0  0  0  0  0  0  0  0  0  0
  153.9321  134.2149  181.1954 H   0  0  0  0  0  0  0  0  0  0  0  0
  154.9303  132.5214  188.4098 C   0  0  0  0  0  0  0  0  0  0  0  0
  156.0468  132.8618  189.3013 C   0  0  0  0  0  0  0  0  0  0  0  0
  157.0681  133.7358  188.9240 C   0  0  0  0  0  0  0  0  0  0  0  0
  158.0828  134.0612  189.7957 C   0  0  0  0  0  0  0  0  0  0  0  0
  158.1357  133.5343  191.0907 C   0  0  0  0  0  0  0  0  0  0  0  0
  157.1268  132.6744  191.4555 C   0  0  0  0  0  0  0  0  0  0  0  0
  156.1211  132.3621  190.5678 C   0  0  0  0  0  0  0  0  0  0  0  0
 30 31  1  0  0  0
 31 32  2  0  0  0
 31 28  1  0  0  0
 28 27  1  0  0  0
 27 26  1  0  0  0
 26 25  1  0  0  0
 25  1  1  0  0  0
  1  2  1  0  0  0
  2  3  1  0  0  0
  3  4  2  0  0  0
  3  5  1  0  0  0
  5  6  1  0  0  0
  6  7  1  0  0  0
  7  8  1  0  0  0
  8  9  1  0  0  0
  9 10  1  0  0  0
 10 11  2  0  0  0
 10 12  1  0  0  0
 12 36  1  0  0  0
 36 37  1  0  0  0
 37 38  2  0  0  0
 38 39  1  0  0  0
 39 40  2  0  0  0
 40 41  1  0  0  0
 41 42  2  0  0  0
 12 13  1  0  0  0
 13 14  1  0  0  0
 14 15  2  0  0  0
 14 16  1  0  0  0
 16 17  1  0  0  0
 17 18  1  0  0  0
 18 19  1  0  0  0
 19 20  1  0  0  0
 20 21  1  0  0  0
 21 22  2  0  0  0
 21  1  1  0  0  0
  9  5  1  0  0  0
 42 37  1  0  0  0
 20 16  1  0  0  0
 30 33  1  0  0  0
 30 34  1  0  0  0
 32 35  1  0  0  0
 28 29  1  0  0  0
  2 23  1  0  0  0
 13 24  1  0  0  0
M  END
> <minimizedAffinity>
-4.06591

> <CNNscore>
0.2191109508

> <CNNaffinity>
5.3782138824

> <CNN_VS>
1.1784255505

> <CNNaffinity_variance>
0.3602307439

$$$$
[H]Oc1c([H])c([H])c([C@@]2([H])Sc3c([H])c(O[H])c([H])c([H])c3O[C@@]2([H])c2c([H])c([H])c(OC([H])([H])[C@@]([H])(N3C([H])([H])C([H])([H])OC([H])([H])C3([H])[H])C([H])([H])[H])c([H])c2[H])c([H])c1[H]


 36 40  0  0  0  0  0  0  0  0999 V2000
  157.9771  141.1762  183.1295 C   0  0  0  0  0  0  0  0  0  0  0  0
  159.3015  140.8354  183.3381 O   0  0  0  0  0  0  0  0  0  0  0  0
  160.2601  141.4491  184.0919 C   0  0  0  0  0  0  0  0  0  0  0  0
  161.5826  140.9867  183.9859 C   0  0  0  0  0  0  0  0  0  0  0  0
  162.5745  141.5646  184.7160 C   0  0  0  0  0  0  0  0  0  0  0  0
  162.3198  142.6016  185.5663 C   0  0  0  0  0  0  0  0  0  0  0  0
  163.3068  143.1993  186.3126 O   0  0  0  0  0  0  0  0  0  0  0  0
  160.9902  143.0502  185.6586 C   0  0  0  0  0  0  0  0  0  0  0  0
  159.9968  142.4875  184.9416 C   0  0  0  0  0  0  0  0  0  0  0  0
  158.3275  143.0473  185.0525 S   0  0  0  0  0  0  0  0  0  0  0  0
  157.6484  142.6044  183.4126 C   0  0  0  0  0  0  0  0  0  0  0  0
  163.4916  142.8201  187.2308 H   0  0  0  0  0  0  0  0  0  0  0  0
  156.2756  143.0156  183.2081 C   0  0  0  0  0  0  0  0  0  0  0  0
  155.9501  143.7495  182.0830 C   0  0  0  0  0  0  0  0  0  0  0  0
  154.6823  144.1978  181.8019 C   0  0  0  0  0  0  0  0  0  0  0  0
  153.6790  143.8970  182.6953 C   0  0  0  0  0  0  0  0  0  0  0  0
  152.3617  144.3308  182.4575 O   0  0  0  0  0  0  0  0  0  0  0  0
  153.9945  143.1661  183.8194 C   0  0  0  0  0  0  0  0  0  0  0  0
  155.2687  142.7197  184.0950 C   0  0  0  0  0  0  0  0  0  0  0  0
  151.7327  143.7187  181.9264 H   0  0  0  0  0  0  0  0  0  0  0  0
  155.3769  138.3140  185.0390 C   0  0  0  0  0  0  0  0  0  0  0  0
  156.4874  138.8176  185.6790 C   0  0  0  0  0  0  0  0  0  0  0  0
  157.3249  139.7305  185.0725 C   0  0  0  0  0  0  0  0  0  0  0  0
  157.0779  140.1853  183.7716 C   0  0  0  0  0  0  0  0  0  0  0  0
  155.9670  139.6749  183.1451 C   0  0  0  0  0  0  0  0  0  0  0  0
  155.1194  138.7480  183.7649 C   0  0  0  0  0  0  0  0  0  0  0  0
  154.5795  137.3984  185.7114 O   0  0  0  0  0  0  0  0  0  0  0  0
  154.1438  137.5304  187.0293 C   0  0  0  0  0  0  0  0  0  0  0  0
  154.2757  135.1973  187.7490 C   0  0  0  0  0  0  0  0  0  0  0  0
  154.9105  136.5439  187.8774 C   0  0  0  0  0  0  0  0  0  0  0  0
  155.0538  136.9196  189.2352 N   0  0  0  0  0  0  0  0  0  0  0  0
  154.9225  138.3116  189.5080 C   0  0  0  0  0  0  0  0  0  0  0  0
  155.4549  138.5493  190.9271 C   0  0  0  0  0  0  0  0  0  0  0  0
  155.9532  137.3756  191.4827 O   0  0  0  0  0  0  0  0  0  0  0  0
  154.9379  136.4232  191.5632 C   0  0  0  0  0  0  0  0  0  0  0  0
  154.3463  136.1230  190.1835 C   0  0  0  0  0  0  0  0  0  0  0  0
 29 30  1  0  0  0
 30 28  1  0  0  0
 28 27  1  0  0  0
 27 21  1  0  0  0
 21 22  2  0  0  0
 22 23  1  0  0  0
 23 24  2  0  0  0
 24 25  1  0  0  0
 25 26  2  0  0  0
 24  1  1  0  0  0
  1  2  1  0  0  0
  2  3  1  0  0  0
  3  4  2  0  0  0
  4  5  1  0  0  0
  5  6  2  0  0  0
  6  7  1  0  0  0
  6  8  1  0  0  0
  8  9  2  0  0  0
  9 10  1  0  0  0
 10 11  1  0  0  0
 11 13  1  0  0  0
 13 14  2  0  0  0
 14 15  1  0  0  0
 15 16  2  0  0  0
 16 17  1  0  0  0
 16 18  1  0  0  0
 18 19  2  0  0  0
 30 31  1  0  0  0
 31 32  1  0  0  0
 32 33  1  0  0  0
 33 34  1  0  0  0
 34 35  1  0  0  0
 35 36  1  0  0  0
 26 21  1  0  0  0
 11  1  1  0  0  0
 19 13  1  0  0  0
 36 31  1  0  0  0
  9  3  1  0  0  0
  7 12  1  0  0  0
 17 20  1  0  0  0
M  END
> <minimizedAffinity>
-3.66288

> <CNNscore>
0.2403217405

> <CNNaffinity>
6.5882062912

> <CNN_VS>
1.5832891464

> <CNNaffinity_variance>
0.3209216595

$$$$
[H]Oc1c([H])c([H])c([C@@]2([H])Sc3c([H])c(O[H])c([H])c([H])c3O[C@@]2([H])c2c([H])c([H])c(OC([H])([H])[C@@]([H])(N3C([H])([H])C([H])([H])OC([H])([H])C3([H])[H])C([H])([H])[H])c([H])c2[H])c([H])c1[H]


 36 40  0  0  0  0  0  0  0  0999 V2000
  153.8473  140.8826  183.5504 C   0  0  0  0  0  0  0  0  0  0  0  0
  154.3408  142.0741  183.0499 O   0  0  0  0  0  0  0  0  0  0  0  0
  155.6200  142.4352  182.7383 C   0  0  0  0  0  0  0  0  0  0  0  0
  155.8678  143.7789  182.4111 C   0  0  0  0  0  0  0  0  0  0  0  0
  157.1252  144.1894  182.0931 C   0  0  0  0  0  0  0  0  0  0  0  0
  158.1761  143.3183  182.0817 C   0  0  0  0  0  0  0  0  0  0  0  0
  159.4536  143.7122  181.7634 O   0  0  0  0  0  0  0  0  0  0  0  0
  157.9081  141.9778  182.4118 C   0  0  0  0  0  0  0  0  0  0  0  0
  156.6675  141.5563  182.7290 C   0  0  0  0  0  0  0  0  0  0  0  0
  156.3261  139.8763  183.1453 S   0  0  0  0  0  0  0  0  0  0  0  0
  154.8610  140.0240  184.2309 C   0  0  0  0  0  0  0  0  0  0  0  0
  159.7279  143.6650  180.7921 H   0  0  0  0  0  0  0  0  0  0  0  0
  154.3970  138.7659  184.7758 C   0  0  0  0  0  0  0  0  0  0  0  0
  153.6682  138.7655  185.9501 C   0  0  0  0  0  0  0  0  0  0  0  0
  153.1927  137.6276  186.5556 C   0  0  0  0  0  0  0  0  0  0  0  0
  153.4594  136.4179  185.9549 C   0  0  0  0  0  0  0  0  0  0  0  0
  152.9967  135.2206  186.5313 O   0  0  0  0  0  0  0  0  0  0  0  0
  154.1852  136.4090  184.7843 C   0  0  0  0  0  0  0  0  0  0  0  0
  154.6592  137.5545  184.1826 C   0  0  0  0  0  0  0  0  0  0  0  0
  152.0719  134.8707  186.2579 H   0  0  0  0  0  0  0  0  0  0  0  0
  151.4196  138.8600  180.6154 C   0  0  0  0  0  0  0  0  0  0  0  0
  151.4312  138.4669  181.9352 C   0  0  0  0  0  0  0  0  0  0  0  0
  152.2081  139.1074  182.8779 C   0  0  0  0  0  0  0  0  0  0  0  0
  153.0226  140.1912  182.5284 C   0  0  0  0  0  0  0  0  0  0  0  0
  153.0012  140.5726  181.2089 C   0  0  0  0  0  0  0  0  0  0  0  0
  152.2107  139.9193  180.2549 C   0  0  0  0  0  0  0  0  0  0  0  0
  150.6129  138.1686  179.7223 O   0  0  0  0  0  0  0  0  0  0  0  0
  149.4289  138.6550  179.1693 C   0  0  0  0  0  0  0  0  0  0  0  0
  147.1336  137.9503  178.7070 C   0  0  0  0  0  0  0  0  0  0  0  0
  148.2981  137.7639  179.6246 C   0  0  0  0  0  0  0  0  0  0  0  0
  147.9208  137.9348  180.9787 N   0  0  0  0  0  0  0  0  0  0  0  0
  147.7897  139.2837  181.4178 C   0  0  0  0  0  0  0  0  0  0  0  0
  147.7352  139.2599  182.9508 C   0  0  0  0  0  0  0  0  0  0  0  0
  147.8914  137.9680  183.4417 O   0  0  0  0  0  0  0  0  0  0  0  0
  146.8630  137.1549  182.9668 C   0  0  0  0  0  0  0  0  0  0  0  0
  146.8434  137.1197  181.4364 C   0  0  0  0  0  0  0  0  0  0  0  0
 29 30  1  0  0  0
 30 28  1  0  0  0
 28 27  1  0  0  0
 27 21  1  0  0  0
 21 22  2  0  0  0
 22 23  1  0  0  0
 23 24  2  0  0  0
 24 25  1  0  0  0
 25 26  2  0  0  0
 24  1  1  0  0  0
  1  2  1  0  0  0
  2  3  1  0  0  0
  3  4  2  0  0  0
  4  5  1  0  0  0
  5  6  2  0  0  0
  6  7  1  0  0  0
  6  8  1  0  0  0
  8  9  2  0  0  0
  9 10  1  0  0  0
 10 11  1  0  0  0
 11 13  1  0  0  0
 13 14  2  0  0  0
 14 15  1  0  0  0
 15 16  2  0  0  0
 16 17  1  0  0  0
 16 18  1  0  0  0
 18 19  2  0  0  0
 30 31  1  0  0  0
 31 32  1  0  0  0
 32 33  1  0  0  0
 33 34  1  0  0  0
 34 35  1  0  0  0
 35 36  1  0  0  0
 26 21  1  0  0  0
 11  1  1  0  0  0
 19 13  1  0  0  0
 36 31  1  0  0  0
  9  3  1  0  0  0
  7 12  1  0  0  0
 17 20  1  0  0  0
M  END
> <minimizedAffinity>
-7.15241

> <CNNscore>
0.1775365025

> <CNNaffinity>
5.8615865707

> <CNN_VS>
1.0406455994

> <CNNaffinity_variance>
0.2090814561

$$$$
[H]Oc1c([H])c([H])c([C@@]2([H])Sc3c([H])c(O[H])c([H])c([H])c3O[C@@]2([H])c2c([H])c([H])c(OC([H])([H])[C@@]([H])(N3C([H])([H])C([H])([H])OC([H])([H])C3([H])[H])C([H])([H])[H])c([H])c2[H])c([H])c1[H]


 36 40  0  0  0  0  0  0  0  0999 V2000
  153.7537  138.1600  186.5159 C   0  0  0  0  0  0  0  0  0  0  0  0
  154.0814  138.6263  187.7763 O   0  0  0  0  0  0  0  0  0  0  0  0
  154.7240  138.0018  188.8063 C   0  0  0  0  0  0  0  0  0  0  0  0
  154.7705  138.6534  190.0502 C   0  0  0  0  0  0  0  0  0  0  0  0
  155.3988  138.0731  191.1082 C   0  0  0  0  0  0  0  0  0  0  0  0
  155.9982  136.8518  190.9969 C   0  0  0  0  0  0  0  0  0  0  0  0
  156.6380  136.2483  192.0527 O   0  0  0  0  0  0  0  0  0  0  0  0
  155.9410  136.2155  189.7440 C   0  0  0  0  0  0  0  0  0  0  0  0
  155.3221  136.7780  188.6867 C   0  0  0  0  0  0  0  0  0  0  0  0
  155.2462  135.9835  187.1134 S   0  0  0  0  0  0  0  0  0  0  0  0
  153.7130  136.6731  186.3917 C   0  0  0  0  0  0  0  0  0  0  0  0
  157.6223  136.4415  192.1738 H   0  0  0  0  0  0  0  0  0  0  0  0
  153.3724  136.1312  185.0934 C   0  0  0  0  0  0  0  0  0  0  0  0
  154.3174  135.4029  184.3957 C   0  0  0  0  0  0  0  0  0  0  0  0
  154.0995  134.8571  183.1539 C   0  0  0  0  0  0  0  0  0  0  0  0
  152.8663  135.0486  182.5727 C   0  0  0  0  0  0  0  0  0  0  0  0
  152.5882  134.5118  181.3021 O   0  0  0  0  0  0  0  0  0  0  0  0
  151.9185  135.7734  183.2609 C   0  0  0  0  0  0  0  0  0  0  0  0
  152.1442  136.3181  184.5064 C   0  0  0  0  0  0  0  0  0  0  0  0
  152.1919  133.5672  181.2454 H   0  0  0  0  0  0  0  0  0  0  0  0
  156.1236  140.1500  183.5121 C   0  0  0  0  0  0  0  0  0  0  0  0
  156.7079  139.4879  184.5687 C   0  0  0  0  0  0  0  0  0  0  0  0
  155.9555  138.8526  185.5345 C   0  0  0  0  0  0  0  0  0  0  0  0
  154.5565  138.8553  185.4792 C   0  0  0  0  0  0  0  0  0  0  0  0
  153.9870  139.5194  184.4201 C   0  0  0  0  0  0  0  0  0  0  0  0
  154.7550  140.1631  183.4416 C   0  0  0  0  0  0  0  0  0  0  0  0
  156.9438  140.7668  182.5777 O   0  0  0  0  0  0  0  0  0  0  0  0
  158.3227  140.9298  182.7051 C   0  0  0  0  0  0  0  0  0  0  0  0
  158.8230  143.2597  182.1573 C   0  0  0  0  0  0  0  0  0  0  0  0
  158.5814  142.3024  183.2789 C   0  0  0  0  0  0  0  0  0  0  0  0
  159.6239  142.3548  184.2359 N   0  0  0  0  0  0  0  0  0  0  0  0
  159.2523  142.0301  185.5723 C   0  0  0  0  0  0  0  0  0  0  0  0
  160.3978  142.4847  186.4862 C   0  0  0  0  0  0  0  0  0  0  0  0
  161.4006  143.1196  185.7612 O   0  0  0  0  0  0  0  0  0  0  0  0
  161.9317  142.2394  184.8192 C   0  0  0  0  0  0  0  0  0  0  0  0
  160.8514  141.7335  183.8596 C   0  0  0  0  0  0  0  0  0  0  0  0
 29 30  1  0  0  0
 30 28  1  0  0  0
 28 27  1  0  0  0
 27 21  1  0  0  0
 21 22  2  0  0  0
 22 23  1  0  0  0
 23 24  2  0  0  0
 24 25  1  0  0  0
 25 26  2  0  0  0
 24  1  1  0  0  0
  1  2  1  0  0  0
  2  3  1  0  0  0
  3  4  2  0  0  0
  4  5  1  0  0  0
  5  6  2  0  0  0
  6  7  1  0  0  0
  6  8  1  0  0  0
  8  9  2  0  0  0
  9 10  1  0  0  0
 10 11  1  0  0  0
 11 13  1  0  0  0
 13 14  2  0  0  0
 14 15  1  0  0  0
 15 16  2  0  0  0
 16 17  1  0  0  0
 16 18  1  0  0  0
 18 19  2  0  0  0
 30 31  1  0  0  0
 31 32  1  0  0  0
 32 33  1  0  0  0
 33 34  1  0  0  0
 34 35  1  0  0  0
 35 36  1  0  0  0
 26 21  1  0  0  0
 11  1  1  0  0  0
 19 13  1  0  0  0
 36 31  1  0  0  0
  9  3  1  0  0  0
  7 12  1  0  0  0
 17 20  1  0  0  0
M  END
> <minimizedAffinity>
-8.65748

> <CNNscore>
0.1744603664

> <CNNaffinity>
6.1641016006

> <CNN_VS>
1.0753914118

> <CNNaffinity_variance>
0.0833307207

$$$$
[H]Oc1c([H])c([H])c([C@@]2([H])Sc3c([H])c(O[H])c([H])c([H])c3O[C@@]2([H])c2c([H])c([H])c(OC([H])([H])[C@@]([H])(N3C([H])([H])C([H])([H])OC([H])([H])C3([H])[H])C([H])([H])[H])c([H])c2[H])c([H])c1[H]


 36 40  0  0  0  0  0  0  0  0999 V2000
  154.0249  140.8362  183.5926 C   0  0  0  0  0  0  0  0  0  0  0  0
  154.5522  141.9675  182.9963 O   0  0  0  0  0  0  0  0  0  0  0  0
  155.8292  142.2376  182.5961 C   0  0  0  0  0  0  0  0  0  0  0  0
  156.1293  143.5446  182.1766 C   0  0  0  0  0  0  0  0  0  0  0  0
  157.3869  143.8647  181.7682 C   0  0  0  0  0  0  0  0  0  0  0  0
  158.3875  142.9364  181.7529 C   0  0  0  0  0  0  0  0  0  0  0  0
  159.6642  143.2388  181.3441 O   0  0  0  0  0  0  0  0  0  0  0  0
  158.0676  141.6340  182.1762 C   0  0  0  0  0  0  0  0  0  0  0  0
  156.8261  141.3019  182.5835 C   0  0  0  0  0  0  0  0  0  0  0  0
  156.4198  139.6702  183.1170 S   0  0  0  0  0  0  0  0  0  0  0  0
  155.0282  139.9617  184.2682 C   0  0  0  0  0  0  0  0  0  0  0  0
  159.8804  143.1213  180.3641 H   0  0  0  0  0  0  0  0  0  0  0  0
  154.5293  138.7646  184.9112 C   0  0  0  0  0  0  0  0  0  0  0  0
  153.7695  138.8808  186.0599 C   0  0  0  0  0  0  0  0  0  0  0  0
  153.2595  137.8091  186.7520 C   0  0  0  0  0  0  0  0  0  0  0  0
  153.5224  136.5464  186.2706 C   0  0  0  0  0  0  0  0  0  0  0  0
  153.0249  135.4128  186.9394 O   0  0  0  0  0  0  0  0  0  0  0  0
  154.2789  136.4213  185.1263 C   0  0  0  0  0  0  0  0  0  0  0  0
  154.7874  137.5009  184.4373 C   0  0  0  0  0  0  0  0  0  0  0  0
  152.1021  135.0524  186.6729 H   0  0  0  0  0  0  0  0  0  0  0  0
  151.3358  138.7835  180.9177 C   0  0  0  0  0  0  0  0  0  0  0  0
  151.5541  138.3373  182.2022 C   0  0  0  0  0  0  0  0  0  0  0  0
  152.4155  138.9873  183.0613 C   0  0  0  0  0  0  0  0  0  0  0  0
  153.1082  140.1356  182.6590 C   0  0  0  0  0  0  0  0  0  0  0  0
  152.8810  140.5695  181.3756 C   0  0  0  0  0  0  0  0  0  0  0  0
  152.0054  139.9063  180.5066 C   0  0  0  0  0  0  0  0  0  0  0  0
  150.4549  138.0787  180.1093 O   0  0  0  0  0  0  0  0  0  0  0  0
  149.6880  136.9887  180.5188 C   0  0  0  0  0  0  0  0  0  0  0  0
  147.4215  137.6639  181.1403 C   0  0  0  0  0  0  0  0  0  0  0  0
  148.2796  137.1898  180.0125 C   0  0  0  0  0  0  0  0  0  0  0  0
  147.7150  136.0588  179.3745 N   0  0  0  0  0  0  0  0  0  0  0  0
  147.0258  135.1488  180.2267 C   0  0  0  0  0  0  0  0  0  0  0  0
  146.8115  133.8543  179.4317 C   0  0  0  0  0  0  0  0  0  0  0  0
  147.3965  133.9323  178.1723 O   0  0  0  0  0  0  0  0  0  0  0  0
  146.8215  134.9763  177.4485 C   0  0  0  0  0  0  0  0  0  0  0  0
  146.9902  136.3144  178.1728 C   0  0  0  0  0  0  0  0  0  0  0  0
 29 30  1  0  0  0
 30 28  1  0  0  0
 28 27  1  0  0  0
 27 21  1  0  0  0
 21 22  2  0  0  0
 22 23  1  0  0  0
 23 24  2  0  0  0
 24 25  1  0  0  0
 25 26  2  0  0  0
 24  1  1  0  0  0
  1  2  1  0  0  0
  2  3  1  0  0  0
  3  4  2  0  0  0
  4  5  1  0  0  0
  5  6  2  0  0  0
  6  7  1  0  0  0
  6  8  1  0  0  0
  8  9  2  0  0  0
  9 10  1  0  0  0
 10 11  1  0  0  0
 11 13  1  0  0  0
 13 14  2  0  0  0
 14 15  1  0  0  0
 15 16  2  0  0  0
 16 17  1  0  0  0
 16 18  1  0  0  0
 18 19  2  0  0  0
 30 31  1  0  0  0
 31 32  1  0  0  0
 32 33  1  0  0  0
 33 34  1  0  0  0
 34 35  1  0  0  0
 35 36  1  0  0  0
 26 21  1  0  0  0
 11  1  1  0  0  0
 19 13  1  0  0  0
 36 31  1  0  0  0
  9  3  1  0  0  0
  7 12  1  0  0  0
 17 20  1  0  0  0
M  END
> <minimizedAffinity>
-6.36813

> <CNNscore>
0.1520286202

> <CNNaffinity>
5.7478895187

> <CNN_VS>
0.8738437295

> <CNNaffinity_variance>
0.0902181566

$$$$
[H]Oc1c([H])c([H])c([C@@]2([H])Sc3c([H])c(O[H])c([H])c([H])c3O[C@@]2([H])c2c([H])c([H])c(OC([H])([H])[C@@]([H])(N3C([H])([H])C([H])([H])OC([H])([H])C3([H])[H])C([H])([H])[H])c([H])c2[H])c([H])c1[H]


 36 40  0  0  0  0  0  0  0  0999 V2000
  153.8984  138.0431  186.8674 C   0  0  0  0  0  0  0  0  0  0  0  0
  154.2499  138.5566  188.1028 O   0  0  0  0  0  0  0  0  0  0  0  0
  154.8889  137.9631  189.1533 C   0  0  0  0  0  0  0  0  0  0  0  0
  154.9633  138.6674  190.3667 C   0  0  0  0  0  0  0  0  0  0  0  0
  155.5893  138.1198  191.4432 C   0  0  0  0  0  0  0  0  0  0  0  0
  156.1595  136.8811  191.3802 C   0  0  0  0  0  0  0  0  0  0  0  0
  156.7964  136.3098  192.4556 O   0  0  0  0  0  0  0  0  0  0  0  0
  156.0746  136.1919  190.1573 C   0  0  0  0  0  0  0  0  0  0  0  0
  155.4577  136.7217  189.0820 C   0  0  0  0  0  0  0  0  0  0  0  0
  155.3471  135.8609  187.5462 S   0  0  0  0  0  0  0  0  0  0  0  0
  153.8226  136.5536  186.8094 C   0  0  0  0  0  0  0  0  0  0  0  0
  157.7861  136.4853  192.5587 H   0  0  0  0  0  0  0  0  0  0  0  0
  153.4561  135.9633  185.5395 C   0  0  0  0  0  0  0  0  0  0  0  0
  152.1587  136.0958  185.0818 C   0  0  0  0  0  0  0  0  0  0  0  0
  151.7065  135.5644  183.8983 C   0  0  0  0  0  0  0  0  0  0  0  0
  152.6006  134.8589  183.1248 C   0  0  0  0  0  0  0  0  0  0  0  0
  152.1918  134.2930  181.9031 O   0  0  0  0  0  0  0  0  0  0  0  0
  153.8956  134.7219  183.5734 C   0  0  0  0  0  0  0  0  0  0  0  0
  154.3422  135.2576  184.7619 C   0  0  0  0  0  0  0  0  0  0  0  0
  152.2782  134.8554  181.0495 H   0  0  0  0  0  0  0  0  0  0  0  0
  156.2827  139.8464  183.7589 C   0  0  0  0  0  0  0  0  0  0  0  0
  156.8595  139.2988  184.8831 C   0  0  0  0  0  0  0  0  0  0  0  0
  156.1023  138.7239  185.8824 C   0  0  0  0  0  0  0  0  0  0  0  0
  154.7060  138.6735  185.7934 C   0  0  0  0  0  0  0  0  0  0  0  0
  154.1440  139.2232  184.6669 C   0  0  0  0  0  0  0  0  0  0  0  0
  154.9169  139.8060  183.6547 C   0  0  0  0  0  0  0  0  0  0  0  0
  157.1075  140.4079  182.7941 O   0  0  0  0  0  0  0  0  0  0  0  0
  158.2981  139.8479  182.3327 C   0  0  0  0  0  0  0  0  0  0  0  0
  159.5125  141.3599  183.8220 C   0  0  0  0  0  0  0  0  0  0  0  0
  159.3729  140.9061  182.4052 C   0  0  0  0  0  0  0  0  0  0  0  0
  159.1821  142.0017  181.5286 N   0  0  0  0  0  0  0  0  0  0  0  0
  158.4792  141.7135  180.3236 C   0  0  0  0  0  0  0  0  0  0  0  0
  158.6890  142.9038  179.3786 C   0  0  0  0  0  0  0  0  0  0  0  0
  159.5341  143.8535  179.9427 O   0  0  0  0  0  0  0  0  0  0  0  0
  158.9751  144.3410  181.1234 C   0  0  0  0  0  0  0  0  0  0  0  0
  158.7310  143.2139  182.1302 C   0  0  0  0  0  0  0  0  0  0  0  0
 29 30  1  0  0  0
 30 28  1  0  0  0
 28 27  1  0  0  0
 27 21  1  0  0  0
 21 22  2  0  0  0
 22 23  1  0  0  0
 23 24  2  0  0  0
 24 25  1  0  0  0
 25 26  2  0  0  0
 24  1  1  0  0  0
  1  2  1  0  0  0
  2  3  1  0  0  0
  3  4  2  0  0  0
  4  5  1  0  0  0
  5  6  2  0  0  0
  6  7  1  0  0  0
  6  8  1  0  0  0
  8  9  2  0  0  0
  9 10  1  0  0  0
 10 11  1  0  0  0
 11 13  1  0  0  0
 13 14  2  0  0  0
 14 15  1  0  0  0
 15 16  2  0  0  0
 16 17  1  0  0  0
 16 18  1  0  0  0
 18 19  2  0  0  0
 30 31  1  0  0  0
 31 32  1  0  0  0
 32 33  1  0  0  0
 33 34  1  0  0  0
 34 35  1  0  0  0
 35 36  1  0  0  0
 26 21  1  0  0  0
 11  1  1  0  0  0
 19 13  1  0  0  0
 36 31  1  0  0  0
  9  3  1  0  0  0
  7 12  1  0  0  0
 17 20  1  0  0  0
M  END
> <minimizedAffinity>
-8.51907

> <CNNscore>
0.1481529325

> <CNNaffinity>
5.9064259529

> <CNN_VS>
0.8750542998

> <CNNaffinity_variance>
0.0947329253

$$$$
[H]Oc1c([H])c([H])c([C@@]2([H])Sc3c([H])c(O[H])c([H])c([H])c3O[C@@]2([H])c2c([H])c([H])c(OC([H])([H])[C@@]([H])(N3C([H])([H])C([H])([H])OC([H])([H])C3([H])[H])C([H])([H])[H])c([H])c2[H])c([H])c1[H]


 36 40  0  0  0  0  0  0  0  0999 V2000
  157.9790  141.1678  183.1297 C   0  0  0  0  0  0  0  0  0  0  0  0
  159.3026  140.8273  183.3435 O   0  0  0  0  0  0  0  0  0  0  0  0
  160.2606  141.4464  184.0939 C   0  0  0  0  0  0  0  0  0  0  0  0
  161.5828  140.9817  183.9943 C   0  0  0  0  0  0  0  0  0  0  0  0
  162.5739  141.5647  184.7213 C   0  0  0  0  0  0  0  0  0  0  0  0
  162.3188  142.6091  185.5623 C   0  0  0  0  0  0  0  0  0  0  0  0
  163.3051  143.2120  186.3054 O   0  0  0  0  0  0  0  0  0  0  0  0
  160.9894  143.0599  185.6484 C   0  0  0  0  0  0  0  0  0  0  0  0
  159.9968  142.4922  184.9343 C   0  0  0  0  0  0  0  0  0  0  0  0
  158.3280  143.0547  185.0374 S   0  0  0  0  0  0  0  0  0  0  0  0
  157.6513  142.5987  183.4000 C   0  0  0  0  0  0  0  0  0  0  0  0
  163.4877  142.8404  187.2271 H   0  0  0  0  0  0  0  0  0  0  0  0
  156.2794  143.0096  183.1896 C   0  0  0  0  0  0  0  0  0  0  0  0
  155.9551  143.7263  182.0532 C   0  0  0  0  0  0  0  0  0  0  0  0
  154.6881  144.1730  181.7654 C   0  0  0  0  0  0  0  0  0  0  0  0
  153.6845  143.8884  182.6638 C   0  0  0  0  0  0  0  0  0  0  0  0
  152.3681  144.3213  182.4197 O   0  0  0  0  0  0  0  0  0  0  0  0
  153.9988  143.1747  183.7991 C   0  0  0  0  0  0  0  0  0  0  0  0
  155.2722  142.7299  184.0813 C   0  0  0  0  0  0  0  0  0  0  0  0
  151.7375  143.7023  181.8985 H   0  0  0  0  0  0  0  0  0  0  0  0
  155.3464  138.2906  184.9708 C   0  0  0  0  0  0  0  0  0  0  0  0
  155.1142  138.7702  183.7010 C   0  0  0  0  0  0  0  0  0  0  0  0
  155.9504  139.6931  183.1080 C   0  0  0  0  0  0  0  0  0  0  0  0
  157.0775  140.1833  183.7784 C   0  0  0  0  0  0  0  0  0  0  0  0
  157.2971  139.6964  185.0440 C   0  0  0  0  0  0  0  0  0  0  0  0
  156.4453  138.7593  185.6422 C   0  0  0  0  0  0  0  0  0  0  0  0
  154.4622  137.3629  185.5037 O   0  0  0  0  0  0  0  0  0  0  0  0
  154.4885  136.8922  186.8159 C   0  0  0  0  0  0  0  0  0  0  0  0
  154.0109  138.5167  188.5800 C   0  0  0  0  0  0  0  0  0  0  0  0
  153.3919  137.5886  187.5857 C   0  0  0  0  0  0  0  0  0  0  0  0
  152.4598  136.7188  188.2021 N   0  0  0  0  0  0  0  0  0  0  0  0
  152.1345  135.5419  187.4684 C   0  0  0  0  0  0  0  0  0  0  0  0
  150.8806  134.9363  188.1124 C   0  0  0  0  0  0  0  0  0  0  0  0
  150.4120  135.7326  189.1520 O   0  0  0  0  0  0  0  0  0  0  0  0
  151.3887  135.8403  190.1413 C   0  0  0  0  0  0  0  0  0  0  0  0
  152.6821  136.4397  189.5832 C   0  0  0  0  0  0  0  0  0  0  0  0
 29 30  1  0  0  0
 30 28  1  0  0  0
 28 27  1  0  0  0
 27 21  1  0  0  0
 21 22  2  0  0  0
 22 23  1  0  0  0
 23 24  2  0  0  0
 24 25  1  0  0  0
 25 26  2  0  0  0
 24  1  1  0  0  0
  1  2  1  0  0  0
  2  3  1  0  0  0
  3  4  2  0  0  0
  4  5  1  0  0  0
  5  6  2  0  0  0
  6  7  1  0  0  0
  6  8  1  0  0  0
  8  9  2  0  0  0
  9 10  1  0  0  0
 10 11  1  0  0  0
 11 13  1  0  0  0
 13 14  2  0  0  0
 14 15  1  0  0  0
 15 16  2  0  0  0
 16 17  1  0  0  0
 16 18  1  0  0  0
 18 19  2  0  0  0
 30 31  1  0  0  0
 31 32  1  0  0  0
 32 33  1  0  0  0
 33 34  1  0  0  0
 34 35  1  0  0  0
 35 36  1  0  0  0
 26 21  1  0  0  0
 11  1  1  0  0  0
 19 13  1  0  0  0
 36 31  1  0  0  0
  9  3  1  0  0  0
  7 12  1  0  0  0
 17 20  1  0  0  0
M  END
> <minimizedAffinity>
-3.30128

> <CNNscore>
0.1473606527

> <CNNaffinity>
6.3334522247

> <CNN_VS>
0.9333016276

> <CNNaffinity_variance>
0.3865248561

$$$$
[H]Oc1c([H])c([H])c([C@@]2([H])Sc3c([H])c(O[H])c([H])c([H])c3O[C@@]2([H])c2c([H])c([H])c(OC([H])([H])[C@@]([H])(N3C([H])([H])C([H])([H])OC([H])([H])C3([H])[H])C([H])([H])[H])c([H])c2[H])c([H])c1[H]


 36 40  0  0  0  0  0  0  0  0999 V2000
  153.2491  136.7363  183.8061 C   0  0  0  0  0  0  0  0  0  0  0  0
  152.5744  136.1911  182.7285 O   0  0  0  0  0  0  0  0  0  0  0  0
  151.2661  135.8209  182.6050 C   0  0  0  0  0  0  0  0  0  0  0  0
  150.8816  135.1237  181.4474 C   0  0  0  0  0  0  0  0  0  0  0  0
  149.5898  134.7326  181.2766 C   0  0  0  0  0  0  0  0  0  0  0  0
  148.6353  135.0019  182.2144 C   0  0  0  0  0  0  0  0  0  0  0  0
  147.3253  134.6160  182.0614 O   0  0  0  0  0  0  0  0  0  0  0  0
  149.0396  135.7006  183.3660 C   0  0  0  0  0  0  0  0  0  0  0  0
  150.3157  136.0946  183.5492 C   0  0  0  0  0  0  0  0  0  0  0  0
  150.8285  136.9699  184.9925 S   0  0  0  0  0  0  0  0  0  0  0  0
  152.5949  136.5140  185.1292 C   0  0  0  0  0  0  0  0  0  0  0  0
  146.6993  135.2623  181.6017 H   0  0  0  0  0  0  0  0  0  0  0  0
  153.2609  137.0620  186.2917 C   0  0  0  0  0  0  0  0  0  0  0  0
  154.4449  136.4941  186.7228 C   0  0  0  0  0  0  0  0  0  0  0  0
  155.1483  136.9301  187.8195 C   0  0  0  0  0  0  0  0  0  0  0  0
  154.6415  137.9956  188.5288 C   0  0  0  0  0  0  0  0  0  0  0  0
  155.3205  138.4837  189.6605 O   0  0  0  0  0  0  0  0  0  0  0  0
  153.4619  138.5676  188.1063 C   0  0  0  0  0  0  0  0  0  0  0  0
  152.7616  138.1248  187.0052 C   0  0  0  0  0  0  0  0  0  0  0  0
  156.0202  139.2227  189.5309 H   0  0  0  0  0  0  0  0  0  0  0  0
  154.4080  140.8097  182.9916 C   0  0  0  0  0  0  0  0  0  0  0  0
  155.1453  140.0052  183.8316 C   0  0  0  0  0  0  0  0  0  0  0  0
  154.7780  138.7029  184.0990 C   0  0  0  0  0  0  0  0  0  0  0  0
  153.6319  138.1420  183.5227 C   0  0  0  0  0  0  0  0  0  0  0  0
  152.9061  138.9554  182.6869 C   0  0  0  0  0  0  0  0  0  0  0  0
  153.2828  140.2774  182.4183 C   0  0  0  0  0  0  0  0  0  0  0  0
  154.8382  142.1104  182.7688 O   0  0  0  0  0  0  0  0  0  0  0  0
  155.6777  142.8332  183.6155 C   0  0  0  0  0  0  0  0  0  0  0  0
  156.8033  143.5269  181.5587 C   0  0  0  0  0  0  0  0  0  0  0  0
  157.0166  142.9813  182.9333 C   0  0  0  0  0  0  0  0  0  0  0  0
  157.7979  141.8006  182.9045 N   0  0  0  0  0  0  0  0  0  0  0  0
  158.0641  141.2676  181.6105 C   0  0  0  0  0  0  0  0  0  0  0  0
  158.5937  139.8411  181.8062 C   0  0  0  0  0  0  0  0  0  0  0  0
  158.5938  139.4823  183.1500 O   0  0  0  0  0  0  0  0  0  0  0  0
  159.4200  140.3452  183.8690 C   0  0  0  0  0  0  0  0  0  0  0  0
  158.9614  141.7992  183.7297 C   0  0  0  0  0  0  0  0  0  0  0  0
 29 30  1  0  0  0
 30 28  1  0  0  0
 28 27  1  0  0  0
 27 21  1  0  0  0
 21 22  2  0  0  0
 22 23  1  0  0  0
 23 24  2  0  0  0
 24 25  1  0  0  0
 25 26  2  0  0  0
 24  1  1  0  0  0
  1  2  1  0  0  0
  2  3  1  0  0  0
  3  4  2  0  0  0
  4  5  1  0  0  0
  5  6  2  0  0  0
  6  7  1  0  0  0
  6  8  1  0  0  0
  8  9  2  0  0  0
  9 10  1  0  0  0
 10 11  1  0  0  0
 11 13  1  0  0  0
 13 14  2  0  0  0
 14 15  1  0  0  0
 15 16  2  0  0  0
 16 17  1  0  0  0
 16 18  1  0  0  0
 18 19  2  0  0  0
 30 31  1  0  0  0
 31 32  1  0  0  0
 32 33  1  0  0  0
 33 34  1  0  0  0
 34 35  1  0  0  0
 35 36  1  0  0  0
 26 21  1  0  0  0
 11  1  1  0  0  0
 19 13  1  0  0  0
 36 31  1  0  0  0
  9  3  1  0  0  0
  7 12  1  0  0  0
 17 20  1  0  0  0
M  END
> <minimizedAffinity>
-7.47125

> <CNNscore>
0.1289593726

> <CNNaffinity>
5.8890714645

> <CNN_VS>
0.7594509721

> <CNNaffinity_variance>
0.0618775859

$$$$
[H]Oc1c([H])c([H])c([C@@]2([H])Sc3c([H])c(O[H])c([H])c([H])c3O[C@@]2([H])c2c([H])c([H])c(OC([H])([H])[C@@]([H])(N3C([H])([H])C([H])([H])OC([H])([H])C3([H])[H])C([H])([H])[H])c([H])c2[H])c([H])c1[H]


 36 40  0  0  0  0  0  0  0  0999 V2000
  154.1721  136.8638  185.3218 C   0  0  0  0  0  0  0  0  0  0  0  0
  153.3511  136.4370  184.2935 O   0  0  0  0  0  0  0  0  0  0  0  0
  151.9912  136.3297  184.2397 C   0  0  0  0  0  0  0  0  0  0  0  0
  151.4206  135.6948  183.1237 C   0  0  0  0  0  0  0  0  0  0  0  0
  150.0704  135.5626  183.0226 C   0  0  0  0  0  0  0  0  0  0  0  0
  149.2348  136.0374  183.9919 C   0  0  0  0  0  0  0  0  0  0  0  0
  147.8686  135.9144  183.9093 O   0  0  0  0  0  0  0  0  0  0  0  0
  149.8247  136.6698  185.1010 C   0  0  0  0  0  0  0  0  0  0  0  0
  151.1608  136.8082  185.2150 C   0  0  0  0  0  0  0  0  0  0  0  0
  151.9060  137.5991  186.6047 S   0  0  0  0  0  0  0  0  0  0  0  0
  153.5533  136.8068  186.6789 C   0  0  0  0  0  0  0  0  0  0  0  0
  147.3596  136.6604  183.4563 H   0  0  0  0  0  0  0  0  0  0  0  0
  154.3705  137.2400  187.7924 C   0  0  0  0  0  0  0  0  0  0  0  0
  155.5122  136.5287  188.1100 C   0  0  0  0  0  0  0  0  0  0  0  0
  156.3481  136.8485  189.1524 C   0  0  0  0  0  0  0  0  0  0  0  0
  156.0271  137.9424  189.9242 C   0  0  0  0  0  0  0  0  0  0  0  0
  156.8477  138.3156  191.0045 O   0  0  0  0  0  0  0  0  0  0  0  0
  154.8909  138.6569  189.6148 C   0  0  0  0  0  0  0  0  0  0  0  0
  154.0569  138.3302  188.5676 C   0  0  0  0  0  0  0  0  0  0  0  0
  157.6152  138.9741  190.8320 H   0  0  0  0  0  0  0  0  0  0  0  0
  156.0659  140.6064  184.3189 C   0  0  0  0  0  0  0  0  0  0  0  0
  156.7110  139.6520  185.0735 C   0  0  0  0  0  0  0  0  0  0  0  0
  156.1095  138.4547  185.4006 C   0  0  0  0  0  0  0  0  0  0  0  0
  154.8087  138.1590  184.9755 C   0  0  0  0  0  0  0  0  0  0  0  0
  154.1771  139.1196  184.2236 C   0  0  0  0  0  0  0  0  0  0  0  0
  154.7918  140.3342  183.8938 C   0  0  0  0  0  0  0  0  0  0  0  0
  156.7334  141.7881  184.0285 O   0  0  0  0  0  0  0  0  0  0  0  0
  158.0817  142.0317  184.2871 C   0  0  0  0  0  0  0  0  0  0  0  0
  160.2973  141.2278  183.6364 C   0  0  0  0  0  0  0  0  0  0  0  0
  158.8914  141.4209  183.1684 C   0  0  0  0  0  0  0  0  0  0  0  0
  158.8474  142.1385  181.9485 N   0  0  0  0  0  0  0  0  0  0  0  0
  158.0139  141.5836  180.9352 C   0  0  0  0  0  0  0  0  0  0  0  0
  158.3750  142.2804  179.6169 C   0  0  0  0  0  0  0  0  0  0  0  0
  159.4255  143.1753  179.7900 O   0  0  0  0  0  0  0  0  0  0  0  0
  159.0600  144.1610  180.7060 C   0  0  0  0  0  0  0  0  0  0  0  0
  158.6820  143.5510  182.0583 C   0  0  0  0  0  0  0  0  0  0  0  0
 29 30  1  0  0  0
 30 28  1  0  0  0
 28 27  1  0  0  0
 27 21  1  0  0  0
 21 22  2  0  0  0
 22 23  1  0  0  0
 23 24  2  0  0  0
 24 25  1  0  0  0
 25 26  2  0  0  0
 24  1  1  0  0  0
  1  2  1  0  0  0
  2  3  1  0  0  0
  3  4  2  0  0  0
  4  5  1  0  0  0
  5  6  2  0  0  0
  6  7  1  0  0  0
  6  8  1  0  0  0
  8  9  2  0  0  0
  9 10  1  0  0  0
 10 11  1  0  0  0
 11 13  1  0  0  0
 13 14  2  0  0  0
 14 15  1  0  0  0
 15 16  2  0  0  0
 16 17  1  0  0  0
 16 18  1  0  0  0
 18 19  2  0  0  0
 30 31  1  0  0  0
 31 32  1  0  0  0
 32 33  1  0  0  0
 33 34  1  0  0  0
 34 35  1  0  0  0
 35 36  1  0  0  0
 26 21  1  0  0  0
 11  1  1  0  0  0
 19 13  1  0  0  0
 36 31  1  0  0  0
  9  3  1  0  0  0
  7 12  1  0  0  0
 17 20  1  0  0  0
M  END
> <minimizedAffinity>
-7.99962

> <CNNscore>
0.1277029514

> <CNNaffinity>
5.9171929359

> <CNN_VS>
0.7556430101

> <CNNaffinity_variance>
0.1268790960

$$$$
[H]Oc1c([H])c([H])c([C@@]2([H])Sc3c([H])c(O[H])c([H])c([H])c3O[C@@]2([H])c2c([H])c([H])c(OC([H])([H])[C@@]([H])(N3C([H])([H])C([H])([H])OC([H])([H])C3([H])[H])C([H])([H])[H])c([H])c2[H])c([H])c1[H]


 36 40  0  0  0  0  0  0  0  0999 V2000
  154.5149  140.5484  184.1363 C   0  0  0  0  0  0  0  0  0  0  0  0
  155.4407  141.4632  183.6678 O   0  0  0  0  0  0  0  0  0  0  0  0
  156.7983  141.3657  183.5612 C   0  0  0  0  0  0  0  0  0  0  0  0
  157.5199  142.5201  183.2137 C   0  0  0  0  0  0  0  0  0  0  0  0
  158.8744  142.4754  183.0947 C   0  0  0  0  0  0  0  0  0  0  0  0
  159.5692  141.3197  183.3067 C   0  0  0  0  0  0  0  0  0  0  0  0
  160.9369  141.2529  183.1917 O   0  0  0  0  0  0  0  0  0  0  0  0
  158.8293  140.1751  183.6536 C   0  0  0  0  0  0  0  0  0  0  0  0
  157.4870  140.2040  183.7753 C   0  0  0  0  0  0  0  0  0  0  0  0
  156.5543  138.7716  184.2116 S   0  0  0  0  0  0  0  0  0  0  0  0
  155.0790  139.4878  185.0223 C   0  0  0  0  0  0  0  0  0  0  0  0
  161.3180  141.0210  182.2850 H   0  0  0  0  0  0  0  0  0  0  0  0
  154.1522  138.5052  185.5429 C   0  0  0  0  0  0  0  0  0  0  0  0
  154.2831  137.1834  185.1607 C   0  0  0  0  0  0  0  0  0  0  0  0
  153.4503  136.1773  185.5871 C   0  0  0  0  0  0  0  0  0  0  0  0
  152.4261  136.5081  186.4454 C   0  0  0  0  0  0  0  0  0  0  0  0
  151.5432  135.5177  186.9138 O   0  0  0  0  0  0  0  0  0  0  0  0
  152.2883  137.8232  186.8314 C   0  0  0  0  0  0  0  0  0  0  0  0
  153.1274  138.8273  186.3996 C   0  0  0  0  0  0  0  0  0  0  0  0
  151.7777  135.0229  187.7814 H   0  0  0  0  0  0  0  0  0  0  0  0
  152.0243  139.0774  180.9375 C   0  0  0  0  0  0  0  0  0  0  0  0
  152.3083  138.3059  182.0423 C   0  0  0  0  0  0  0  0  0  0  0  0
  153.1071  138.7693  183.0670 C   0  0  0  0  0  0  0  0  0  0  0  0
  153.6656  140.0524  183.0248 C   0  0  0  0  0  0  0  0  0  0  0  0
  153.3741  140.8109  181.9172 C   0  0  0  0  0  0  0  0  0  0  0  0
  152.5625  140.3363  180.8791 C   0  0  0  0  0  0  0  0  0  0  0  0
  151.2128  138.5453  179.9452 O   0  0  0  0  0  0  0  0  0  0  0  0
  149.9866  139.0735  179.5434 C   0  0  0  0  0  0  0  0  0  0  0  0
  147.8882  138.1237  178.7229 C   0  0  0  0  0  0  0  0  0  0  0  0
  148.9221  138.0333  179.7980 C   0  0  0  0  0  0  0  0  0  0  0  0
  148.3349  138.0929  181.0852 N   0  0  0  0  0  0  0  0  0  0  0  0
  148.1230  139.4013  181.6074 C   0  0  0  0  0  0  0  0  0  0  0  0
  147.8284  139.2510  183.1055 C   0  0  0  0  0  0  0  0  0  0  0  0
  147.9182  137.9224  183.5071 O   0  0  0  0  0  0  0  0  0  0  0  0
  146.9854  137.1547  182.8109 C   0  0  0  0  0  0  0  0  0  0  0  0
  147.2070  137.2463  181.2989 C   0  0  0  0  0  0  0  0  0  0  0  0
 29 30  1  0  0  0
 30 28  1  0  0  0
 28 27  1  0  0  0
 27 21  1  0  0  0
 21 22  2  0  0  0
 22 23  1  0  0  0
 23 24  2  0  0  0
 24 25  1  0  0  0
 25 26  2  0  0  0
 24  1  1  0  0  0
  1  2  1  0  0  0
  2  3  1  0  0  0
  3  4  2  0  0  0
  4  5  1  0  0  0
  5  6  2  0  0  0
  6  7  1  0  0  0
  6  8  1  0  0  0
  8  9  2  0  0  0
  9 10  1  0  0  0
 10 11  1  0  0  0
 11 13  1  0  0  0
 13 14  2  0  0  0
 14 15  1  0  0  0
 15 16  2  0  0  0
 16 17  1  0  0  0
 16 18  1  0  0  0
 18 19  2  0  0  0
 30 31  1  0  0  0
 31 32  1  0  0  0
 32 33  1  0  0  0
 33 34  1  0  0  0
 34 35  1  0  0  0
 35 36  1  0  0  0
 26 21  1  0  0  0
 11  1  1  0  0  0
 19 13  1  0  0  0
 36 31  1  0  0  0
  9  3  1  0  0  0
  7 12  1  0  0  0
 17 20  1  0  0  0
M  END
> <minimizedAffinity>
-7.49792

> <CNNscore>
0.1270009875

> <CNNaffinity>
5.8021960258

> <CNN_VS>
0.7368846536

> <CNNaffinity_variance>
0.1448476017

$$$$
[H]ON([H])C(=O)C([H])([H])N(C([H])([H])c1c([H])c([H])c([N+](=O)[O-])c([H])c1[H])S(=O)(=O)c1c(F)c([H])c([H])c([H])c1F


 29 30  0  0  0  0  0  0  0  0999 V2000
  157.3521  141.6344  183.4378 N   0  0  0  0  0  0  0  0  0  0  0  0
  158.4424  140.7297  184.3548 S   0  0  0  0  0  0  0  0  0  0  0  0
  157.6799  140.0478  185.4922 O   0  0  0  0  0  0  0  0  0  0  0  0
  158.9066  139.5596  183.4891 O   0  0  0  0  0  0  0  0  0  0  0  0
  159.8191  141.5750  184.9915 C   0  0  0  0  0  0  0  0  0  0  0  0
  160.9973  141.7361  184.2982 C   0  0  0  0  0  0  0  0  0  0  0  0
  161.1148  141.2610  183.0526 F   0  0  0  0  0  0  0  0  0  0  0  0
  162.0899  142.4187  184.8401 C   0  0  0  0  0  0  0  0  0  0  0  0
  162.0244  142.9622  186.1027 C   0  0  0  0  0  0  0  0  0  0  0  0
  160.8519  142.8093  186.8041 C   0  0  0  0  0  0  0  0  0  0  0  0
  159.7699  142.1270  186.2540 C   0  0  0  0  0  0  0  0  0  0  0  0
  158.6089  142.0229  186.9711 F   0  0  0  0  0  0  0  0  0  0  0  0
  157.1148  141.1544  182.0912 C   0  0  0  0  0  0  0  0  0  0  0  0
  158.5251  142.2130  178.7518 O   0  0  0  0  0  0  0  0  0  0  0  0
  157.7835  141.5196  179.6921 N   0  0  0  0  0  0  0  0  0  0  0  0
  157.8737  141.8477  181.0573 C   0  0  0  0  0  0  0  0  0  0  0  0
  158.6487  142.7834  181.4006 O   0  0  0  0  0  0  0  0  0  0  0  0
  157.8277  142.5780  178.1197 H   0  0  0  0  0  0  0  0  0  0  0  0
  157.2041  140.7734  179.2707 H   0  0  0  0  0  0  0  0  0  0  0  0
  156.0702  141.8992  184.0663 C   0  0  0  0  0  0  0  0  0  0  0  0
  154.9688  141.1564  183.4350 C   0  0  0  0  0  0  0  0  0  0  0  0
  154.6605  139.8699  183.8215 C   0  0  0  0  0  0  0  0  0  0  0  0
  153.6435  139.1409  183.2491 C   0  0  0  0  0  0  0  0  0  0  0  0
  152.8931  139.7131  182.2435 C   0  0  0  0  0  0  0  0  0  0  0  0
  153.1705  140.9886  181.8336 C   0  0  0  0  0  0  0  0  0  0  0  0
  154.1994  141.6874  182.4331 C   0  0  0  0  0  0  0  0  0  0  0  0
  151.8256  139.0132  181.6084 N   0  0  0  0  0  0  0  0  0  0  0  0
  151.9297  138.7405  180.2759 O   0  0  0  0  0  0  0  0  0  0  0  0
  150.8261  138.6547  182.2273 O   0  0  0  0  0  0  0  0  0  0  0  0
 14 15  1  0  0  0
 15 16  1  0  0  0
 16 17  2  0  0  0
 16 13  1  0  0  0
 13  1  1  0  0  0
  1 20  1  0  0  0
 20 21  1  0  0  0
 21 22  2  0  0  0
 22 23  1  0  0  0
 23 24  2  0  0  0
 24 25  1  0  0  0
 25 26  2  0  0  0
 24 27  1  0  0  0
 27 28  1  0  0  0
 27 29  2  0  0  0
  1  2  1  0  0  0
  2  3  2  0  0  0
  2  4  2  0  0  0
  2  5  1  0  0  0
  5  6  2  0  0  0
  6  7  1  0  0  0
  6  8  1  0  0  0
  8  9  2  0  0  0
  9 10  1  0  0  0
 10 11  2  0  0  0
 11 12  1  0  0  0
 26 21  1  0  0  0
 11  5  1  0  0  0
 14 18  1  0  0  0
 15 19  1  0  0  0
M  CHG 1  27   1
M  CHG 1  28  -1
M  END
> <minimizedAffinity>
-9.40872

> <CNNscore>
0.6245315075

> <CNNaffinity>
6.6509370804

> <CNN_VS>
4.1537199020

> <CNNaffinity_variance>
0.1776934564

$$$$
[H]ON([H])C(=O)C([H])([H])N(C([H])([H])c1c([H])c([H])c([N+](=O)[O-])c([H])c1[H])S(=O)(=O)c1c(F)c([H])c([H])c([H])c1F


 29 30  0  0  0  0  0  0  0  0999 V2000
  157.3008  141.6506  183.4124 N   0  0  0  0  0  0  0  0  0  0  0  0
  158.3820  140.7359  184.3301 S   0  0  0  0  0  0  0  0  0  0  0  0
  157.6064  140.0327  185.4457 O   0  0  0  0  0  0  0  0  0  0  0  0
  158.8634  139.5816  183.4525 O   0  0  0  0  0  0  0  0  0  0  0  0
  159.7458  141.5765  184.9997 C   0  0  0  0  0  0  0  0  0  0  0  0
  159.7784  142.0658  186.2859 C   0  0  0  0  0  0  0  0  0  0  0  0
  158.7377  141.8731  187.1050 F   0  0  0  0  0  0  0  0  0  0  0  0
  160.8904  142.7422  186.7948 C   0  0  0  0  0  0  0  0  0  0  0  0
  162.0077  142.9444  186.0171 C   0  0  0  0  0  0  0  0  0  0  0  0
  161.9877  142.4585  184.7312 C   0  0  0  0  0  0  0  0  0  0  0  0
  160.8738  141.7862  184.2350 C   0  0  0  0  0  0  0  0  0  0  0  0
  160.9041  141.2898  182.9600 F   0  0  0  0  0  0  0  0  0  0  0  0
  157.0691  141.1796  182.0616 C   0  0  0  0  0  0  0  0  0  0  0  0
  158.5244  142.2383  178.7415 O   0  0  0  0  0  0  0  0  0  0  0  0
  157.8003  141.5204  179.6772 N   0  0  0  0  0  0  0  0  0  0  0  0
  157.8141  141.8958  181.0332 C   0  0  0  0  0  0  0  0  0  0  0  0
  158.5047  142.8966  181.3727 O   0  0  0  0  0  0  0  0  0  0  0  0
  157.8268  142.5309  178.0732 H   0  0  0  0  0  0  0  0  0  0  0  0
  157.2937  140.7207  179.2603 H   0  0  0  0  0  0  0  0  0  0  0  0
  156.0164  141.9172  184.0350 C   0  0  0  0  0  0  0  0  0  0  0  0
  154.9165  141.1774  183.3976 C   0  0  0  0  0  0  0  0  0  0  0  0
  154.6201  139.8821  183.7633 C   0  0  0  0  0  0  0  0  0  0  0  0
  153.6048  139.1557  183.1844 C   0  0  0  0  0  0  0  0  0  0  0  0
  152.8441  139.7399  182.1936 C   0  0  0  0  0  0  0  0  0  0  0  0
  153.1096  141.0244  181.8045 C   0  0  0  0  0  0  0  0  0  0  0  0
  154.1371  141.7202  182.4099 C   0  0  0  0  0  0  0  0  0  0  0  0
  151.7777  139.0433  181.5528 N   0  0  0  0  0  0  0  0  0  0  0  0
  151.8747  138.7964  180.2148 O   0  0  0  0  0  0  0  0  0  0  0  0
  150.7855  138.6654  182.1718 O   0  0  0  0  0  0  0  0  0  0  0  0
 14 15  1  0  0  0
 15 16  1  0  0  0
 16 17  2  0  0  0
 16 13  1  0  0  0
 13  1  1  0  0  0
  1 20  1  0  0  0
 20 21  1  0  0  0
 21 22  2  0  0  0
 22 23  1  0  0  0
 23 24  2  0  0  0
 24 25  1  0  0  0
 25 26  2  0  0  0
 24 27  1  0  0  0
 27 28  1  0  0  0
 27 29  2  0  0  0
  1  2  1  0  0  0
  2  3  2  0  0  0
  2  4  2  0  0  0
  2  5  1  0  0  0
  5  6  2  0  0  0
  6  7  1  0  0  0
  6  8  1  0  0  0
  8  9  2  0  0  0
  9 10  1  0  0  0
 10 11  2  0  0  0
 11 12  1  0  0  0
 26 21  1  0  0  0
 11  5  1  0  0  0
 14 18  1  0  0  0
 15 19  1  0  0  0
M  CHG 1  27   1
M  CHG 1  28  -1
M  END
> <minimizedAffinity>
-9.42656

> <CNNscore>
0.6226961017

> <CNNaffinity>
6.6278228760

> <CNN_VS>
4.1271195412

> <CNNaffinity_variance>
0.1437862813

$$$$
[H]ON([H])C(=O)C([H])([H])N(C([H])([H])c1c([H])c([H])c([N+](=O)[O-])c([H])c1[H])S(=O)(=O)c1c(F)c([H])c([H])c([H])c1F


 29 30  0  0  0  0  0  0  0  0999 V2000
  157.6125  140.9454  183.7226 N   0  0  0  0  0  0  0  0  0  0  0  0
  159.2850  140.7229  183.7597 S   0  0  0  0  0  0  0  0  0  0  0  0
  159.5780  139.2318  183.9363 O   0  0  0  0  0  0  0  0  0  0  0  0
  159.8171  141.0244  182.3596 O   0  0  0  0  0  0  0  0  0  0  0  0
  160.1704  141.6413  184.9377 C   0  0  0  0  0  0  0  0  0  0  0  0
  159.6119  142.1228  186.1000 C   0  0  0  0  0  0  0  0  0  0  0  0
  158.3318  141.8608  186.3896 F   0  0  0  0  0  0  0  0  0  0  0  0
  160.3505  142.8630  187.0273 C   0  0  0  0  0  0  0  0  0  0  0  0
  161.6808  143.1390  186.8081 C   0  0  0  0  0  0  0  0  0  0  0  0
  162.2502  142.6616  185.6513 C   0  0  0  0  0  0  0  0  0  0  0  0
  161.5042  141.9253  184.7346 C   0  0  0  0  0  0  0  0  0  0  0  0
  162.1147  141.4406  183.6097 F   0  0  0  0  0  0  0  0  0  0  0  0
  157.1467  142.0743  182.9424 C   0  0  0  0  0  0  0  0  0  0  0  0
  157.2444  141.3096  179.2455 O   0  0  0  0  0  0  0  0  0  0  0  0
  157.6742  141.6254  180.5224 N   0  0  0  0  0  0  0  0  0  0  0  0
  156.7516  141.7470  181.5777 C   0  0  0  0  0  0  0  0  0  0  0  0
  155.5271  141.5661  181.3293 O   0  0  0  0  0  0  0  0  0  0  0  0
  157.7535  140.4666  179.0239 H   0  0  0  0  0  0  0  0  0  0  0  0
  158.6987  141.7577  180.5762 H   0  0  0  0  0  0  0  0  0  0  0  0
  156.8307  139.7776  183.3573 C   0  0  0  0  0  0  0  0  0  0  0  0
  155.9394  139.3347  184.4402 C   0  0  0  0  0  0  0  0  0  0  0  0
  156.4437  138.8400  185.6236 C   0  0  0  0  0  0  0  0  0  0  0  0
  155.6419  138.4088  186.6554 C   0  0  0  0  0  0  0  0  0  0  0  0
  154.2720  138.4698  186.5096 C   0  0  0  0  0  0  0  0  0  0  0  0
  153.7354  138.9551  185.3484 C   0  0  0  0  0  0  0  0  0  0  0  0
  154.5738  139.3783  184.3361 C   0  0  0  0  0  0  0  0  0  0  0  0
  153.3846  138.0394  187.5394 N   0  0  0  0  0  0  0  0  0  0  0  0
  152.1138  137.6830  187.1946 O   0  0  0  0  0  0  0  0  0  0  0  0
  153.7351  137.9834  188.7160 O   0  0  0  0  0  0  0  0  0  0  0  0
 14 15  1  0  0  0
 15 16  1  0  0  0
 16 17  2  0  0  0
 16 13  1  0  0  0
 13  1  1  0  0  0
  1 20  1  0  0  0
 20 21  1  0  0  0
 21 22  2  0  0  0
 22 23  1  0  0  0
 23 24  2  0  0  0
 24 25  1  0  0  0
 25 26  2  0  0  0
 24 27  1  0  0  0
 27 28  1  0  0  0
 27 29  2  0  0  0
  1  2  1  0  0  0
  2  3  2  0  0  0
  2  4  2  0  0  0
  2  5  1  0  0  0
  5  6  2  0  0  0
  6  7  1  0  0  0
  6  8  1  0  0  0
  8  9  2  0  0  0
  9 10  1  0  0  0
 10 11  2  0  0  0
 11 12  1  0  0  0
 26 21  1  0  0  0
 11  5  1  0  0  0
 14 18  1  0  0  0
 15 19  1  0  0  0
M  CHG 1  27   1
M  CHG 1  28  -1
M  END
> <minimizedAffinity>
-8.45852

> <CNNscore>
0.3689397275

> <CNNaffinity>
6.2175374031

> <CNN_VS>
2.2938964367

> <CNNaffinity_variance>
0.0193106439

$$$$
[H]ON([H])C(=O)C([H])([H])N(C([H])([H])c1c([H])c([H])c([N+](=O)[O-])c([H])c1[H])S(=O)(=O)c1c(F)c([H])c([H])c([H])c1F


 29 30  0  0  0  0  0  0  0  0999 V2000
  156.7647  141.1241  183.5267 N   0  0  0  0  0  0  0  0  0  0  0  0
  158.0475  140.3199  184.2722 S   0  0  0  0  0  0  0  0  0  0  0  0
  157.4993  139.4986  185.4407 O   0  0  0  0  0  0  0  0  0  0  0  0
  158.5485  139.2561  183.2967 O   0  0  0  0  0  0  0  0  0  0  0  0
  159.3766  141.2984  184.8117 C   0  0  0  0  0  0  0  0  0  0  0  0
  160.4565  141.6144  184.0188 C   0  0  0  0  0  0  0  0  0  0  0  0
  160.5046  141.1933  182.7494 F   0  0  0  0  0  0  0  0  0  0  0  0
  161.5136  142.4016  184.4837 C   0  0  0  0  0  0  0  0  0  0  0  0
  161.5109  142.8961  185.7680 C   0  0  0  0  0  0  0  0  0  0  0  0
  160.4365  142.5887  186.5688 C   0  0  0  0  0  0  0  0  0  0  0  0
  159.3891  141.8033  186.0946 C   0  0  0  0  0  0  0  0  0  0  0  0
  158.3222  141.5451  186.9120 F   0  0  0  0  0  0  0  0  0  0  0  0
  155.4506  140.8527  184.0741 C   0  0  0  0  0  0  0  0  0  0  0  0
  153.3203  140.1386  181.0386 O   0  0  0  0  0  0  0  0  0  0  0  0
  154.2065  140.7789  181.8870 N   0  0  0  0  0  0  0  0  0  0  0  0
  154.5226  140.2248  183.1411 C   0  0  0  0  0  0  0  0  0  0  0  0
  153.9756  139.1363  183.4723 O   0  0  0  0  0  0  0  0  0  0  0  0
  153.8580  139.9943  180.1966 H   0  0  0  0  0  0  0  0  0  0  0  0
  154.5662  141.6648  181.4921 H   0  0  0  0  0  0  0  0  0  0  0  0
  156.9192  142.5612  183.3880 C   0  0  0  0  0  0  0  0  0  0  0  0
  157.6633  142.9337  182.1751 C   0  0  0  0  0  0  0  0  0  0  0  0
  157.6013  142.1634  181.0339 C   0  0  0  0  0  0  0  0  0  0  0  0
  158.2892  142.4751  179.8836 C   0  0  0  0  0  0  0  0  0  0  0  0
  159.0783  143.6058  179.8606 C   0  0  0  0  0  0  0  0  0  0  0  0
  159.1641  144.3945  180.9752 C   0  0  0  0  0  0  0  0  0  0  0  0
  158.4583  144.0479  182.1102 C   0  0  0  0  0  0  0  0  0  0  0  0
  159.8169  143.9859  178.7017 N   0  0  0  0  0  0  0  0  0  0  0  0
  160.6716  145.0450  178.7948 O   0  0  0  0  0  0  0  0  0  0  0  0
  159.7017  143.3878  177.6342 O   0  0  0  0  0  0  0  0  0  0  0  0
 14 15  1  0  0  0
 15 16  1  0  0  0
 16 17  2  0  0  0
 16 13  1  0  0  0
 13  1  1  0  0  0
  1 20  1  0  0  0
 20 21  1  0  0  0
 21 22  2  0  0  0
 22 23  1  0  0  0
 23 24  2  0  0  0
 24 25  1  0  0  0
 25 26  2  0  0  0
 24 27  1  0  0  0
 27 28  1  0  0  0
 27 29  2  0  0  0
  1  2  1  0  0  0
  2  3  2  0  0  0
  2  4  2  0  0  0
  2  5  1  0  0  0
  5  6  2  0  0  0
  6  7  1  0  0  0
  6  8  1  0  0  0
  8  9  2  0  0  0
  9 10  1  0  0  0
 10 11  2  0  0  0
 11 12  1  0  0  0
 26 21  1  0  0  0
 11  5  1  0  0  0
 14 18  1  0  0  0
 15 19  1  0  0  0
M  CHG 1  27   1
M  CHG 1  28  -1
M  END
> <minimizedAffinity>
-6.28515

> <CNNscore>
0.3640622497

> <CNNaffinity>
6.4744262695

> <CNN_VS>
2.3570942879

> <CNNaffinity_variance>
0.1001723781

$$$$
[H]ON([H])C(=O)C([H])([H])N(C([H])([H])c1c([H])c([H])c([N+](=O)[O-])c([H])c1[H])S(=O)(=O)c1c(F)c([H])c([H])c([H])c1F


 29 30  0  0  0  0  0  0  0  0999 V2000
  157.5513  140.8846  183.7683 N   0  0  0  0  0  0  0  0  0  0  0  0
  159.2216  140.6440  183.7756 S   0  0  0  0  0  0  0  0  0  0  0  0
  159.5024  139.1562  183.9942 O   0  0  0  0  0  0  0  0  0  0  0  0
  159.7254  140.8938  182.3550 O   0  0  0  0  0  0  0  0  0  0  0  0
  160.1432  141.5898  184.9030 C   0  0  0  0  0  0  0  0  0  0  0  0
  161.4693  141.9099  184.7185 C   0  0  0  0  0  0  0  0  0  0  0  0
  162.1069  141.5197  183.6085 F   0  0  0  0  0  0  0  0  0  0  0  0
  162.1854  142.6702  185.6472 C   0  0  0  0  0  0  0  0  0  0  0  0
  161.5810  143.1328  186.7937 C   0  0  0  0  0  0  0  0  0  0  0  0
  160.2561  142.8210  186.9881 C   0  0  0  0  0  0  0  0  0  0  0  0
  159.5528  142.0626  186.0558 C   0  0  0  0  0  0  0  0  0  0  0  0
  158.2269  141.7995  186.2697 F   0  0  0  0  0  0  0  0  0  0  0  0
  157.0846  142.0240  183.0042 C   0  0  0  0  0  0  0  0  0  0  0  0
  157.2363  141.3163  179.2977 O   0  0  0  0  0  0  0  0  0  0  0  0
  157.6477  141.6104  180.5858 N   0  0  0  0  0  0  0  0  0  0  0  0
  156.7093  141.7195  181.6286 C   0  0  0  0  0  0  0  0  0  0  0  0
  155.4881  141.5477  181.3586 O   0  0  0  0  0  0  0  0  0  0  0  0
  157.7455  140.4747  179.0709 H   0  0  0  0  0  0  0  0  0  0  0  0
  158.6718  141.7377  180.6574 H   0  0  0  0  0  0  0  0  0  0  0  0
  156.7511  139.7278  183.4078 C   0  0  0  0  0  0  0  0  0  0  0  0
  155.8683  139.2906  184.5000 C   0  0  0  0  0  0  0  0  0  0  0  0
  156.3816  138.7866  185.6756 C   0  0  0  0  0  0  0  0  0  0  0  0
  155.5879  138.3603  186.7157 C   0  0  0  0  0  0  0  0  0  0  0  0
  154.2170  138.4363  186.5868 C   0  0  0  0  0  0  0  0  0  0  0  0
  153.6716  138.9313  185.4338 C   0  0  0  0  0  0  0  0  0  0  0  0
  154.5020  139.3490  184.4128 C   0  0  0  0  0  0  0  0  0  0  0  0
  153.3377  138.0118  187.6258 N   0  0  0  0  0  0  0  0  0  0  0  0
  152.1009  137.5504  187.2819 O   0  0  0  0  0  0  0  0  0  0  0  0
  153.6655  138.0521  188.8096 O   0  0  0  0  0  0  0  0  0  0  0  0
 14 15  1  0  0  0
 15 16  1  0  0  0
 16 17  2  0  0  0
 16 13  1  0  0  0
 13  1  1  0  0  0
  1 20  1  0  0  0
 20 21  1  0  0  0
 21 22  2  0  0  0
 22 23  1  0  0  0
 23 24  2  0  0  0
 24 25  1  0  0  0
 25 26  2  0  0  0
 24 27  1  0  0  0
 27 28  1  0  0  0
 27 29  2  0  0  0
  1  2  1  0  0  0
  2  3  2  0  0  0
  2  4  2  0  0  0
  2  5  1  0  0  0
  5  6  2  0  0  0
  6  7  1  0  0  0
  6  8  1  0  0  0
  8  9  2  0  0  0
  9 10  1  0  0  0
 10 11  2  0  0  0
 11 12  1  0  0  0
 26 21  1  0  0  0
 11  5  1  0  0  0
 14 18  1  0  0  0
 15 19  1  0  0  0
M  CHG 1  27   1
M  CHG 1  28  -1
M  END
> <minimizedAffinity>
-8.40948

> <CNNscore>
0.3485149145

> <CNNaffinity>
6.1788110733

> <CNN_VS>
2.1534078121

> <CNNaffinity_variance>
0.0193889085

$$$$
[H]ON([H])C(=O)C([H])([H])N(C([H])([H])c1c([H])c([H])c([N+](=O)[O-])c([H])c1[H])S(=O)(=O)c1c(F)c([H])c([H])c([H])c1F


 29 30  0  0  0  0  0  0  0  0999 V2000
  156.6247  140.8664  184.2026 N   0  0  0  0  0  0  0  0  0  0  0  0
  158.2486  141.0606  183.7864 S   0  0  0  0  0  0  0  0  0  0  0  0
  158.9810  141.7156  184.9590 O   0  0  0  0  0  0  0  0  0  0  0  0
  158.8715  139.6674  183.7144 O   0  0  0  0  0  0  0  0  0  0  0  0
  158.5820  141.9322  182.3221 C   0  0  0  0  0  0  0  0  0  0  0  0
  158.8230  143.2870  182.2841 C   0  0  0  0  0  0  0  0  0  0  0  0
  158.8444  143.9980  183.4176 F   0  0  0  0  0  0  0  0  0  0  0  0
  159.0845  143.9610  181.0881 C   0  0  0  0  0  0  0  0  0  0  0  0
  159.1117  143.2841  179.8902 C   0  0  0  0  0  0  0  0  0  0  0  0
  158.8743  141.9301  179.9158 C   0  0  0  0  0  0  0  0  0  0  0  0
  158.6147  141.2693  181.1136 C   0  0  0  0  0  0  0  0  0  0  0  0
  158.4142  139.9155  181.1019 F   0  0  0  0  0  0  0  0  0  0  0  0
  155.7103  141.8351  183.6320 C   0  0  0  0  0  0  0  0  0  0  0  0
  153.0244  140.5234  181.3239 O   0  0  0  0  0  0  0  0  0  0  0  0
  153.6544  140.9513  182.4794 N   0  0  0  0  0  0  0  0  0  0  0  0
  154.9968  141.3717  182.4480 C   0  0  0  0  0  0  0  0  0  0  0  0
  155.6096  141.3439  181.3446 O   0  0  0  0  0  0  0  0  0  0  0  0
  152.2290  141.1396  181.2435 H   0  0  0  0  0  0  0  0  0  0  0  0
  153.0372  140.9088  183.3084 H   0  0  0  0  0  0  0  0  0  0  0  0
  156.0774  139.5374  183.9962 C   0  0  0  0  0  0  0  0  0  0  0  0
  155.4050  139.0124  185.1944 C   0  0  0  0  0  0  0  0  0  0  0  0
  156.1256  138.5014  186.2523 C   0  0  0  0  0  0  0  0  0  0  0  0
  155.5320  137.9944  187.3854 C   0  0  0  0  0  0  0  0  0  0  0  0
  154.1561  137.9926  187.4772 C   0  0  0  0  0  0  0  0  0  0  0  0
  153.4079  138.4919  186.4464 C   0  0  0  0  0  0  0  0  0  0  0  0
  154.0411  138.9919  185.3258 C   0  0  0  0  0  0  0  0  0  0  0  0
  153.4779  137.4823  188.6230 N   0  0  0  0  0  0  0  0  0  0  0  0
  154.0271  137.6988  189.8527 O   0  0  0  0  0  0  0  0  0  0  0  0
  152.4227  136.8593  188.5280 O   0  0  0  0  0  0  0  0  0  0  0  0
 14 15  1  0  0  0
 15 16  1  0  0  0
 16 17  2  0  0  0
 16 13  1  0  0  0
 13  1  1  0  0  0
  1 20  1  0  0  0
 20 21  1  0  0  0
 21 22  2  0  0  0
 22 23  1  0  0  0
 23 24  2  0  0  0
 24 25  1  0  0  0
 25 26  2  0  0  0
 24 27  1  0  0  0
 27 28  1  0  0  0
 27 29  2  0  0  0
  1  2  1  0  0  0
  2  3  2  0  0  0
  2  4  2  0  0  0
  2  5  1  0  0  0
  5  6  2  0  0  0
  6  7  1  0  0  0
  6  8  1  0  0  0
  8  9  2  0  0  0
  9 10  1  0  0  0
 10 11  2  0  0  0
 11 12  1  0  0  0
 26 21  1  0  0  0
 11  5  1  0  0  0
 14 18  1  0  0  0
 15 19  1  0  0  0
M  CHG 1  27   1
M  CHG 1  28  -1
M  END
> <minimizedAffinity>
-8.00351

> <CNNscore>
0.3215957284

> <CNNaffinity>
5.6579833031

> <CNN_VS>
1.8195832968

> <CNNaffinity_variance>
0.1769086868

$$$$
[H]ON([H])C(=O)C([H])([H])N(C([H])([H])c1c([H])c([H])c([N+](=O)[O-])c([H])c1[H])S(=O)(=O)c1c(F)c([H])c([H])c([H])c1F


 29 30  0  0  0  0  0  0  0  0999 V2000
  156.9103  140.6582  183.5575 N   0  0  0  0  0  0  0  0  0  0  0  0
  156.3892  141.9295  182.5776 S   0  0  0  0  0  0  0  0  0  0  0  0
  155.2456  141.4303  181.6926 O   0  0  0  0  0  0  0  0  0  0  0  0
  155.7124  142.9568  183.4836 O   0  0  0  0  0  0  0  0  0  0  0  0
  157.5944  142.7085  181.6000 C   0  0  0  0  0  0  0  0  0  0  0  0
  158.0910  143.9645  181.8660 C   0  0  0  0  0  0  0  0  0  0  0  0
  157.6736  144.6379  182.9445 F   0  0  0  0  0  0  0  0  0  0  0  0
  159.0587  144.5666  181.0571 C   0  0  0  0  0  0  0  0  0  0  0  0
  159.5566  143.9151  179.9519 C   0  0  0  0  0  0  0  0  0  0  0  0
  159.0695  142.6591  179.6771 C   0  0  0  0  0  0  0  0  0  0  0  0
  158.1053  142.0694  180.4902 C   0  0  0  0  0  0  0  0  0  0  0  0
  157.6681  140.8049  180.2017 F   0  0  0  0  0  0  0  0  0  0  0  0
  156.0723  139.4759  183.5503 C   0  0  0  0  0  0  0  0  0  0  0  0
  153.5275  138.8248  186.2636 O   0  0  0  0  0  0  0  0  0  0  0  0
  154.0608  139.1316  185.0240 N   0  0  0  0  0  0  0  0  0  0  0  0
  155.4545  139.1624  184.8332 C   0  0  0  0  0  0  0  0  0  0  0  0
  156.2018  138.9088  185.8187 O   0  0  0  0  0  0  0  0  0  0  0  0
  152.9416  138.0236  186.0797 H   0  0  0  0  0  0  0  0  0  0  0  0
  153.3335  139.3292  184.3156 H   0  0  0  0  0  0  0  0  0  0  0  0
  158.2906  140.2469  183.3726 C   0  0  0  0  0  0  0  0  0  0  0  0
  159.2214  140.9943  184.2320 C   0  0  0  0  0  0  0  0  0  0  0  0
  158.8680  141.3720  185.5095 C   0  0  0  0  0  0  0  0  0  0  0  0
  159.7082  142.0784  186.3393 C   0  0  0  0  0  0  0  0  0  0  0  0
  160.9613  142.4290  185.8827 C   0  0  0  0  0  0  0  0  0  0  0  0
  161.3466  142.0712  184.6197 C   0  0  0  0  0  0  0  0  0  0  0  0
  160.4745  141.3624  183.8174 C   0  0  0  0  0  0  0  0  0  0  0  0
  161.8804  143.1606  186.6910 N   0  0  0  0  0  0  0  0  0  0  0  0
  163.1122  142.6224  186.9230 O   0  0  0  0  0  0  0  0  0  0  0  0
  161.5907  144.2516  187.1771 O   0  0  0  0  0  0  0  0  0  0  0  0
 14 15  1  0  0  0
 15 16  1  0  0  0
 16 17  2  0  0  0
 16 13  1  0  0  0
 13  1  1  0  0  0
  1 20  1  0  0  0
 20 21  1  0  0  0
 21 22  2  0  0  0
 22 23  1  0  0  0
 23 24  2  0  0  0
 24 25  1  0  0  0
 25 26  2  0  0  0
 24 27  1  0  0  0
 27 28  1  0  0  0
 27 29  2  0  0  0
  1  2  1  0  0  0
  2  3  2  0  0  0
  2  4  2  0  0  0
  2  5  1  0  0  0
  5  6  2  0  0  0
  6  7  1  0  0  0
  6  8  1  0  0  0
  8  9  2  0  0  0
  9 10  1  0  0  0
 10 11  2  0  0  0
 11 12  1  0  0  0
 26 21  1  0  0  0
 11  5  1  0  0  0
 14 18  1  0  0  0
 15 19  1  0  0  0
M  CHG 1  27   1
M  CHG 1  28  -1
M  END
> <minimizedAffinity>
-8.71695

> <CNNscore>
0.2849392891

> <CNNaffinity>
6.2328472137

> <CNN_VS>
1.7759830952

> <CNNaffinity_variance>
0.0784235448

$$$$
[H]ON([H])C(=O)C([H])([H])N(C([H])([H])c1c([H])c([H])c([N+](=O)[O-])c([H])c1[H])S(=O)(=O)c1c(F)c([H])c([H])c([H])c1F


 29 30  0  0  0  0  0  0  0  0999 V2000
  156.5058  140.9938  182.5252 N   0  0  0  0  0  0  0  0  0  0  0  0
  156.8930  142.4923  183.1977 S   0  0  0  0  0  0  0  0  0  0  0  0
  156.8503  143.5513  182.0945 O   0  0  0  0  0  0  0  0  0  0  0  0
  155.7399  142.8924  184.1166 O   0  0  0  0  0  0  0  0  0  0  0  0
  158.3973  142.5982  184.0585 C   0  0  0  0  0  0  0  0  0  0  0  0
  159.4146  143.4555  183.7051 C   0  0  0  0  0  0  0  0  0  0  0  0
  159.2608  144.2912  182.6712 F   0  0  0  0  0  0  0  0  0  0  0  0
  160.6163  143.5144  184.4163 C   0  0  0  0  0  0  0  0  0  0  0  0
  160.8267  142.7070  185.5107 C   0  0  0  0  0  0  0  0  0  0  0  0
  159.8169  141.8478  185.8745 C   0  0  0  0  0  0  0  0  0  0  0  0
  158.6239  141.7978  185.1581 C   0  0  0  0  0  0  0  0  0  0  0  0
  157.6302  140.9517  185.5701 F   0  0  0  0  0  0  0  0  0  0  0  0
  157.6173  140.2501  181.9671 C   0  0  0  0  0  0  0  0  0  0  0  0
  158.5309  142.1053  178.8071 O   0  0  0  0  0  0  0  0  0  0  0  0
  157.7736  141.4349  179.7516 N   0  0  0  0  0  0  0  0  0  0  0  0
  158.3655  140.9596  180.9363 C   0  0  0  0  0  0  0  0  0  0  0  0
  159.6003  141.1556  181.1118 O   0  0  0  0  0  0  0  0  0  0  0  0
  158.0654  142.9964  178.7167 H   0  0  0  0  0  0  0  0  0  0  0  0
  156.7831  141.3358  179.4703 H   0  0  0  0  0  0  0  0  0  0  0  0
  155.7349  140.1036  183.3748 C   0  0  0  0  0  0  0  0  0  0  0  0
  154.3724  139.8802  182.8678 C   0  0  0  0  0  0  0  0  0  0  0  0
  153.6431  138.7725  183.2428 C   0  0  0  0  0  0  0  0  0  0  0  0
  152.3697  138.5255  182.7834 C   0  0  0  0  0  0  0  0  0  0  0  0
  151.7880  139.4192  181.9090 C   0  0  0  0  0  0  0  0  0  0  0  0
  152.4823  140.5302  181.5146 C   0  0  0  0  0  0  0  0  0  0  0  0
  153.7581  140.7426  181.9980 C   0  0  0  0  0  0  0  0  0  0  0  0
  150.4724  139.2232  181.3953 N   0  0  0  0  0  0  0  0  0  0  0  0
  150.2609  139.4147  180.0614 O   0  0  0  0  0  0  0  0  0  0  0  0
  149.5367  138.8897  182.1189 O   0  0  0  0  0  0  0  0  0  0  0  0
 14 15  1  0  0  0
 15 16  1  0  0  0
 16 17  2  0  0  0
 16 13  1  0  0  0
 13  1  1  0  0  0
  1 20  1  0  0  0
 20 21  1  0  0  0
 21 22  2  0  0  0
 22 23  1  0  0  0
 23 24  2  0  0  0
 24 25  1  0  0  0
 25 26  2  0  0  0
 24 27  1  0  0  0
 27 28  1  0  0  0
 27 29  2  0  0  0
  1  2  1  0  0  0
  2  3  2  0  0  0
  2  4  2  0  0  0
  2  5  1  0  0  0
  5  6  2  0  0  0
  6  7  1  0  0  0
  6  8  1  0  0  0
  8  9  2  0  0  0
  9 10  1  0  0  0
 10 11  2  0  0  0
 11 12  1  0  0  0
 26 21  1  0  0  0
 11  5  1  0  0  0
 14 18  1  0  0  0
 15 19  1  0  0  0
M  CHG 1  27   1
M  CHG 1  28  -1
M  END
> <minimizedAffinity>
-7.71938

> <CNNscore>
0.2384106964

> <CNNaffinity>
6.0443553925

> <CNN_VS>
1.4410389662

> <CNNaffinity_variance>
0.0322758704

$$$$
[H]ON([H])C(=O)C([H])([H])N(C([H])([H])c1c([H])c([H])c([N+](=O)[O-])c([H])c1[H])S(=O)(=O)c1c(F)c([H])c([H])c([H])c1F


 29 30  0  0  0  0  0  0  0  0999 V2000
  156.1898  140.7001  183.3855 N   0  0  0  0  0  0  0  0  0  0  0  0
  156.7362  142.2937  183.2859 S   0  0  0  0  0  0  0  0  0  0  0  0
  155.5352  143.2331  183.4103 O   0  0  0  0  0  0  0  0  0  0  0  0
  157.5419  142.5803  184.5520 O   0  0  0  0  0  0  0  0  0  0  0  0
  157.6707  142.7140  181.8842 C   0  0  0  0  0  0  0  0  0  0  0  0
  157.6673  141.9771  180.7215 C   0  0  0  0  0  0  0  0  0  0  0  0
  156.8897  140.8932  180.6148 F   0  0  0  0  0  0  0  0  0  0  0  0
  158.4343  142.3396  179.6108 C   0  0  0  0  0  0  0  0  0  0  0  0
  159.2298  143.4621  179.6409 C   0  0  0  0  0  0  0  0  0  0  0  0
  159.2400  144.2073  180.7963 C   0  0  0  0  0  0  0  0  0  0  0  0
  158.4717  143.8362  181.8967 C   0  0  0  0  0  0  0  0  0  0  0  0
  158.4844  144.6211  183.0178 F   0  0  0  0  0  0  0  0  0  0  0  0
  157.1142  139.7555  183.9799 C   0  0  0  0  0  0  0  0  0  0  0  0
  160.7635  140.6555  183.6134 O   0  0  0  0  0  0  0  0  0  0  0  0
  159.4800  140.6028  184.1279 N   0  0  0  0  0  0  0  0  0  0  0  0
  158.4815  139.8500  183.4828 C   0  0  0  0  0  0  0  0  0  0  0  0
  158.7848  139.2310  182.4251 O   0  0  0  0  0  0  0  0  0  0  0  0
  161.3382  140.3154  184.3705 H   0  0  0  0  0  0  0  0  0  0  0  0
  159.3726  141.1666  184.9885 H   0  0  0  0  0  0  0  0  0  0  0  0
  154.8865  140.5195  183.9998 C   0  0  0  0  0  0  0  0  0  0  0  0
  153.8652  140.0809  183.0364 C   0  0  0  0  0  0  0  0  0  0  0  0
  153.2981  138.8274  183.1171 C   0  0  0  0  0  0  0  0  0  0  0  0
  152.3465  138.3790  182.2300 C   0  0  0  0  0  0  0  0  0  0  0  0
  151.9348  139.2126  181.2115 C   0  0  0  0  0  0  0  0  0  0  0  0
  152.4759  140.4642  181.1001 C   0  0  0  0  0  0  0  0  0  0  0  0
  153.4286  140.8772  182.0103 C   0  0  0  0  0  0  0  0  0  0  0  0
  150.9530  138.8104  180.2589 N   0  0  0  0  0  0  0  0  0  0  0  0
  150.7979  139.5604  179.1301 O   0  0  0  0  0  0  0  0  0  0  0  0
  150.2523  137.8154  180.4304 O   0  0  0  0  0  0  0  0  0  0  0  0
 14 15  1  0  0  0
 15 16  1  0  0  0
 16 17  2  0  0  0
 16 13  1  0  0  0
 13  1  1  0  0  0
  1 20  1  0  0  0
 20 21  1  0  0  0
 21 22  2  0  0  0
 22 23  1  0  0  0
 23 24  2  0  0  0
 24 25  1  0  0  0
 25 26  2  0  0  0
 24 27  1  0  0  0
 27 28  1  0  0  0
 27 29  2  0  0  0
  1  2  1  0  0  0
  2  3  2  0  0  0
  2  4  2  0  0  0
  2  5  1  0  0  0
  5  6  2  0  0  0
  6  7  1  0  0  0
  6  8  1  0  0  0
  8  9  2  0  0  0
  9 10  1  0  0  0
 10 11  2  0  0  0
 11 12  1  0  0  0
 26 21  1  0  0  0
 11  5  1  0  0  0
 14 18  1  0  0  0
 15 19  1  0  0  0
M  CHG 1  27   1
M  CHG 1  28  -1
M  END
> <minimizedAffinity>
-7.72690

> <CNNscore>
0.2324813604

> <CNNaffinity>
5.8830294609

> <CNN_VS>
1.3676947355

> <CNNaffinity_variance>
0.1371212304

$$$$
[H]c1nc(N2C([H])([H])C([H])([H])N(c3c([H])c([H])c([H])c([H])c3OC([H])([H])[H])C([H])([H])C2([H])[H])c2c(n1)n(C([H])([H])[H])c(=O)n2[H]


 26 29  0  0  0  0  0  0  0  0999 V2000
  156.7105  140.9230  183.9757 N   0  0  0  0  0  0  0  0  0  0  0  0
  155.3815  141.4758  183.8928 C   0  0  0  0  0  0  0  0  0  0  0  0
  154.6530  140.6541  182.8076 C   0  0  0  0  0  0  0  0  0  0  0  0
  154.4177  139.3816  183.4370 N   0  0  0  0  0  0  0  0  0  0  0  0
  155.4423  138.8221  184.2507 C   0  0  0  0  0  0  0  0  0  0  0  0
  156.7964  139.4794  184.0197 C   0  0  0  0  0  0  0  0  0  0  0  0
  153.1962  138.7063  183.2518 C   0  0  0  0  0  0  0  0  0  0  0  0
  152.6700  137.8598  184.1460 N   0  0  0  0  0  0  0  0  0  0  0  0
  151.4969  137.2737  183.8669 C   0  0  0  0  0  0  0  0  0  0  0  0
  150.8051  137.4846  182.7301 N   0  0  0  0  0  0  0  0  0  0  0  0
  151.2841  138.3195  181.8030 C   0  0  0  0  0  0  0  0  0  0  0  0
  150.8062  138.6970  180.6107 N   0  0  0  0  0  0  0  0  0  0  0  0
  149.5716  138.2894  179.9525 C   0  0  0  0  0  0  0  0  0  0  0  0
  151.7077  139.5556  180.1100 C   0  0  0  0  0  0  0  0  0  0  0  0
  151.6562  140.1513  179.0092 O   0  0  0  0  0  0  0  0  0  0  0  0
  152.7292  139.7094  180.9770 N   0  0  0  0  0  0  0  0  0  0  0  0
  152.4897  138.9346  182.0675 C   0  0  0  0  0  0  0  0  0  0  0  0
  153.5619  140.3225  180.8288 H   0  0  0  0  0  0  0  0  0  0  0  0
  158.2671  142.5429  182.9897 C   0  0  0  0  0  0  0  0  0  0  0  0
  159.4403  143.3043  183.1015 C   0  0  0  0  0  0  0  0  0  0  0  0
  160.1796  143.2222  184.2514 C   0  0  0  0  0  0  0  0  0  0  0  0
  159.8229  142.4205  185.3123 C   0  0  0  0  0  0  0  0  0  0  0  0
  158.6750  141.6847  185.1848 C   0  0  0  0  0  0  0  0  0  0  0  0
  157.8787  141.7277  184.0338 C   0  0  0  0  0  0  0  0  0  0  0  0
  157.9048  142.0880  180.5909 C   0  0  0  0  0  0  0  0  0  0  0  0
  157.5086  142.6136  181.8386 O   0  0  0  0  0  0  0  0  0  0  0  0
 25 26  1  0  0  0
 26 19  1  0  0  0
 19 20  2  0  0  0
 20 21  1  0  0  0
 21 22  2  0  0  0
 22 23  1  0  0  0
 23 24  2  0  0  0
 24  1  1  0  0  0
  1  2  1  0  0  0
  2  3  1  0  0  0
  3  4  1  0  0  0
  4  5  1  0  0  0
  5  6  1  0  0  0
  4  7  1  0  0  0
  7  8  2  0  0  0
  8  9  1  0  0  0
  9 10  2  0  0  0
 10 11  1  0  0  0
 11 12  1  0  0  0
 12 13  1  0  0  0
 12 14  1  0  0  0
 14 15  2  0  0  0
 14 16  1  0  0  0
 16 17  1  0  0  0
 24 19  1  0  0  0
  6  1  1  0  0  0
 17  7  1  0  0  0
 17 11  2  0  0  0
 16 18  1  0  0  0
M  END
> <minimizedAffinity>
-7.29941

> <CNNscore>
0.4044239521

> <CNNaffinity>
5.9946355820

> <CNN_VS>
2.4243741035

> <CNNaffinity_variance>
0.0743461177

$$$$
[H]c1nc(N2C([H])([H])C([H])([H])N(c3c([H])c([H])c([H])c([H])c3OC([H])([H])[H])C([H])([H])C2([H])[H])c2c(n1)n(C([H])([H])[H])c(=O)n2[H]


 26 29  0  0  0  0  0  0  0  0999 V2000
  156.8222  142.1822  183.0410 N   0  0  0  0  0  0  0  0  0  0  0  0
  156.8114  140.9145  182.3540 C   0  0  0  0  0  0  0  0  0  0  0  0
  156.0940  139.9301  183.3025 C   0  0  0  0  0  0  0  0  0  0  0  0
  154.7128  140.3284  183.2340 N   0  0  0  0  0  0  0  0  0  0  0  0
  154.4028  141.7169  183.2074 C   0  0  0  0  0  0  0  0  0  0  0  0
  155.5729  142.5856  183.6490 C   0  0  0  0  0  0  0  0  0  0  0  0
  153.6902  139.3615  183.1920 C   0  0  0  0  0  0  0  0  0  0  0  0
  153.4707  138.4667  184.1637 N   0  0  0  0  0  0  0  0  0  0  0  0
  152.4644  137.5925  184.0203 C   0  0  0  0  0  0  0  0  0  0  0  0
  151.6497  137.5563  182.9477 N   0  0  0  0  0  0  0  0  0  0  0  0
  151.8239  138.4262  181.9483 C   0  0  0  0  0  0  0  0  0  0  0  0
  151.1689  138.6007  180.7938 N   0  0  0  0  0  0  0  0  0  0  0  0
  150.0267  137.8609  180.2725 C   0  0  0  0  0  0  0  0  0  0  0  0
  151.7798  139.6240  180.1771 C   0  0  0  0  0  0  0  0  0  0  0  0
  151.4884  140.1207  179.0646 O   0  0  0  0  0  0  0  0  0  0  0  0
  152.7979  140.0782  180.9361 N   0  0  0  0  0  0  0  0  0  0  0  0
  152.8530  139.3356  182.0729 C   0  0  0  0  0  0  0  0  0  0  0  0
  153.4337  140.8684  180.6859 H   0  0  0  0  0  0  0  0  0  0  0  0
  159.0047  142.7706  183.9949 C   0  0  0  0  0  0  0  0  0  0  0  0
  160.1089  143.6357  184.0268 C   0  0  0  0  0  0  0  0  0  0  0  0
  160.1389  144.7076  183.1751 C   0  0  0  0  0  0  0  0  0  0  0  0
  159.1276  144.9792  182.2811 C   0  0  0  0  0  0  0  0  0  0  0  0
  158.0582  144.1239  182.2646 C   0  0  0  0  0  0  0  0  0  0  0  0
  157.9720  143.0120  183.1112 C   0  0  0  0  0  0  0  0  0  0  0  0
  159.1792  141.7526  186.2367 C   0  0  0  0  0  0  0  0  0  0  0  0
  158.9574  141.6843  184.8453 O   0  0  0  0  0  0  0  0  0  0  0  0
 25 26  1  0  0  0
 26 19  1  0  0  0
 19 20  2  0  0  0
 20 21  1  0  0  0
 21 22  2  0  0  0
 22 23  1  0  0  0
 23 24  2  0  0  0
 24  1  1  0  0  0
  1  2  1  0  0  0
  2  3  1  0  0  0
  3  4  1  0  0  0
  4  5  1  0  0  0
  5  6  1  0  0  0
  4  7  1  0  0  0
  7  8  2  0  0  0
  8  9  1  0  0  0
  9 10  2  0  0  0
 10 11  1  0  0  0
 11 12  1  0  0  0
 12 13  1  0  0  0
 12 14  1  0  0  0
 14 15  2  0  0  0
 14 16  1  0  0  0
 16 17  1  0  0  0
 24 19  1  0  0  0
  6  1  1  0  0  0
 17  7  1  0  0  0
 17 11  2  0  0  0
 16 18  1  0  0  0
M  END
> <minimizedAffinity>
-7.55136

> <CNNscore>
0.3211169541

> <CNNaffinity>
5.9983119965

> <CNN_VS>
1.9261596203

> <CNNaffinity_variance>
0.0475061610

$$$$
[H]c1nc(N2C([H])([H])C([H])([H])N(c3c([H])c([H])c([H])c([H])c3OC([H])([H])[H])C([H])([H])C2([H])[H])c2c(n1)n(C([H])([H])[H])c(=O)n2[H]


 26 29  0  0  0  0  0  0  0  0999 V2000
  154.1190  137.4392  187.7346 N   0  0  0  0  0  0  0  0  0  0  0  0
  154.6766  137.8249  186.4621 C   0  0  0  0  0  0  0  0  0  0  0  0
  154.1811  136.7692  185.4504 C   0  0  0  0  0  0  0  0  0  0  0  0
  152.7863  137.0801  185.2814 N   0  0  0  0  0  0  0  0  0  0  0  0
  152.0251  137.4487  186.4258 C   0  0  0  0  0  0  0  0  0  0  0  0
  152.7173  137.0810  187.7314 C   0  0  0  0  0  0  0  0  0  0  0  0
  152.1891  137.0222  184.0077 C   0  0  0  0  0  0  0  0  0  0  0  0
  151.3600  136.0458  183.6174 N   0  0  0  0  0  0  0  0  0  0  0  0
  150.8450  136.0929  182.3804 C   0  0  0  0  0  0  0  0  0  0  0  0
  151.1116  137.0719  181.4940 N   0  0  0  0  0  0  0  0  0  0  0  0
  151.9327  138.0711  181.8308 C   0  0  0  0  0  0  0  0  0  0  0  0
  152.3559  139.1448  181.1521 N   0  0  0  0  0  0  0  0  0  0  0  0
  152.0276  139.5513  179.7918 C   0  0  0  0  0  0  0  0  0  0  0  0
  153.1715  139.8074  181.9865 C   0  0  0  0  0  0  0  0  0  0  0  0
  153.7878  140.8733  181.7555 O   0  0  0  0  0  0  0  0  0  0  0  0
  153.2538  139.1564  183.1647 N   0  0  0  0  0  0  0  0  0  0  0  0
  152.4751  138.0446  183.0984 C   0  0  0  0  0  0  0  0  0  0  0  0
  153.8228  139.4610  183.9861 H   0  0  0  0  0  0  0  0  0  0  0  0
  155.6709  136.3558  189.2958 C   0  0  0  0  0  0  0  0  0  0  0  0
  156.3839  136.3951  190.5036 C   0  0  0  0  0  0  0  0  0  0  0  0
  156.2748  137.5005  191.3047 C   0  0  0  0  0  0  0  0  0  0  0  0
  155.4914  138.5846  190.9780 C   0  0  0  0  0  0  0  0  0  0  0  0
  154.8030  138.5279  189.7956 C   0  0  0  0  0  0  0  0  0  0  0  0
  154.8754  137.4250  188.9360 C   0  0  0  0  0  0  0  0  0  0  0  0
  156.8806  134.9646  187.6545 C   0  0  0  0  0  0  0  0  0  0  0  0
  155.7692  135.2504  188.4750 O   0  0  0  0  0  0  0  0  0  0  0  0
 25 26  1  0  0  0
 26 19  1  0  0  0
 19 20  2  0  0  0
 20 21  1  0  0  0
 21 22  2  0  0  0
 22 23  1  0  0  0
 23 24  2  0  0  0
 24  1  1  0  0  0
  1  2  1  0  0  0
  2  3  1  0  0  0
  3  4  1  0  0  0
  4  5  1  0  0  0
  5  6  1  0  0  0
  4  7  1  0  0  0
  7  8  2  0  0  0
  8  9  1  0  0  0
  9 10  2  0  0  0
 10 11  1  0  0  0
 11 12  1  0  0  0
 12 13  1  0  0  0
 12 14  1  0  0  0
 14 15  2  0  0  0
 14 16  1  0  0  0
 16 17  1  0  0  0
 24 19  1  0  0  0
  6  1  1  0  0  0
 17  7  1  0  0  0
 17 11  2  0  0  0
 16 18  1  0  0  0
M  END
> <minimizedAffinity>
-6.06772

> <CNNscore>
0.3160323203

> <CNNaffinity>
5.0257143974

> <CNN_VS>
1.5882881880

> <CNNaffinity_variance>
0.2150603831

$$$$
[H]c1nc(N2C([H])([H])C([H])([H])N(c3c([H])c([H])c([H])c([H])c3OC([H])([H])[H])C([H])([H])C2([H])[H])c2c(n1)n(C([H])([H])[H])c(=O)n2[H]


 26 29  0  0  0  0  0  0  0  0999 V2000
  154.1545  136.9856  187.9415 N   0  0  0  0  0  0  0  0  0  0  0  0
  155.2986  137.2822  187.1157 C   0  0  0  0  0  0  0  0  0  0  0  0
  154.7877  137.2353  185.6596 C   0  0  0  0  0  0  0  0  0  0  0  0
  153.9980  138.4314  185.5315 N   0  0  0  0  0  0  0  0  0  0  0  0
  153.1613  138.8170  186.6160 C   0  0  0  0  0  0  0  0  0  0  0  0
  152.9326  137.6852  187.6089 C   0  0  0  0  0  0  0  0  0  0  0  0
  154.0553  139.2047  184.3563 C   0  0  0  0  0  0  0  0  0  0  0  0
  154.8872  140.2400  184.1856 N   0  0  0  0  0  0  0  0  0  0  0  0
  154.8592  140.9049  183.0217 C   0  0  0  0  0  0  0  0  0  0  0  0
  154.0374  140.5942  182.0002 N   0  0  0  0  0  0  0  0  0  0  0  0
  153.1865  139.5703  182.1166 C   0  0  0  0  0  0  0  0  0  0  0  0
  152.2814  139.0625  181.2707 N   0  0  0  0  0  0  0  0  0  0  0  0
  151.9502  139.4983  179.9202 C   0  0  0  0  0  0  0  0  0  0  0  0
  151.7102  138.0357  181.9187 C   0  0  0  0  0  0  0  0  0  0  0  0
  150.8069  137.2796  181.4925 O   0  0  0  0  0  0  0  0  0  0  0  0
  152.2515  137.9071  183.1472 N   0  0  0  0  0  0  0  0  0  0  0  0
  153.1967  138.8708  183.3050 C   0  0  0  0  0  0  0  0  0  0  0  0
  151.9842  137.1859  183.8540 H   0  0  0  0  0  0  0  0  0  0  0  0
  154.3996  136.5029  190.3345 C   0  0  0  0  0  0  0  0  0  0  0  0
  154.4550  135.5587  191.3709 C   0  0  0  0  0  0  0  0  0  0  0  0
  154.3143  134.2304  191.0688 C   0  0  0  0  0  0  0  0  0  0  0  0
  154.1196  133.7736  189.7846 C   0  0  0  0  0  0  0  0  0  0  0  0
  154.0685  134.7097  188.7865 C   0  0  0  0  0  0  0  0  0  0  0  0
  154.2056  136.0810  189.0345 C   0  0  0  0  0  0  0  0  0  0  0  0
  155.7209  138.4374  191.1120 C   0  0  0  0  0  0  0  0  0  0  0  0
  154.5383  137.8463  190.6201 O   0  0  0  0  0  0  0  0  0  0  0  0
 25 26  1  0  0  0
 26 19  1  0  0  0
 19 20  2  0  0  0
 20 21  1  0  0  0
 21 22  2  0  0  0
 22 23  1  0  0  0
 23 24  2  0  0  0
 24  1  1  0  0  0
  1  2  1  0  0  0
  2  3  1  0  0  0
  3  4  1  0  0  0
  4  5  1  0  0  0
  5  6  1  0  0  0
  4  7  1  0  0  0
  7  8  2  0  0  0
  8  9  1  0  0  0
  9 10  2  0  0  0
 10 11  1  0  0  0
 11 12  1  0  0  0
 12 13  1  0  0  0
 12 14  1  0  0  0
 14 15  2  0  0  0
 14 16  1  0  0  0
 16 17  1  0  0  0
 24 19  1  0  0  0
  6  1  1  0  0  0
 17  7  1  0  0  0
 17 11  2  0  0  0
 16 18  1  0  0  0
M  END
> <minimizedAffinity>
-5.20022

> <CNNscore>
0.2834124267

> <CNNaffinity>
5.0102019310

> <CNN_VS>
1.4199534655

> <CNNaffinity_variance>
0.0977427736

$$$$
[H]c1nc(N2C([H])([H])C([H])([H])N(c3c([H])c([H])c([H])c([H])c3OC([H])([H])[H])C([H])([H])C2([H])[H])c2c(n1)n(C([H])([H])[H])c(=O)n2[H]


 26 29  0  0  0  0  0  0  0  0999 V2000
  154.3866  136.2750  188.1573 N   0  0  0  0  0  0  0  0  0  0  0  0
  154.8960  136.4334  186.8178 C   0  0  0  0  0  0  0  0  0  0  0  0
  153.8598  135.7591  185.8931 C   0  0  0  0  0  0  0  0  0  0  0  0
  152.7428  136.6662  185.9061 N   0  0  0  0  0  0  0  0  0  0  0  0
  152.3748  137.2790  187.1364 C   0  0  0  0  0  0  0  0  0  0  0  0
  152.9844  136.5788  188.3435 C   0  0  0  0  0  0  0  0  0  0  0  0
  152.0307  136.9420  184.7232 C   0  0  0  0  0  0  0  0  0  0  0  0
  150.8827  136.3402  184.3873 N   0  0  0  0  0  0  0  0  0  0  0  0
  150.2870  136.6836  183.2363 C   0  0  0  0  0  0  0  0  0  0  0  0
  150.7758  137.6069  182.3854 N   0  0  0  0  0  0  0  0  0  0  0  0
  151.9185  138.2383  182.6709 C   0  0  0  0  0  0  0  0  0  0  0  0
  152.6076  139.1770  182.0104 N   0  0  0  0  0  0  0  0  0  0  0  0
  152.2958  139.8090  180.7349 C   0  0  0  0  0  0  0  0  0  0  0  0
  153.6832  139.4425  182.7675 C   0  0  0  0  0  0  0  0  0  0  0  0
  154.5974  140.2634  182.5232 O   0  0  0  0  0  0  0  0  0  0  0  0
  153.6628  138.6814  183.8806 N   0  0  0  0  0  0  0  0  0  0  0  0
  152.5500  137.9020  183.8498 C   0  0  0  0  0  0  0  0  0  0  0  0
  154.3848  138.6935  184.6356 H   0  0  0  0  0  0  0  0  0  0  0  0
  155.7103  136.7643  190.1642 C   0  0  0  0  0  0  0  0  0  0  0  0
  156.5185  136.3014  191.2136 C   0  0  0  0  0  0  0  0  0  0  0  0
  156.7837  134.9612  191.3076 C   0  0  0  0  0  0  0  0  0  0  0  0
  156.2905  134.0382  190.4128 C   0  0  0  0  0  0  0  0  0  0  0  0
  155.5039  134.5088  189.3954 C   0  0  0  0  0  0  0  0  0  0  0  0
  155.1983  135.8673  189.2483 C   0  0  0  0  0  0  0  0  0  0  0  0
  155.0281  138.9315  191.1288 C   0  0  0  0  0  0  0  0  0  0  0  0
  155.4314  138.1117  190.0540 O   0  0  0  0  0  0  0  0  0  0  0  0
 25 26  1  0  0  0
 26 19  1  0  0  0
 19 20  2  0  0  0
 20 21  1  0  0  0
 21 22  2  0  0  0
 22 23  1  0  0  0
 23 24  2  0  0  0
 24  1  1  0  0  0
  1  2  1  0  0  0
  2  3  1  0  0  0
  3  4  1  0  0  0
  4  5  1  0  0  0
  5  6  1  0  0  0
  4  7  1  0  0  0
  7  8  2  0  0  0
  8  9  1  0  0  0
  9 10  2  0  0  0
 10 11  1  0  0  0
 11 12  1  0  0  0
 12 13  1  0  0  0
 12 14  1  0  0  0
 14 15  2  0  0  0
 14 16  1  0  0  0
 16 17  1  0  0  0
 24 19  1  0  0  0
  6  1  1  0  0  0
 17  7  1  0  0  0
 17 11  2  0  0  0
 16 18  1  0  0  0
M  END
> <minimizedAffinity>
-4.99762

> <CNNscore>
0.2535279393

> <CNNaffinity>
4.9798212051

> <CNN_VS>
1.2625237703

> <CNNaffinity_variance>
0.0423643254

$$$$
[H]c1nc(N2C([H])([H])C([H])([H])N(c3c([H])c([H])c([H])c([H])c3OC([H])([H])[H])C([H])([H])C2([H])[H])c2c(n1)n(C([H])([H])[H])c(=O)n2[H]


 26 29  0  0  0  0  0  0  0  0999 V2000
  154.6003  137.4657  187.7485 N   0  0  0  0  0  0  0  0  0  0  0  0
  153.4179  137.4819  186.9235 C   0  0  0  0  0  0  0  0  0  0  0  0
  153.3044  138.9232  186.3822 C   0  0  0  0  0  0  0  0  0  0  0  0
  154.3599  139.0109  185.4080 N   0  0  0  0  0  0  0  0  0  0  0  0
  155.6150  138.4096  185.7048 C   0  0  0  0  0  0  0  0  0  0  0  0
  155.7761  138.0933  187.1856 C   0  0  0  0  0  0  0  0  0  0  0  0
  154.1520  139.6770  184.1852 C   0  0  0  0  0  0  0  0  0  0  0  0
  154.6762  140.8733  183.8900 N   0  0  0  0  0  0  0  0  0  0  0  0
  154.4148  141.4142  182.6914 C   0  0  0  0  0  0  0  0  0  0  0  0
  153.6488  140.8237  181.7533 N   0  0  0  0  0  0  0  0  0  0  0  0
  153.1004  139.6293  181.9950 C   0  0  0  0  0  0  0  0  0  0  0  0
  152.3146  138.8417  181.2502 N   0  0  0  0  0  0  0  0  0  0  0  0
  151.8104  139.0696  179.9021 C   0  0  0  0  0  0  0  0  0  0  0  0
  152.0649  137.7581  182.0012 C   0  0  0  0  0  0  0  0  0  0  0  0
  151.3677  136.7651  181.6897 O   0  0  0  0  0  0  0  0  0  0  0  0
  152.6855  137.8702  183.1933 N   0  0  0  0  0  0  0  0  0  0  0  0
  153.3549  139.0525  183.2215 C   0  0  0  0  0  0  0  0  0  0  0  0
  152.6525  137.1633  183.9617 H   0  0  0  0  0  0  0  0  0  0  0  0
  155.0237  135.5448  189.2149 C   0  0  0  0  0  0  0  0  0  0  0  0
  155.0269  134.9957  190.5060 C   0  0  0  0  0  0  0  0  0  0  0  0
  154.6454  135.7788  191.5628 C   0  0  0  0  0  0  0  0  0  0  0  0
  154.2551  137.0910  191.4167 C   0  0  0  0  0  0  0  0  0  0  0  0
  154.2582  137.6093  190.1492 C   0  0  0  0  0  0  0  0  0  0  0  0
  154.6382  136.8574  189.0307 C   0  0  0  0  0  0  0  0  0  0  0  0
  156.7452  134.4899  187.7950 C   0  0  0  0  0  0  0  0  0  0  0  0
  155.4060  134.7709  188.1376 O   0  0  0  0  0  0  0  0  0  0  0  0
 25 26  1  0  0  0
 26 19  1  0  0  0
 19 20  2  0  0  0
 20 21  1  0  0  0
 21 22  2  0  0  0
 22 23  1  0  0  0
 23 24  2  0  0  0
 24  1  1  0  0  0
  1  2  1  0  0  0
  2  3  1  0  0  0
  3  4  1  0  0  0
  4  5  1  0  0  0
  5  6  1  0  0  0
  4  7  1  0  0  0
  7  8  2  0  0  0
  8  9  1  0  0  0
  9 10  2  0  0  0
 10 11  1  0  0  0
 11 12  1  0  0  0
 12 13  1  0  0  0
 12 14  1  0  0  0
 14 15  2  0  0  0
 14 16  1  0  0  0
 16 17  1  0  0  0
 24 19  1  0  0  0
  6  1  1  0  0  0
 17  7  1  0  0  0
 17 11  2  0  0  0
 16 18  1  0  0  0
M  END
> <minimizedAffinity>
-5.46312

> <CNNscore>
0.2329135537

> <CNNaffinity>
5.0545482635

> <CNN_VS>
1.1772727966

> <CNNaffinity_variance>
0.0871585160

$$$$
[H]c1nc(N2C([H])([H])C([H])([H])N(c3c([H])c([H])c([H])c([H])c3OC([H])([H])[H])C([H])([H])C2([H])[H])c2c(n1)n(C([H])([H])[H])c(=O)n2[H]


 26 29  0  0  0  0  0  0  0  0999 V2000
  153.9068  137.3811  187.6861 N   0  0  0  0  0  0  0  0  0  0  0  0
  153.1262  138.4345  187.0862 C   0  0  0  0  0  0  0  0  0  0  0  0
  153.4799  138.4144  185.5836 C   0  0  0  0  0  0  0  0  0  0  0  0
  152.8277  137.2301  185.0907 N   0  0  0  0  0  0  0  0  0  0  0  0
  152.8524  136.0535  185.8907 C   0  0  0  0  0  0  0  0  0  0  0  0
  153.9073  136.1143  186.9872 C   0  0  0  0  0  0  0  0  0  0  0  0
  152.1769  137.2382  183.8422 C   0  0  0  0  0  0  0  0  0  0  0  0
  152.8186  137.2859  182.6680 N   0  0  0  0  0  0  0  0  0  0  0  0
  152.0969  137.2854  181.5380 C   0  0  0  0  0  0  0  0  0  0  0  0
  150.7507  137.2393  181.5081 N   0  0  0  0  0  0  0  0  0  0  0  0
  150.0595  137.1907  182.6509 C   0  0  0  0  0  0  0  0  0  0  0  0
  148.7443  137.1405  182.8960 N   0  0  0  0  0  0  0  0  0  0  0  0
  147.6396  137.1224  181.9458 C   0  0  0  0  0  0  0  0  0  0  0  0
  148.6217  137.1083  184.2319 C   0  0  0  0  0  0  0  0  0  0  0  0
  147.5594  137.0583  184.8939 O   0  0  0  0  0  0  0  0  0  0  0  0
  149.8409  137.1376  184.8077 N   0  0  0  0  0  0  0  0  0  0  0  0
  150.7800  137.1902  183.8267 C   0  0  0  0  0  0  0  0  0  0  0  0
  150.0252  137.1226  185.8358 H   0  0  0  0  0  0  0  0  0  0  0  0
  154.0303  137.3825  190.1365 C   0  0  0  0  0  0  0  0  0  0  0  0
  154.7876  137.5746  191.3018 C   0  0  0  0  0  0  0  0  0  0  0  0
  156.1070  137.9234  191.1877 C   0  0  0  0  0  0  0  0  0  0  0  0
  156.7309  138.0963  189.9726 C   0  0  0  0  0  0  0  0  0  0  0  0
  155.9757  137.9046  188.8465 C   0  0  0  0  0  0  0  0  0  0  0  0
  154.6229  137.5472  188.9006 C   0  0  0  0  0  0  0  0  0  0  0  0
  152.2397  135.7594  190.6384 C   0  0  0  0  0  0  0  0  0  0  0  0
  152.6992  137.0296  190.2318 O   0  0  0  0  0  0  0  0  0  0  0  0
 25 26  1  0  0  0
 26 19  1  0  0  0
 19 20  2  0  0  0
 20 21  1  0  0  0
 21 22  2  0  0  0
 22 23  1  0  0  0
 23 24  2  0  0  0
 24  1  1  0  0  0
  1  2  1  0  0  0
  2  3  1  0  0  0
  3  4  1  0  0  0
  4  5  1  0  0  0
  5  6  1  0  0  0
  4  7  1  0  0  0
  7  8  2  0  0  0
  8  9  1  0  0  0
  9 10  2  0  0  0
 10 11  1  0  0  0
 11 12  1  0  0  0
 12 13  1  0  0  0
 12 14  1  0  0  0
 14 15  2  0  0  0
 14 16  1  0  0  0
 16 17  1  0  0  0
 24 19  1  0  0  0
  6  1  1  0  0  0
 17  7  1  0  0  0
 17 11  2  0  0  0
 16 18  1  0  0  0
M  END
> <minimizedAffinity>
-5.13963

> <CNNscore>
0.2044343948

> <CNNaffinity>
4.9196782112

> <CNN_VS>
1.0057514906

> <CNNaffinity_variance>
0.0401613228

$$$$
[H]c1nc(N2C([H])([H])C([H])([H])N(c3c([H])c([H])c([H])c([H])c3OC([H])([H])[H])C([H])([H])C2([H])[H])c2c(n1)n(C([H])([H])[H])c(=O)n2[H]


 26 29  0  0  0  0  0  0  0  0999 V2000
  154.7448  137.8268  187.8278 N   0  0  0  0  0  0  0  0  0  0  0  0
  155.5071  138.0412  186.6229 C   0  0  0  0  0  0  0  0  0  0  0  0
  154.7092  137.3532  185.4944 C   0  0  0  0  0  0  0  0  0  0  0  0
  153.5745  138.2160  185.2976 N   0  0  0  0  0  0  0  0  0  0  0  0
  152.9394  138.7804  186.4390 C   0  0  0  0  0  0  0  0  0  0  0  0
  153.3221  138.0714  187.7312 C   0  0  0  0  0  0  0  0  0  0  0  0
  153.1051  138.4965  184.0002 C   0  0  0  0  0  0  0  0  0  0  0  0
  153.5863  139.4810  183.2305 N   0  0  0  0  0  0  0  0  0  0  0  0
  153.0661  139.6563  182.0073 C   0  0  0  0  0  0  0  0  0  0  0  0
  152.0780  138.8959  181.4966 N   0  0  0  0  0  0  0  0  0  0  0  0
  151.5606  137.8996  182.2216 C   0  0  0  0  0  0  0  0  0  0  0  0
  150.5923  137.0138  181.9569 N   0  0  0  0  0  0  0  0  0  0  0  0
  149.7897  136.8741  180.7487 C   0  0  0  0  0  0  0  0  0  0  0  0
  150.4902  136.2447  183.0518 C   0  0  0  0  0  0  0  0  0  0  0  0
  149.7037  135.2868  183.2337 O   0  0  0  0  0  0  0  0  0  0  0  0
  151.3807  136.6458  183.9818 N   0  0  0  0  0  0  0  0  0  0  0  0
  152.0794  137.6996  183.4836 C   0  0  0  0  0  0  0  0  0  0  0  0
  151.5066  136.2146  184.9249 H   0  0  0  0  0  0  0  0  0  0  0  0
  155.6663  136.1063  189.3145 C   0  0  0  0  0  0  0  0  0  0  0  0
  156.2355  135.7651  190.5507 C   0  0  0  0  0  0  0  0  0  0  0  0
  156.4531  136.7498  191.4772 C   0  0  0  0  0  0  0  0  0  0  0  0
  156.1365  138.0705  191.2511 C   0  0  0  0  0  0  0  0  0  0  0  0
  155.5817  138.3842  190.0391 C   0  0  0  0  0  0  0  0  0  0  0  0
  155.3361  137.4209  189.0530 C   0  0  0  0  0  0  0  0  0  0  0  0
  156.4538  134.5063  187.6080 C   0  0  0  0  0  0  0  0  0  0  0  0
  155.4405  135.1274  188.3678 O   0  0  0  0  0  0  0  0  0  0  0  0
 25 26  1  0  0  0
 26 19  1  0  0  0
 19 20  2  0  0  0
 20 21  1  0  0  0
 21 22  2  0  0  0
 22 23  1  0  0  0
 23 24  2  0  0  0
 24  1  1  0  0  0
  1  2  1  0  0  0
  2  3  1  0  0  0
  3  4  1  0  0  0
  4  5  1  0  0  0
  5  6  1  0  0  0
  4  7  1  0  0  0
  7  8  2  0  0  0
  8  9  1  0  0  0
  9 10  2  0  0  0
 10 11  1  0  0  0
 11 12  1  0  0  0
 12 13  1  0  0  0
 12 14  1  0  0  0
 14 15  2  0  0  0
 14 16  1  0  0  0
 16 17  1  0  0  0
 24 19  1  0  0  0
  6  1  1  0  0  0
 17  7  1  0  0  0
 17 11  2  0  0  0
 16 18  1  0  0  0
M  END
> <minimizedAffinity>
-5.12483

> <CNNscore>
0.1853302568

> <CNNaffinity>
4.9419927597

> <CNN_VS>
0.9159007668

> <CNNaffinity_variance>
0.1782986075

$$$$
[H]c1nc(N2C([H])([H])C([H])([H])N(c3c([H])c([H])c([H])c([H])c3OC([H])([H])[H])C([H])([H])C2([H])[H])c2c(n1)n(C([H])([H])[H])c(=O)n2[H]


 26 29  0  0  0  0  0  0  0  0999 V2000
  153.5685  136.9557  188.1654 N   0  0  0  0  0  0  0  0  0  0  0  0
  152.5230  137.6517  187.4573 C   0  0  0  0  0  0  0  0  0  0  0  0
  153.1868  138.9130  186.8640 C   0  0  0  0  0  0  0  0  0  0  0  0
  153.9987  138.4041  185.7905 N   0  0  0  0  0  0  0  0  0  0  0  0
  154.7183  137.1933  185.9931 C   0  0  0  0  0  0  0  0  0  0  0  0
  154.8266  136.8170  187.4647 C   0  0  0  0  0  0  0  0  0  0  0  0
  154.0764  139.0911  184.5639 C   0  0  0  0  0  0  0  0  0  0  0  0
  154.9602  140.0644  184.3100 N   0  0  0  0  0  0  0  0  0  0  0  0
  154.9471  140.6490  183.1035 C   0  0  0  0  0  0  0  0  0  0  0  0
  154.0908  140.3156  182.1181 N   0  0  0  0  0  0  0  0  0  0  0  0
  153.1876  139.3510  182.3173 C   0  0  0  0  0  0  0  0  0  0  0  0
  152.2408  138.8380  181.5219 N   0  0  0  0  0  0  0  0  0  0  0  0
  151.9090  139.1985  180.1495 C   0  0  0  0  0  0  0  0  0  0  0  0
  151.6265  137.8910  182.2475 C   0  0  0  0  0  0  0  0  0  0  0  0
  150.6757  137.1591  181.8878 O   0  0  0  0  0  0  0  0  0  0  0  0
  152.1826  137.8166  183.4739 N   0  0  0  0  0  0  0  0  0  0  0  0
  153.1816  138.7347  183.5509 C   0  0  0  0  0  0  0  0  0  0  0  0
  151.8894  137.1611  184.2327 H   0  0  0  0  0  0  0  0  0  0  0  0
  152.8932  135.1405  189.6717 C   0  0  0  0  0  0  0  0  0  0  0  0
  152.7266  134.6640  190.9808 C   0  0  0  0  0  0  0  0  0  0  0  0
  153.0631  135.4750  192.0318 C   0  0  0  0  0  0  0  0  0  0  0  0
  153.5614  136.7474  191.8629 C   0  0  0  0  0  0  0  0  0  0  0  0
  153.7168  137.1951  190.5782 C   0  0  0  0  0  0  0  0  0  0  0  0
  153.3904  136.4116  189.4645 C   0  0  0  0  0  0  0  0  0  0  0  0
  151.2383  134.0489  188.2013 C   0  0  0  0  0  0  0  0  0  0  0  0
  152.5604  134.3369  188.5998 O   0  0  0  0  0  0  0  0  0  0  0  0
 25 26  1  0  0  0
 26 19  1  0  0  0
 19 20  2  0  0  0
 20 21  1  0  0  0
 21 22  2  0  0  0
 22 23  1  0  0  0
 23 24  2  0  0  0
 24  1  1  0  0  0
  1  2  1  0  0  0
  2  3  1  0  0  0
  3  4  1  0  0  0
  4  5  1  0  0  0
  5  6  1  0  0  0
  4  7  1  0  0  0
  7  8  2  0  0  0
  8  9  1  0  0  0
  9 10  2  0  0  0
 10 11  1  0  0  0
 11 12  1  0  0  0
 12 13  1  0  0  0
 12 14  1  0  0  0
 14 15  2  0  0  0
 14 16  1  0  0  0
 16 17  1  0  0  0
 24 19  1  0  0  0
  6  1  1  0  0  0
 17  7  1  0  0  0
 17 11  2  0  0  0
 16 18  1  0  0  0
M  END
> <minimizedAffinity>
-5.01226

> <CNNscore>
0.1802408695

> <CNNaffinity>
4.8476390839

> <CNN_VS>
0.8737426996

> <CNNaffinity_variance>
0.0532662459

$$$$
[H]c1c([H])c([H])c(S(=O)(=O)[C@@]2([H])C([H])([H])N(C(=O)C3(C#N)C([H])([H])C3([H])[H])[C@]([H])(C(=O)N([H])[C@]([H])(C(=O)C(=O)N([H])C3([H])C([H])([H])C3([H])[H])C([H])([H])C([H])([H])[H])C2([H])[H])c(Cl)c1[H]


 38 41  0  0  0  0  0  0  0  0999 V2000
  153.2432  138.6480  184.5459 C   0  0  0  0  0  0  0  0  0  0  0  0
  153.6194  138.3801  186.0459 C   0  0  0  0  0  0  0  0  0  0  0  0
  154.3685  137.1145  185.8618 C   0  0  0  0  0  0  0  0  0  0  0  0
  153.3968  136.3633  184.9471 C   0  0  0  0  0  0  0  0  0  0  0  0
  152.8735  137.3750  184.0563 N   0  0  0  0  0  0  0  0  0  0  0  0
  152.1103  136.9970  182.9105 C   0  0  0  0  0  0  0  0  0  0  0  0
  151.9761  135.7272  182.7417 O   0  0  0  0  0  0  0  0  0  0  0  0
  155.0244  140.4590  184.3787 N   0  0  0  0  0  0  0  0  0  0  0  0
  154.4209  139.2669  183.9488 C   0  0  0  0  0  0  0  0  0  0  0  0
  154.9283  138.6607  182.9576 O   0  0  0  0  0  0  0  0  0  0  0  0
  154.7193  141.0580  185.1727 H   0  0  0  0  0  0  0  0  0  0  0  0
  156.2216  140.9927  183.6911 C   0  0  0  0  0  0  0  0  0  0  0  0
  154.6898  142.9776  183.6891 C   0  0  0  0  0  0  0  0  0  0  0  0
  156.1069  142.5005  183.6117 C   0  0  0  0  0  0  0  0  0  0  0  0
  157.4340  140.5578  184.4082 C   0  0  0  0  0  0  0  0  0  0  0  0
  157.3252  139.7274  185.3410 O   0  0  0  0  0  0  0  0  0  0  0  0
  158.7352  141.0734  184.0488 C   0  0  0  0  0  0  0  0  0  0  0  0
  159.2233  141.0123  182.8863 O   0  0  0  0  0  0  0  0  0  0  0  0
  159.5649  141.7025  185.0346 N   0  0  0  0  0  0  0  0  0  0  0  0
  159.1900  141.7662  185.9957 H   0  0  0  0  0  0  0  0  0  0  0  0
  160.8701  142.2343  184.7301 C   0  0  0  0  0  0  0  0  0  0  0  0
  161.6292  142.7806  185.9287 C   0  0  0  0  0  0  0  0  0  0  0  0
  161.0264  143.7093  184.9031 C   0  0  0  0  0  0  0  0  0  0  0  0
  151.4705  137.8490  181.9196 C   0  0  0  0  0  0  0  0  0  0  0  0
  150.1419  137.3298  181.3409 C   0  0  0  0  0  0  0  0  0  0  0  0
  150.0803  138.3644  182.3717 C   0  0  0  0  0  0  0  0  0  0  0  0
  152.2026  138.7409  181.0369 C   0  0  0  0  0  0  0  0  0  0  0  0
  152.7676  139.4827  180.3358 N   0  0  0  0  0  0  0  0  0  0  0  0
  154.7829  136.1745  187.2606 S   0  0  0  0  0  0  0  0  0  0  0  0
  156.0443  135.3752  186.9714 O   0  0  0  0  0  0  0  0  0  0  0  0
  153.7209  135.1107  187.5141 O   0  0  0  0  0  0  0  0  0  0  0  0
  155.0738  137.0519  188.7227 C   0  0  0  0  0  0  0  0  0  0  0  0
  156.3917  137.4320  188.9902 C   0  0  0  0  0  0  0  0  0  0  0  0
  156.7342  138.0726  190.1457 C   0  0  0  0  0  0  0  0  0  0  0  0
  155.7617  138.3551  191.0764 C   0  0  0  0  0  0  0  0  0  0  0  0
  154.4706  137.9923  190.8301 C   0  0  0  0  0  0  0  0  0  0  0  0
  154.1150  137.3439  189.6611 C   0  0  0  0  0  0  0  0  0  0  0  0
  152.4262  136.9635  189.3398 Cl  0  0  0  0  0  0  0  0  0  0  0  0
 13 14  1  0  0  0
 14 12  1  0  0  0
 12  8  1  0  0  0
  8  9  1  0  0  0
  9 10  2  0  0  0
  9  1  1  0  0  0
  1  2  1  0  0  0
  2  3  1  0  0  0
  3  4  1  0  0  0
  4  5  1  0  0  0
  5  6  1  0  0  0
  6  7  2  0  0  0
  6 24  1  0  0  0
 24 25  1  0  0  0
 25 26  1  0  0  0
 24 27  1  0  0  0
 27 28  3  0  0  0
  3 29  1  0  0  0
 29 30  2  0  0  0
 29 31  2  0  0  0
 29 32  1  0  0  0
 32 33  2  0  0  0
 33 34  1  0  0  0
 34 35  2  0  0  0
 35 36  1  0  0  0
 36 37  2  0  0  0
 37 38  1  0  0  0
 12 15  1  0  0  0
 15 16  2  0  0  0
 15 17  1  0  0  0
 17 18  2  0  0  0
 17 19  1  0  0  0
 19 21  1  0  0  0
 21 22  1  0  0  0
 22 23  1  0  0  0
  5  1  1  0  0  0
 26 24  1  0  0  0
 37 32  1  0  0  0
 23 21  1  0  0  0
  8 11  1  0  0  0
 19 20  1  0  0  0
M  END
> <minimizedAffinity>
-7.30934

> <CNNscore>
0.2968387604

> <CNNaffinity>
6.6221199036

> <CNN_VS>
1.9657018185

> <CNNaffinity_variance>
0.2010568827

$$$$
[H]c1c([H])c([H])c(S(=O)(=O)[C@@]2([H])C([H])([H])N(C(=O)C3(C#N)C([H])([H])C3([H])[H])[C@]([H])(C(=O)N([H])[C@]([H])(C(=O)C(=O)N([H])C3([H])C([H])([H])C3([H])[H])C([H])([H])C([H])([H])[H])C2([H])[H])c(Cl)c1[H]


 38 41  0  0  0  0  0  0  0  0999 V2000
  153.7622  139.0894  184.8670 C   0  0  0  0  0  0  0  0  0  0  0  0
  153.7845  138.5707  186.3480 C   0  0  0  0  0  0  0  0  0  0  0  0
  154.2909  137.2012  186.0934 C   0  0  0  0  0  0  0  0  0  0  0  0
  153.3833  136.7967  184.9282 C   0  0  0  0  0  0  0  0  0  0  0  0
  153.2496  137.9965  184.1324 N   0  0  0  0  0  0  0  0  0  0  0  0
  152.6602  137.9342  182.8336 C   0  0  0  0  0  0  0  0  0  0  0  0
  152.3135  136.7545  182.4502 O   0  0  0  0  0  0  0  0  0  0  0  0
  155.5071  140.6781  183.9120 N   0  0  0  0  0  0  0  0  0  0  0  0
  155.1307  139.4978  184.5718 C   0  0  0  0  0  0  0  0  0  0  0  0
  156.0442  138.7052  184.9521 O   0  0  0  0  0  0  0  0  0  0  0  0
  154.8703  141.4155  183.5473 H   0  0  0  0  0  0  0  0  0  0  0  0
  156.9338  140.9870  183.6673 C   0  0  0  0  0  0  0  0  0  0  0  0
  158.6913  139.4456  182.7609 C   0  0  0  0  0  0  0  0  0  0  0  0
  157.4129  140.1739  182.4832 C   0  0  0  0  0  0  0  0  0  0  0  0
  157.0925  142.4372  183.4549 C   0  0  0  0  0  0  0  0  0  0  0  0
  156.0722  143.1402  183.2646 O   0  0  0  0  0  0  0  0  0  0  0  0
  158.4006  143.0511  183.4653 C   0  0  0  0  0  0  0  0  0  0  0  0
  158.7535  143.9760  182.6822 O   0  0  0  0  0  0  0  0  0  0  0  0
  159.3975  142.6210  184.4019 N   0  0  0  0  0  0  0  0  0  0  0  0
  159.1356  141.8644  185.0556 H   0  0  0  0  0  0  0  0  0  0  0  0
  160.7172  143.1994  184.4557 C   0  0  0  0  0  0  0  0  0  0  0  0
  161.8345  142.2079  184.7384 C   0  0  0  0  0  0  0  0  0  0  0  0
  161.3782  143.1844  185.7948 C   0  0  0  0  0  0  0  0  0  0  0  0
  152.4021  139.0170  181.8966 C   0  0  0  0  0  0  0  0  0  0  0  0
  151.5954  138.6435  180.6399 C   0  0  0  0  0  0  0  0  0  0  0  0
  150.8922  139.3230  181.7263 C   0  0  0  0  0  0  0  0  0  0  0  0
  153.2862  140.1572  181.7261 C   0  0  0  0  0  0  0  0  0  0  0  0
  154.0118  141.0560  181.5625 N   0  0  0  0  0  0  0  0  0  0  0  0
  154.2370  136.0352  187.3778 S   0  0  0  0  0  0  0  0  0  0  0  0
  155.4964  135.1833  187.3344 O   0  0  0  0  0  0  0  0  0  0  0  0
  153.1083  135.0390  187.1380 O   0  0  0  0  0  0  0  0  0  0  0  0
  154.1149  136.6616  188.9855 C   0  0  0  0  0  0  0  0  0  0  0  0
  153.0071  136.2710  189.7426 C   0  0  0  0  0  0  0  0  0  0  0  0
  152.7873  136.7583  190.9984 C   0  0  0  0  0  0  0  0  0  0  0  0
  153.6755  137.6582  191.5400 C   0  0  0  0  0  0  0  0  0  0  0  0
  154.7623  138.0485  190.8148 C   0  0  0  0  0  0  0  0  0  0  0  0
  154.9929  137.5585  189.5421 C   0  0  0  0  0  0  0  0  0  0  0  0
  156.4490  138.0213  188.6670 Cl  0  0  0  0  0  0  0  0  0  0  0  0
 13 14  1  0  0  0
 14 12  1  0  0  0
 12  8  1  0  0  0
  8  9  1  0  0  0
  9 10  2  0  0  0
  9  1  1  0  0  0
  1  2  1  0  0  0
  2  3  1  0  0  0
  3  4  1  0  0  0
  4  5  1  0  0  0
  5  6  1  0  0  0
  6  7  2  0  0  0
  6 24  1  0  0  0
 24 25  1  0  0  0
 25 26  1  0  0  0
 24 27  1  0  0  0
 27 28  3  0  0  0
  3 29  1  0  0  0
 29 30  2  0  0  0
 29 31  2  0  0  0
 29 32  1  0  0  0
 32 33  2  0  0  0
 33 34  1  0  0  0
 34 35  2  0  0  0
 35 36  1  0  0  0
 36 37  2  0  0  0
 37 38  1  0  0  0
 12 15  1  0  0  0
 15 16  2  0  0  0
 15 17  1  0  0  0
 17 18  2  0  0  0
 17 19  1  0  0  0
 19 21  1  0  0  0
 21 22  1  0  0  0
 22 23  1  0  0  0
  5  1  1  0  0  0
 26 24  1  0  0  0
 37 32  1  0  0  0
 23 21  1  0  0  0
  8 11  1  0  0  0
 19 20  1  0  0  0
M  END
> <minimizedAffinity>
-7.52757

> <CNNscore>
0.2909109294

> <CNNaffinity>
6.6401138306

> <CNN_VS>
1.9316816330

> <CNNaffinity_variance>
0.3122915328

$$$$
[H]c1c([H])c([H])c(S(=O)(=O)[C@@]2([H])C([H])([H])N(C(=O)C3(C#N)C([H])([H])C3([H])[H])[C@]([H])(C(=O)N([H])[C@]([H])(C(=O)C(=O)N([H])C3([H])C([H])([H])C3([H])[H])C([H])([H])C([H])([H])[H])C2([H])[H])c(Cl)c1[H]


 38 41  0  0  0  0  0  0  0  0999 V2000
  154.7163  140.4133  184.4332 C   0  0  0  0  0  0  0  0  0  0  0  0
  155.7492  141.2771  183.6269 C   0  0  0  0  0  0  0  0  0  0  0  0
  156.4795  140.1760  182.9554 C   0  0  0  0  0  0  0  0  0  0  0  0
  156.7041  139.2423  184.1482 C   0  0  0  0  0  0  0  0  0  0  0  0
  155.4852  139.3325  184.9207 N   0  0  0  0  0  0  0  0  0  0  0  0
  155.2410  138.4141  185.9861 C   0  0  0  0  0  0  0  0  0  0  0  0
  156.1539  137.5210  186.1535 O   0  0  0  0  0  0  0  0  0  0  0  0
  153.1230  138.8118  183.2597 N   0  0  0  0  0  0  0  0  0  0  0  0
  153.6509  140.0917  183.4908 C   0  0  0  0  0  0  0  0  0  0  0  0
  153.1739  141.0654  182.8338 O   0  0  0  0  0  0  0  0  0  0  0  0
  153.4145  137.9271  183.7230 H   0  0  0  0  0  0  0  0  0  0  0  0
  152.0380  138.6067  182.2740 C   0  0  0  0  0  0  0  0  0  0  0  0
  152.0072  139.4252  179.9044 C   0  0  0  0  0  0  0  0  0  0  0  0
  152.6480  138.5004  180.8922 C   0  0  0  0  0  0  0  0  0  0  0  0
  151.2625  137.4076  182.6402 C   0  0  0  0  0  0  0  0  0  0  0  0
  151.8718  136.3833  183.0291 O   0  0  0  0  0  0  0  0  0  0  0  0
  149.8199  137.4016  182.5576 C   0  0  0  0  0  0  0  0  0  0  0  0
  149.0648  136.8694  183.4179 O   0  0  0  0  0  0  0  0  0  0  0  0
  149.1531  138.0236  181.4510 N   0  0  0  0  0  0  0  0  0  0  0  0
  149.7472  138.4675  180.7311 H   0  0  0  0  0  0  0  0  0  0  0  0
  147.7174  138.0471  181.3197 C   0  0  0  0  0  0  0  0  0  0  0  0
  147.2116  138.1479  179.8896 C   0  0  0  0  0  0  0  0  0  0  0  0
  147.1318  139.3290  180.8257 C   0  0  0  0  0  0  0  0  0  0  0  0
  154.1088  138.3558  186.8981 C   0  0  0  0  0  0  0  0  0  0  0  0
  152.7741  138.8939  186.3514 C   0  0  0  0  0  0  0  0  0  0  0  0
  152.9645  137.4450  186.3848 C   0  0  0  0  0  0  0  0  0  0  0  0
  154.2392  138.4285  188.3432 C   0  0  0  0  0  0  0  0  0  0  0  0
  154.3132  138.5038  189.5051 N   0  0  0  0  0  0  0  0  0  0  0  0
  157.9675  140.5336  182.1368 S   0  0  0  0  0  0  0  0  0  0  0  0
  157.6582  141.0942  180.7570 O   0  0  0  0  0  0  0  0  0  0  0  0
  158.7336  139.2473  181.8502 O   0  0  0  0  0  0  0  0  0  0  0  0
  159.0215  141.6667  182.9097 C   0  0  0  0  0  0  0  0  0  0  0  0
  160.0652  141.1478  183.6806 C   0  0  0  0  0  0  0  0  0  0  0  0
  160.9131  141.9571  184.3799 C   0  0  0  0  0  0  0  0  0  0  0  0
  160.7419  143.3210  184.3294 C   0  0  0  0  0  0  0  0  0  0  0  0
  159.7291  143.8435  183.5807 C   0  0  0  0  0  0  0  0  0  0  0  0
  158.8664  143.0303  182.8681 C   0  0  0  0  0  0  0  0  0  0  0  0
  157.6212  143.7424  181.8471 Cl  0  0  0  0  0  0  0  0  0  0  0  0
 13 14  1  0  0  0
 14 12  1  0  0  0
 12  8  1  0  0  0
  8  9  1  0  0  0
  9 10  2  0  0  0
  9  1  1  0  0  0
  1  2  1  0  0  0
  2  3  1  0  0  0
  3  4  1  0  0  0
  4  5  1  0  0  0
  5  6  1  0  0  0
  6  7  2  0  0  0
  6 24  1  0  0  0
 24 25  1  0  0  0
 25 26  1  0  0  0
 24 27  1  0  0  0
 27 28  3  0  0  0
  3 29  1  0  0  0
 29 30  2  0  0  0
 29 31  2  0  0  0
 29 32  1  0  0  0
 32 33  2  0  0  0
 33 34  1  0  0  0
 34 35  2  0  0  0
 35 36  1  0  0  0
 36 37  2  0  0  0
 37 38  1  0  0  0
 12 15  1  0  0  0
 15 16  2  0  0  0
 15 17  1  0  0  0
 17 18  2  0  0  0
 17 19  1  0  0  0
 19 21  1  0  0  0
 21 22  1  0  0  0
 22 23  1  0  0  0
  5  1  1  0  0  0
 26 24  1  0  0  0
 37 32  1  0  0  0
 23 21  1  0  0  0
  8 11  1  0  0  0
 19 20  1  0  0  0
M  END
> <minimizedAffinity>
-7.06885

> <CNNscore>
0.2251218259

> <CNNaffinity>
6.4311928749

> <CNN_VS>
1.4478018284

> <CNNaffinity_variance>
0.2940597236

$$$$
[H]c1c([H])c([H])c(S(=O)(=O)[C@@]2([H])C([H])([H])N(C(=O)C3(C#N)C([H])([H])C3([H])[H])[C@]([H])(C(=O)N([H])[C@]([H])(C(=O)C(=O)N([H])C3([H])C([H])([H])C3([H])[H])C([H])([H])C([H])([H])[H])C2([H])[H])c(Cl)c1[H]


 38 41  0  0  0  0  0  0  0  0999 V2000
  153.3929  136.5992  184.7451 C   0  0  0  0  0  0  0  0  0  0  0  0
  152.1325  136.1282  183.9372 C   0  0  0  0  0  0  0  0  0  0  0  0
  151.1728  137.1540  184.4098 C   0  0  0  0  0  0  0  0  0  0  0  0
  151.4473  137.0986  185.9153 C   0  0  0  0  0  0  0  0  0  0  0  0
  152.8779  136.9176  186.0220 N   0  0  0  0  0  0  0  0  0  0  0  0
  153.5267  137.0569  187.2860 C   0  0  0  0  0  0  0  0  0  0  0  0
  152.7512  137.3806  188.2621 O   0  0  0  0  0  0  0  0  0  0  0  0
  154.9370  138.5995  184.4368 N   0  0  0  0  0  0  0  0  0  0  0  0
  153.9678  137.6956  183.9744 C   0  0  0  0  0  0  0  0  0  0  0  0
  153.5426  137.8267  182.7872 O   0  0  0  0  0  0  0  0  0  0  0  0
  155.3741  138.6120  185.3808 H   0  0  0  0  0  0  0  0  0  0  0  0
  155.4476  139.6769  183.5597 C   0  0  0  0  0  0  0  0  0  0  0  0
  154.0228  141.4928  182.5805 C   0  0  0  0  0  0  0  0  0  0  0  0
  154.6506  140.9376  183.8212 C   0  0  0  0  0  0  0  0  0  0  0  0
  156.8900  139.8633  183.8002 C   0  0  0  0  0  0  0  0  0  0  0  0
  157.3225  139.8180  184.9760 O   0  0  0  0  0  0  0  0  0  0  0  0
  157.8026  140.0943  182.7038 C   0  0  0  0  0  0  0  0  0  0  0  0
  158.5492  139.2062  182.2065 O   0  0  0  0  0  0  0  0  0  0  0  0
  157.9067  141.3938  182.1068 N   0  0  0  0  0  0  0  0  0  0  0  0
  157.3065  142.1406  182.4945 H   0  0  0  0  0  0  0  0  0  0  0  0
  158.7997  141.6786  181.0111 C   0  0  0  0  0  0  0  0  0  0  0  0
  158.6644  143.0760  180.4278 C   0  0  0  0  0  0  0  0  0  0  0  0
  158.1521  141.8699  179.6791 C   0  0  0  0  0  0  0  0  0  0  0  0
  154.9337  136.8822  187.6128 C   0  0  0  0  0  0  0  0  0  0  0  0
  155.8109  138.1434  187.5127 C   0  0  0  0  0  0  0  0  0  0  0  0
  155.3777  137.7160  188.8418 C   0  0  0  0  0  0  0  0  0  0  0  0
  155.6520  135.6341  187.4214 C   0  0  0  0  0  0  0  0  0  0  0  0
  156.2588  134.6499  187.2650 N   0  0  0  0  0  0  0  0  0  0  0  0
  149.4852  136.9469  184.0616 S   0  0  0  0  0  0  0  0  0  0  0  0
  148.6631  137.5366  185.1975 O   0  0  0  0  0  0  0  0  0  0  0  0
  149.1228  135.4662  184.0728 O   0  0  0  0  0  0  0  0  0  0  0  0
  148.9037  137.6669  182.6003 C   0  0  0  0  0  0  0  0  0  0  0  0
  148.1615  138.8451  182.7180 C   0  0  0  0  0  0  0  0  0  0  0  0
  147.6067  139.4563  181.6311 C   0  0  0  0  0  0  0  0  0  0  0  0
  147.7783  138.9038  180.3832 C   0  0  0  0  0  0  0  0  0  0  0  0
  148.5010  137.7551  180.2510 C   0  0  0  0  0  0  0  0  0  0  0  0
  149.0675  137.1302  181.3472 C   0  0  0  0  0  0  0  0  0  0  0  0
  150.0627  135.6940  181.1296 Cl  0  0  0  0  0  0  0  0  0  0  0  0
 13 14  1  0  0  0
 14 12  1  0  0  0
 12  8  1  0  0  0
  8  9  1  0  0  0
  9 10  2  0  0  0
  9  1  1  0  0  0
  1  2  1  0  0  0
  2  3  1  0  0  0
  3  4  1  0  0  0
  4  5  1  0  0  0
  5  6  1  0  0  0
  6  7  2  0  0  0
  6 24  1  0  0  0
 24 25  1  0  0  0
 25 26  1  0  0  0
 24 27  1  0  0  0
 27 28  3  0  0  0
  3 29  1  0  0  0
 29 30  2  0  0  0
 29 31  2  0  0  0
 29 32  1  0  0  0
 32 33  2  0  0  0
 33 34  1  0  0  0
 34 35  2  0  0  0
 35 36  1  0  0  0
 36 37  2  0  0  0
 37 38  1  0  0  0
 12 15  1  0  0  0
 15 16  2  0  0  0
 15 17  1  0  0  0
 17 18  2  0  0  0
 17 19  1  0  0  0
 19 21  1  0  0  0
 21 22  1  0  0  0
 22 23  1  0  0  0
  5  1  1  0  0  0
 26 24  1  0  0  0
 37 32  1  0  0  0
 23 21  1  0  0  0
  8 11  1  0  0  0
 19 20  1  0  0  0
M  END
> <minimizedAffinity>
-6.86356

> <CNNscore>
0.2119395733

> <CNNaffinity>
6.0552110672

> <CNN_VS>
1.2833389044

> <CNNaffinity_variance>
0.2223241776

$$$$
[H]c1c([H])c([H])c(S(=O)(=O)[C@@]2([H])C([H])([H])N(C(=O)C3(C#N)C([H])([H])C3([H])[H])[C@]([H])(C(=O)N([H])[C@]([H])(C(=O)C(=O)N([H])C3([H])C([H])([H])C3([H])[H])C([H])([H])C([H])([H])[H])C2([H])[H])c(Cl)c1[H]


 38 41  0  0  0  0  0  0  0  0999 V2000
  151.6041  135.8156  185.5580 C   0  0  0  0  0  0  0  0  0  0  0  0
  151.4409  136.0919  184.0218 C   0  0  0  0  0  0  0  0  0  0  0  0
  150.2870  137.0199  184.0869 C   0  0  0  0  0  0  0  0  0  0  0  0
  149.3778  136.2436  185.0439 C   0  0  0  0  0  0  0  0  0  0  0  0
  150.2765  135.6673  186.0190 N   0  0  0  0  0  0  0  0  0  0  0  0
  149.7582  135.0661  187.2057 C   0  0  0  0  0  0  0  0  0  0  0  0
  148.4772  135.1217  187.3281 O   0  0  0  0  0  0  0  0  0  0  0  0
  153.7265  137.1877  185.8632 N   0  0  0  0  0  0  0  0  0  0  0  0
  152.3615  136.9456  186.0834 C   0  0  0  0  0  0  0  0  0  0  0  0
  151.7135  137.7685  186.7976 O   0  0  0  0  0  0  0  0  0  0  0  0
  154.3782  136.6024  185.3018 H   0  0  0  0  0  0  0  0  0  0  0  0
  154.3898  138.3732  186.4509 C   0  0  0  0  0  0  0  0  0  0  0  0
  154.2825  138.4911  188.9531 C   0  0  0  0  0  0  0  0  0  0  0  0
  155.0300  137.9733  187.7636 C   0  0  0  0  0  0  0  0  0  0  0  0
  155.3679  138.9150  185.4901 C   0  0  0  0  0  0  0  0  0  0  0  0
  156.5852  138.6634  185.6528 O   0  0  0  0  0  0  0  0  0  0  0  0
  154.9413  139.7246  184.3718 C   0  0  0  0  0  0  0  0  0  0  0  0
  153.7338  139.9124  184.0551 O   0  0  0  0  0  0  0  0  0  0  0  0
  155.9073  140.3773  183.5372 N   0  0  0  0  0  0  0  0  0  0  0  0
  156.9042  140.2407  183.7736 H   0  0  0  0  0  0  0  0  0  0  0  0
  155.5365  141.1964  182.4099 C   0  0  0  0  0  0  0  0  0  0  0  0
  156.6616  142.0500  181.8471 C   0  0  0  0  0  0  0  0  0  0  0  0
  155.5435  142.6705  182.6487 C   0  0  0  0  0  0  0  0  0  0  0  0
  150.4794  134.4054  188.2828 C   0  0  0  0  0  0  0  0  0  0  0  0
  149.7830  133.1848  188.9114 C   0  0  0  0  0  0  0  0  0  0  0  0
  150.8556  132.9392  187.9491 C   0  0  0  0  0  0  0  0  0  0  0  0
  151.4023  135.0931  189.1694 C   0  0  0  0  0  0  0  0  0  0  0  0
  152.1298  135.6760  189.8708 N   0  0  0  0  0  0  0  0  0  0  0  0
  149.4606  137.4345  182.6182 S   0  0  0  0  0  0  0  0  0  0  0  0
  148.2167  138.2430  182.9542 O   0  0  0  0  0  0  0  0  0  0  0  0
  148.9154  136.1787  181.9478 O   0  0  0  0  0  0  0  0  0  0  0  0
  150.3566  138.3571  181.4615 C   0  0  0  0  0  0  0  0  0  0  0  0
  151.6062  138.8412  181.8578 C   0  0  0  0  0  0  0  0  0  0  0  0
  152.3629  139.6306  181.0411 C   0  0  0  0  0  0  0  0  0  0  0  0
  151.8895  139.9629  179.7931 C   0  0  0  0  0  0  0  0  0  0  0  0
  150.6726  139.4976  179.3906 C   0  0  0  0  0  0  0  0  0  0  0  0
  149.9002  138.6961  180.2117 C   0  0  0  0  0  0  0  0  0  0  0  0
  148.3713  138.0462  179.6284 Cl  0  0  0  0  0  0  0  0  0  0  0  0
 13 14  1  0  0  0
 14 12  1  0  0  0
 12  8  1  0  0  0
  8  9  1  0  0  0
  9 10  2  0  0  0
  9  1  1  0  0  0
  1  2  1  0  0  0
  2  3  1  0  0  0
  3  4  1  0  0  0
  4  5  1  0  0  0
  5  6  1  0  0  0
  6  7  2  0  0  0
  6 24  1  0  0  0
 24 25  1  0  0  0
 25 26  1  0  0  0
 24 27  1  0  0  0
 27 28  3  0  0  0
  3 29  1  0  0  0
 29 30  2  0  0  0
 29 31  2  0  0  0
 29 32  1  0  0  0
 32 33  2  0  0  0
 33 34  1  0  0  0
 34 35  2  0  0  0
 35 36  1  0  0  0
 36 37  2  0  0  0
 37 38  1  0  0  0
 12 15  1  0  0  0
 15 16  2  0  0  0
 15 17  1  0  0  0
 17 18  2  0  0  0
 17 19  1  0  0  0
 19 21  1  0  0  0
 21 22  1  0  0  0
 22 23  1  0  0  0
  5  1  1  0  0  0
 26 24  1  0  0  0
 37 32  1  0  0  0
 23 21  1  0  0  0
  8 11  1  0  0  0
 19 20  1  0  0  0
M  END
> <minimizedAffinity>
-5.75906

> <CNNscore>
0.2092240304

> <CNNaffinity>
6.0506286621

> <CNN_VS>
1.2659369707

> <CNNaffinity_variance>
0.0801462010

$$$$
[H]c1c([H])c([H])c(S(=O)(=O)[C@@]2([H])C([H])([H])N(C(=O)C3(C#N)C([H])([H])C3([H])[H])[C@]([H])(C(=O)N([H])[C@]([H])(C(=O)C(=O)N([H])C3([H])C([H])([H])C3([H])[H])C([H])([H])C([H])([H])[H])C2([H])[H])c(Cl)c1[H]


 38 41  0  0  0  0  0  0  0  0999 V2000
  153.0684  138.6224  186.0974 C   0  0  0  0  0  0  0  0  0  0  0  0
  151.6987  138.0217  186.5730 C   0  0  0  0  0  0  0  0  0  0  0  0
  151.7473  136.7439  185.8236 C   0  0  0  0  0  0  0  0  0  0  0  0
  152.1623  137.2627  184.4438 C   0  0  0  0  0  0  0  0  0  0  0  0
  153.1115  138.3184  184.7180 N   0  0  0  0  0  0  0  0  0  0  0  0
  153.8893  138.8770  183.6592 C   0  0  0  0  0  0  0  0  0  0  0  0
  153.6947  138.3445  182.5026 O   0  0  0  0  0  0  0  0  0  0  0  0
  154.0932  138.0043  188.3442 N   0  0  0  0  0  0  0  0  0  0  0  0
  154.0843  138.0031  186.9406 C   0  0  0  0  0  0  0  0  0  0  0  0
  155.0321  137.4184  186.3348 O   0  0  0  0  0  0  0  0  0  0  0  0
  153.3854  138.4412  188.9691 H   0  0  0  0  0  0  0  0  0  0  0  0
  155.1820  137.3400  189.0952 C   0  0  0  0  0  0  0  0  0  0  0  0
  156.6185  137.6064  191.1328 C   0  0  0  0  0  0  0  0  0  0  0  0
  155.6380  138.2594  190.2087 C   0  0  0  0  0  0  0  0  0  0  0  0
  154.7074  136.0385  189.5993 C   0  0  0  0  0  0  0  0  0  0  0  0
  155.4144  135.0197  189.4159 O   0  0  0  0  0  0  0  0  0  0  0  0
  153.4473  135.9267  190.2977 C   0  0  0  0  0  0  0  0  0  0  0  0
  152.3210  135.9247  189.7278 O   0  0  0  0  0  0  0  0  0  0  0  0
  153.4167  135.8085  191.7264 N   0  0  0  0  0  0  0  0  0  0  0  0
  154.3251  135.8074  192.2194 H   0  0  0  0  0  0  0  0  0  0  0  0
  152.1882  135.6934  192.4725 C   0  0  0  0  0  0  0  0  0  0  0  0
  151.8529  136.8999  193.3347 C   0  0  0  0  0  0  0  0  0  0  0  0
  152.3354  135.6121  193.9564 C   0  0  0  0  0  0  0  0  0  0  0  0
  154.8620  139.9577  183.7145 C   0  0  0  0  0  0  0  0  0  0  0  0
  154.8483  140.9387  182.5283 C   0  0  0  0  0  0  0  0  0  0  0  0
  154.2054  141.3606  183.7715 C   0  0  0  0  0  0  0  0  0  0  0  0
  156.1441  139.8482  184.3888 C   0  0  0  0  0  0  0  0  0  0  0  0
  157.1874  139.7829  184.9071 N   0  0  0  0  0  0  0  0  0  0  0  0
  150.3138  135.7697  185.7335 S   0  0  0  0  0  0  0  0  0  0  0  0
  150.7093  134.3093  185.5768 O   0  0  0  0  0  0  0  0  0  0  0  0
  149.5431  136.0832  184.4562 O   0  0  0  0  0  0  0  0  0  0  0  0
  149.2376  135.8517  187.0853 C   0  0  0  0  0  0  0  0  0  0  0  0
  149.3249  134.8313  188.0361 C   0  0  0  0  0  0  0  0  0  0  0  0
  148.4791  134.7717  189.1057 C   0  0  0  0  0  0  0  0  0  0  0  0
  147.5126  135.7383  189.2585 C   0  0  0  0  0  0  0  0  0  0  0  0
  147.4150  136.7417  188.3403 C   0  0  0  0  0  0  0  0  0  0  0  0
  148.2690  136.8099  187.2544 C   0  0  0  0  0  0  0  0  0  0  0  0
  148.1674  138.1641  186.1336 Cl  0  0  0  0  0  0  0  0  0  0  0  0
 13 14  1  0  0  0
 14 12  1  0  0  0
 12  8  1  0  0  0
  8  9  1  0  0  0
  9 10  2  0  0  0
  9  1  1  0  0  0
  1  2  1  0  0  0
  2  3  1  0  0  0
  3  4  1  0  0  0
  4  5  1  0  0  0
  5  6  1  0  0  0
  6  7  2  0  0  0
  6 24  1  0  0  0
 24 25  1  0  0  0
 25 26  1  0  0  0
 24 27  1  0  0  0
 27 28  3  0  0  0
  3 29  1  0  0  0
 29 30  2  0  0  0
 29 31  2  0  0  0
 29 32  1  0  0  0
 32 33  2  0  0  0
 33 34  1  0  0  0
 34 35  2  0  0  0
 35 36  1  0  0  0
 36 37  2  0  0  0
 37 38  1  0  0  0
 12 15  1  0  0  0
 15 16  2  0  0  0
 15 17  1  0  0  0
 17 18  2  0  0  0
 17 19  1  0  0  0
 19 21  1  0  0  0
 21 22  1  0  0  0
 22 23  1  0  0  0
  5  1  1  0  0  0
 26 24  1  0  0  0
 37 32  1  0  0  0
 23 21  1  0  0  0
  8 11  1  0  0  0
 19 20  1  0  0  0
M  END
> <minimizedAffinity>
-5.40927

> <CNNscore>
0.2074898630

> <CNNaffinity>
6.1309695244

> <CNN_VS>
1.2721140385

> <CNNaffinity_variance>
0.0928701609

$$$$
[H]c1c([H])c([H])c(S(=O)(=O)[C@@]2([H])C([H])([H])N(C(=O)C3(C#N)C([H])([H])C3([H])[H])[C@]([H])(C(=O)N([H])[C@]([H])(C(=O)C(=O)N([H])C3([H])C([H])([H])C3([H])[H])C([H])([H])C([H])([H])[H])C2([H])[H])c(Cl)c1[H]


 38 41  0  0  0  0  0  0  0  0999 V2000
  154.2064  137.3026  185.0941 C   0  0  0  0  0  0  0  0  0  0  0  0
  153.6694  136.8754  183.6826 C   0  0  0  0  0  0  0  0  0  0  0  0
  152.3139  137.4676  183.7749 C   0  0  0  0  0  0  0  0  0  0  0  0
  151.9058  136.9770  185.1670 C   0  0  0  0  0  0  0  0  0  0  0  0
  153.1127  137.0694  185.9580 N   0  0  0  0  0  0  0  0  0  0  0  0
  153.0550  136.9147  187.3760 C   0  0  0  0  0  0  0  0  0  0  0  0
  151.8735  136.7319  187.8551 O   0  0  0  0  0  0  0  0  0  0  0  0
  155.7849  139.1100  184.2443 N   0  0  0  0  0  0  0  0  0  0  0  0
  154.6463  138.6851  184.9465 C   0  0  0  0  0  0  0  0  0  0  0  0
  153.9247  139.5635  185.5077 O   0  0  0  0  0  0  0  0  0  0  0  0
  156.4637  138.5054  183.7382 H   0  0  0  0  0  0  0  0  0  0  0  0
  156.1323  140.5465  184.1628 C   0  0  0  0  0  0  0  0  0  0  0  0
  158.4428  139.6687  183.7413 C   0  0  0  0  0  0  0  0  0  0  0  0
  157.6137  140.7061  184.4328 C   0  0  0  0  0  0  0  0  0  0  0  0
  155.7416  141.0718  182.8420 C   0  0  0  0  0  0  0  0  0  0  0  0
  154.9137  140.4312  182.1522 O   0  0  0  0  0  0  0  0  0  0  0  0
  156.2972  142.3074  182.3395 C   0  0  0  0  0  0  0  0  0  0  0  0
  155.9788  143.4514  182.7678 O   0  0  0  0  0  0  0  0  0  0  0  0
  157.2738  142.2908  181.2898 N   0  0  0  0  0  0  0  0  0  0  0  0
  157.5533  141.3671  180.9198 H   0  0  0  0  0  0  0  0  0  0  0  0
  157.8606  143.4933  180.7523 C   0  0  0  0  0  0  0  0  0  0  0  0
  159.1828  143.2877  180.0306 C   0  0  0  0  0  0  0  0  0  0  0  0
  159.1351  143.9358  181.3927 C   0  0  0  0  0  0  0  0  0  0  0  0
  154.1443  136.9355  188.3405 C   0  0  0  0  0  0  0  0  0  0  0  0
  154.6393  138.3289  188.7687 C   0  0  0  0  0  0  0  0  0  0  0  0
  153.7530  137.6084  189.6809 C   0  0  0  0  0  0  0  0  0  0  0  0
  155.1422  135.8850  188.4452 C   0  0  0  0  0  0  0  0  0  0  0  0
  155.9251  135.0222  188.5064 N   0  0  0  0  0  0  0  0  0  0  0  0
  151.1307  137.0443  182.5779 S   0  0  0  0  0  0  0  0  0  0  0  0
  149.7556  136.9993  183.2264 O   0  0  0  0  0  0  0  0  0  0  0  0
  151.3582  135.6168  182.0939 O   0  0  0  0  0  0  0  0  0  0  0  0
  151.0026  138.0976  181.2118 C   0  0  0  0  0  0  0  0  0  0  0  0
  151.9908  139.0741  181.0611 C   0  0  0  0  0  0  0  0  0  0  0  0
  151.9458  139.9922  180.0522 C   0  0  0  0  0  0  0  0  0  0  0  0
  150.9029  139.9617  179.1558 C   0  0  0  0  0  0  0  0  0  0  0  0
  149.9311  139.0143  179.2880 C   0  0  0  0  0  0  0  0  0  0  0  0
  149.9701  138.0797  180.3069 C   0  0  0  0  0  0  0  0  0  0  0  0
  148.7429  136.8204  180.3989 Cl  0  0  0  0  0  0  0  0  0  0  0  0
 13 14  1  0  0  0
 14 12  1  0  0  0
 12  8  1  0  0  0
  8  9  1  0  0  0
  9 10  2  0  0  0
  9  1  1  0  0  0
  1  2  1  0  0  0
  2  3  1  0  0  0
  3  4  1  0  0  0
  4  5  1  0  0  0
  5  6  1  0  0  0
  6  7  2  0  0  0
  6 24  1  0  0  0
 24 25  1  0  0  0
 25 26  1  0  0  0
 24 27  1  0  0  0
 27 28  3  0  0  0
  3 29  1  0  0  0
 29 30  2  0  0  0
 29 31  2  0  0  0
 29 32  1  0  0  0
 32 33  2  0  0  0
 33 34  1  0  0  0
 34 35  2  0  0  0
 35 36  1  0  0  0
 36 37  2  0  0  0
 37 38  1  0  0  0
 12 15  1  0  0  0
 15 16  2  0  0  0
 15 17  1  0  0  0
 17 18  2  0  0  0
 17 19  1  0  0  0
 19 21  1  0  0  0
 21 22  1  0  0  0
 22 23  1  0  0  0
  5  1  1  0  0  0
 26 24  1  0  0  0
 37 32  1  0  0  0
 23 21  1  0  0  0
  8 11  1  0  0  0
 19 20  1  0  0  0
M  END
> <minimizedAffinity>
-7.61548

> <CNNscore>
0.1996592432

> <CNNaffinity>
6.2268304825

> <CNN_VS>
1.2432442904

> <CNNaffinity_variance>
0.2466100901

$$$$
[H]c1c([H])c([H])c(S(=O)(=O)[C@@]2([H])C([H])([H])N(C(=O)C3(C#N)C([H])([H])C3([H])[H])[C@]([H])(C(=O)N([H])[C@]([H])(C(=O)C(=O)N([H])C3([H])C([H])([H])C3([H])[H])C([H])([H])C([H])([H])[H])C2([H])[H])c(Cl)c1[H]


 38 41  0  0  0  0  0  0  0  0999 V2000
  155.0676  138.8171  183.9879 C   0  0  0  0  0  0  0  0  0  0  0  0
  156.6134  138.9911  184.1955 C   0  0  0  0  0  0  0  0  0  0  0  0
  156.6620  140.4714  184.2532 C   0  0  0  0  0  0  0  0  0  0  0  0
  155.7930  140.8114  183.0390 C   0  0  0  0  0  0  0  0  0  0  0  0
  154.7345  139.8265  183.0567 N   0  0  0  0  0  0  0  0  0  0  0  0
  153.6004  139.9764  182.2027 C   0  0  0  0  0  0  0  0  0  0  0  0
  153.6007  141.0433  181.4811 O   0  0  0  0  0  0  0  0  0  0  0  0
  154.7585  138.0884  186.4073 N   0  0  0  0  0  0  0  0  0  0  0  0
  154.4768  138.9258  185.3167 C   0  0  0  0  0  0  0  0  0  0  0  0
  153.6396  139.8636  185.4805 O   0  0  0  0  0  0  0  0  0  0  0  0
  155.4194  137.2849  186.4187 H   0  0  0  0  0  0  0  0  0  0  0  0
  154.0940  138.2964  187.7134 C   0  0  0  0  0  0  0  0  0  0  0  0
  152.8282  136.1706  187.3070 C   0  0  0  0  0  0  0  0  0  0  0  0
  152.7413  137.6164  187.6863 C   0  0  0  0  0  0  0  0  0  0  0  0
  154.9593  137.7842  188.7915 C   0  0  0  0  0  0  0  0  0  0  0  0
  156.0125  137.1749  188.4896 O   0  0  0  0  0  0  0  0  0  0  0  0
  154.6096  137.9771  190.1802 C   0  0  0  0  0  0  0  0  0  0  0  0
  155.0226  138.9387  190.8861 O   0  0  0  0  0  0  0  0  0  0  0  0
  153.7439  137.0488  190.8470 N   0  0  0  0  0  0  0  0  0  0  0  0
  153.3906  136.2512  190.2926 H   0  0  0  0  0  0  0  0  0  0  0  0
  153.3628  137.1940  192.2300 C   0  0  0  0  0  0  0  0  0  0  0  0
  152.9527  135.9005  192.9155 C   0  0  0  0  0  0  0  0  0  0  0  0
  151.9240  136.9379  192.5370 C   0  0  0  0  0  0  0  0  0  0  0  0
  152.4569  139.0912  182.0418 C   0  0  0  0  0  0  0  0  0  0  0  0
  151.2911  139.6416  181.2004 C   0  0  0  0  0  0  0  0  0  0  0  0
  152.2034  138.6921  180.5656 C   0  0  0  0  0  0  0  0  0  0  0  0
  152.0697  138.0951  183.0258 C   0  0  0  0  0  0  0  0  0  0  0  0
  151.7848  137.3064  183.8370 N   0  0  0  0  0  0  0  0  0  0  0  0
  158.2043  141.2633  184.1750 S   0  0  0  0  0  0  0  0  0  0  0  0
  159.3070  140.2325  184.3627 O   0  0  0  0  0  0  0  0  0  0  0  0
  158.3734  142.2058  185.3611 O   0  0  0  0  0  0  0  0  0  0  0  0
  158.5625  142.1147  182.7124 C   0  0  0  0  0  0  0  0  0  0  0  0
  158.6348  143.5084  182.7840 C   0  0  0  0  0  0  0  0  0  0  0  0
  158.8501  144.2746  181.6752 C   0  0  0  0  0  0  0  0  0  0  0  0
  159.0011  143.6657  180.4511 C   0  0  0  0  0  0  0  0  0  0  0  0
  158.9347  142.3065  180.3643 C   0  0  0  0  0  0  0  0  0  0  0  0
  158.7180  141.5229  181.4833 C   0  0  0  0  0  0  0  0  0  0  0  0
  158.7197  139.7675  181.3471 Cl  0  0  0  0  0  0  0  0  0  0  0  0
 13 14  1  0  0  0
 14 12  1  0  0  0
 12  8  1  0  0  0
  8  9  1  0  0  0
  9 10  2  0  0  0
  9  1  1  0  0  0
  1  2  1  0  0  0
  2  3  1  0  0  0
  3  4  1  0  0  0
  4  5  1  0  0  0
  5  6  1  0  0  0
  6  7  2  0  0  0
  6 24  1  0  0  0
 24 25  1  0  0  0
 25 26  1  0  0  0
 24 27  1  0  0  0
 27 28  3  0  0  0
  3 29  1  0  0  0
 29 30  2  0  0  0
 29 31  2  0  0  0
 29 32  1  0  0  0
 32 33  2  0  0  0
 33 34  1  0  0  0
 34 35  2  0  0  0
 35 36  1  0  0  0
 36 37  2  0  0  0
 37 38  1  0  0  0
 12 15  1  0  0  0
 15 16  2  0  0  0
 15 17  1  0  0  0
 17 18  2  0  0  0
 17 19  1  0  0  0
 19 21  1  0  0  0
 21 22  1  0  0  0
 22 23  1  0  0  0
  5  1  1  0  0  0
 26 24  1  0  0  0
 37 32  1  0  0  0
 23 21  1  0  0  0
  8 11  1  0  0  0
 19 20  1  0  0  0
M  END
> <minimizedAffinity>
-7.73318

> <CNNscore>
0.1974876970

> <CNNaffinity>
6.3130826950

> <CNN_VS>
1.2467561960

> <CNNaffinity_variance>
0.1656081527

$$$$
[H]c1c([H])c([H])c(S(=O)(=O)[C@@]2([H])C([H])([H])N(C(=O)C3(C#N)C([H])([H])C3([H])[H])[C@]([H])(C(=O)N([H])[C@]([H])(C(=O)C(=O)N([H])C3([H])C([H])([H])C3([H])[H])C([H])([H])C([H])([H])[H])C2([H])[H])c(Cl)c1[H]


 38 41  0  0  0  0  0  0  0  0999 V2000
  152.7674  138.1261  186.7625 C   0  0  0  0  0  0  0  0  0  0  0  0
  153.7903  138.4695  187.9022 C   0  0  0  0  0  0  0  0  0  0  0  0
  154.4813  137.1605  187.9788 C   0  0  0  0  0  0  0  0  0  0  0  0
  153.2702  136.2236  188.0001 C   0  0  0  0  0  0  0  0  0  0  0  0
  152.3250  136.8234  187.0849 N   0  0  0  0  0  0  0  0  0  0  0  0
  151.1668  136.0980  186.6719 C   0  0  0  0  0  0  0  0  0  0  0  0
  151.0765  134.9034  187.1447 O   0  0  0  0  0  0  0  0  0  0  0  0
  153.9603  139.4968  184.9796 N   0  0  0  0  0  0  0  0  0  0  0  0
  153.5030  138.2817  185.5129 C   0  0  0  0  0  0  0  0  0  0  0  0
  153.7397  137.2161  184.8680 O   0  0  0  0  0  0  0  0  0  0  0  0
  153.8399  140.4423  185.3966 H   0  0  0  0  0  0  0  0  0  0  0  0
  154.6991  139.5309  183.6974 C   0  0  0  0  0  0  0  0  0  0  0  0
  152.7868  139.5503  182.0760 C   0  0  0  0  0  0  0  0  0  0  0  0
  153.9000  140.3371  182.6953 C   0  0  0  0  0  0  0  0  0  0  0  0
  156.0456  140.0876  183.9216 C   0  0  0  0  0  0  0  0  0  0  0  0
  156.7895  139.5562  184.7793 O   0  0  0  0  0  0  0  0  0  0  0  0
  156.5129  141.2287  183.1681 C   0  0  0  0  0  0  0  0  0  0  0  0
  156.4948  142.4153  183.5984 O   0  0  0  0  0  0  0  0  0  0  0  0
  157.0390  141.0595  181.8450 N   0  0  0  0  0  0  0  0  0  0  0  0
  157.0657  140.0978  181.4673 H   0  0  0  0  0  0  0  0  0  0  0  0
  157.5190  142.1628  181.0504 C   0  0  0  0  0  0  0  0  0  0  0  0
  158.2541  141.7601  179.7821 C   0  0  0  0  0  0  0  0  0  0  0  0
  159.0031  142.3087  180.9719 C   0  0  0  0  0  0  0  0  0  0  0  0
  150.0863  136.5270  185.7968 C   0  0  0  0  0  0  0  0  0  0  0  0
  148.6749  136.0503  186.1845 C   0  0  0  0  0  0  0  0  0  0  0  0
  149.0466  137.4250  186.5145 C   0  0  0  0  0  0  0  0  0  0  0  0
  150.2614  136.7963  184.3800 C   0  0  0  0  0  0  0  0  0  0  0  0
  150.3917  137.0458  183.2478 N   0  0  0  0  0  0  0  0  0  0  0  0
  155.5487  136.8527  189.3122 S   0  0  0  0  0  0  0  0  0  0  0  0
  154.7305  136.4230  190.5203 O   0  0  0  0  0  0  0  0  0  0  0  0
  156.2185  138.1467  189.7605 O   0  0  0  0  0  0  0  0  0  0  0  0
  156.7561  135.6377  189.0710 C   0  0  0  0  0  0  0  0  0  0  0  0
  157.1333  135.3624  187.7539 C   0  0  0  0  0  0  0  0  0  0  0  0
  158.0315  134.3793  187.4544 C   0  0  0  0  0  0  0  0  0  0  0  0
  158.5845  133.6356  188.4709 C   0  0  0  0  0  0  0  0  0  0  0  0
  158.2280  133.8926  189.7617 C   0  0  0  0  0  0  0  0  0  0  0  0
  157.3195  134.8878  190.0736 C   0  0  0  0  0  0  0  0  0  0  0  0
  156.9444  135.2467  191.7561 Cl  0  0  0  0  0  0  0  0  0  0  0  0
 13 14  1  0  0  0
 14 12  1  0  0  0
 12  8  1  0  0  0
  8  9  1  0  0  0
  9 10  2  0  0  0
  9  1  1  0  0  0
  1  2  1  0  0  0
  2  3  1  0  0  0
  3  4  1  0  0  0
  4  5  1  0  0  0
  5  6  1  0  0  0
  6  7  2  0  0  0
  6 24  1  0  0  0
 24 25  1  0  0  0
 25 26  1  0  0  0
 24 27  1  0  0  0
 27 28  3  0  0  0
  3 29  1  0  0  0
 29 30  2  0  0  0
 29 31  2  0  0  0
 29 32  1  0  0  0
 32 33  2  0  0  0
 33 34  1  0  0  0
 34 35  2  0  0  0
 35 36  1  0  0  0
 36 37  2  0  0  0
 37 38  1  0  0  0
 12 15  1  0  0  0
 15 16  2  0  0  0
 15 17  1  0  0  0
 17 18  2  0  0  0
 17 19  1  0  0  0
 19 21  1  0  0  0
 21 22  1  0  0  0
 22 23  1  0  0  0
  5  1  1  0  0  0
 26 24  1  0  0  0
 37 32  1  0  0  0
 23 21  1  0  0  0
  8 11  1  0  0  0
 19 20  1  0  0  0
M  END
> <minimizedAffinity>
-6.96295

> <CNNscore>
0.1970705688

> <CNNaffinity>
5.9813232422

> <CNN_VS>
1.1787427664

> <CNNaffinity_variance>
0.1442274302

$$$$
[H]O[C@]([H])(C([H])([H])[H])[C@@]([H])(C(=O)N([H])S(=O)(=O)c1c([H])c([H])c([H])c(-c2nc(C([H])([H])[H])nc(N([H])[H])c2[H])c1[H])N([H])[H]


 31 32  0  0  0  0  0  0  0  0999 V2000
  156.1301  140.8685  183.7136 C   0  0  0  0  0  0  0  0  0  0  0  0
  156.1642  139.6838  184.4115 C   0  0  0  0  0  0  0  0  0  0  0  0
  157.2288  139.3694  185.2496 C   0  0  0  0  0  0  0  0  0  0  0  0
  158.2392  140.3004  185.3434 C   0  0  0  0  0  0  0  0  0  0  0  0
  158.2393  141.5059  184.6556 C   0  0  0  0  0  0  0  0  0  0  0  0
  157.1847  141.7748  183.8494 C   0  0  0  0  0  0  0  0  0  0  0  0
  159.3620  142.4265  184.8213 C   0  0  0  0  0  0  0  0  0  0  0  0
  159.4760  143.5901  184.0948 C   0  0  0  0  0  0  0  0  0  0  0  0
  160.5571  144.4492  184.2789 C   0  0  0  0  0  0  0  0  0  0  0  0
  160.7045  145.6621  183.5452 N   0  0  0  0  0  0  0  0  0  0  0  0
  161.4750  144.0868  185.1933 N   0  0  0  0  0  0  0  0  0  0  0  0
  161.4004  142.9733  185.9133 C   0  0  0  0  0  0  0  0  0  0  0  0
  162.4742  142.6732  186.8942 C   0  0  0  0  0  0  0  0  0  0  0  0
  160.3470  142.1653  185.7144 N   0  0  0  0  0  0  0  0  0  0  0  0
  160.6685  146.5535  184.0881 H   0  0  0  0  0  0  0  0  0  0  0  0
  160.8384  145.6338  182.5285 H   0  0  0  0  0  0  0  0  0  0  0  0
  154.7655  141.2377  182.6544 S   0  0  0  0  0  0  0  0  0  0  0  0
  154.1076  142.4684  183.1748 O   0  0  0  0  0  0  0  0  0  0  0  0
  155.3311  141.4034  181.2726 O   0  0  0  0  0  0  0  0  0  0  0  0
  152.6134  139.6954  181.8745 C   0  0  0  0  0  0  0  0  0  0  0  0
  152.3713  140.6174  181.0519 O   0  0  0  0  0  0  0  0  0  0  0  0
  153.7298  139.8537  182.7076 N   0  0  0  0  0  0  0  0  0  0  0  0
  153.9652  139.1125  183.4003 H   0  0  0  0  0  0  0  0  0  0  0  0
  151.7653  138.4810  181.9766 C   0  0  0  0  0  0  0  0  0  0  0  0
  151.9329  137.7906  183.2156 N   0  0  0  0  0  0  0  0  0  0  0  0
  152.3889  136.8505  183.1111 H   0  0  0  0  0  0  0  0  0  0  0  0
  151.0574  137.7227  183.7930 H   0  0  0  0  0  0  0  0  0  0  0  0
  149.9597  138.2411  180.3429 C   0  0  0  0  0  0  0  0  0  0  0  0
  150.3073  138.7818  181.7133 C   0  0  0  0  0  0  0  0  0  0  0  0
  149.4635  138.1943  182.6429 O   0  0  0  0  0  0  0  0  0  0  0  0
  148.5575  138.5456  182.4957 H   0  0  0  0  0  0  0  0  0  0  0  0
 28 29  1  0  0  0
 29 30  1  0  0  0
 29 24  1  0  0  0
 24 25  1  0  0  0
 24 20  1  0  0  0
 20 21  2  0  0  0
 20 22  1  0  0  0
 22 17  1  0  0  0
 17 18  2  0  0  0
 17 19  2  0  0  0
 17  1  1  0  0  0
  1  2  2  0  0  0
  2  3  1  0  0  0
  3  4  2  0  0  0
  4  5  1  0  0  0
  5  6  2  0  0  0
  5  7  1  0  0  0
  7  8  2  0  0  0
  8  9  1  0  0  0
  9 10  1  0  0  0
  9 11  2  0  0  0
 11 12  1  0  0  0
 12 13  1  0  0  0
 12 14  2  0  0  0
  6  1  1  0  0  0
 14  7  1  0  0  0
 30 31  1  0  0  0
 25 26  1  0  0  0
 25 27  1  0  0  0
 22 23  1  0  0  0
 10 15  1  0  0  0
 10 16  1  0  0  0
M  END
> <minimizedAffinity>
-7.54375

> <CNNscore>
0.2889227569

> <CNNaffinity>
5.6754360199

> <CNN_VS>
1.6397626400

> <CNNaffinity_variance>
0.0932840258

$$$$
[H]O[C@]([H])(C([H])([H])[H])[C@@]([H])(C(=O)N([H])S(=O)(=O)c1c([H])c([H])c([H])c(-c2nc(C([H])([H])[H])nc(N([H])[H])c2[H])c1[H])N([H])[H]


 31 32  0  0  0  0  0  0  0  0999 V2000
  154.3186  137.6059  187.0812 C   0  0  0  0  0  0  0  0  0  0  0  0
  153.9148  138.5007  188.0446 C   0  0  0  0  0  0  0  0  0  0  0  0
  154.4648  138.4842  189.3220 C   0  0  0  0  0  0  0  0  0  0  0  0
  155.4281  137.5316  189.5694 C   0  0  0  0  0  0  0  0  0  0  0  0
  155.8610  136.6131  188.6232 C   0  0  0  0  0  0  0  0  0  0  0  0
  155.3009  136.6619  187.3910 C   0  0  0  0  0  0  0  0  0  0  0  0
  156.8884  135.6393  188.9860 C   0  0  0  0  0  0  0  0  0  0  0  0
  156.8049  134.8667  190.1221 C   0  0  0  0  0  0  0  0  0  0  0  0
  157.7995  133.9440  190.4385 C   0  0  0  0  0  0  0  0  0  0  0  0
  157.7430  133.1273  191.6051 N   0  0  0  0  0  0  0  0  0  0  0  0
  158.8357  133.8482  189.5857 N   0  0  0  0  0  0  0  0  0  0  0  0
  158.9522  134.5754  188.4806 C   0  0  0  0  0  0  0  0  0  0  0  0
  160.1423  134.3864  187.6127 C   0  0  0  0  0  0  0  0  0  0  0  0
  157.9780  135.4559  188.2016 N   0  0  0  0  0  0  0  0  0  0  0  0
  157.6637  132.0961  191.4602 H   0  0  0  0  0  0  0  0  0  0  0  0
  157.7798  133.5583  192.5354 H   0  0  0  0  0  0  0  0  0  0  0  0
  153.5988  137.6502  185.4687 S   0  0  0  0  0  0  0  0  0  0  0  0
  154.2581  136.5961  184.6488 O   0  0  0  0  0  0  0  0  0  0  0  0
  152.1248  137.4263  185.6534 O   0  0  0  0  0  0  0  0  0  0  0  0
  155.1441  139.6960  184.4465 C   0  0  0  0  0  0  0  0  0  0  0  0
  156.1036  138.8846  184.5269 O   0  0  0  0  0  0  0  0  0  0  0  0
  153.8834  139.2441  184.8609 N   0  0  0  0  0  0  0  0  0  0  0  0
  153.0636  139.8842  184.8083 H   0  0  0  0  0  0  0  0  0  0  0  0
  155.3168  141.0800  183.9373 C   0  0  0  0  0  0  0  0  0  0  0  0
  156.6625  141.5461  184.0444 N   0  0  0  0  0  0  0  0  0  0  0  0
  156.7806  142.3246  184.7390 H   0  0  0  0  0  0  0  0  0  0  0  0
  157.1084  141.7907  183.1248 H   0  0  0  0  0  0  0  0  0  0  0  0
  153.9432  142.4850  182.4791 C   0  0  0  0  0  0  0  0  0  0  0  0
  154.7968  141.2359  182.5263 C   0  0  0  0  0  0  0  0  0  0  0  0
  155.8134  141.3645  181.5927 O   0  0  0  0  0  0  0  0  0  0  0  0
  155.4113  141.3175  180.6972 H   0  0  0  0  0  0  0  0  0  0  0  0
 28 29  1  0  0  0
 29 30  1  0  0  0
 29 24  1  0  0  0
 24 25  1  0  0  0
 24 20  1  0  0  0
 20 21  2  0  0  0
 20 22  1  0  0  0
 22 17  1  0  0  0
 17 18  2  0  0  0
 17 19  2  0  0  0
 17  1  1  0  0  0
  1  2  2  0  0  0
  2  3  1  0  0  0
  3  4  2  0  0  0
  4  5  1  0  0  0
  5  6  2  0  0  0
  5  7  1  0  0  0
  7  8  2  0  0  0
  8  9  1  0  0  0
  9 10  1  0  0  0
  9 11  2  0  0  0
 11 12  1  0  0  0
 12 13  1  0  0  0
 12 14  2  0  0  0
  6  1  1  0  0  0
 14  7  1  0  0  0
 30 31  1  0  0  0
 25 26  1  0  0  0
 25 27  1  0  0  0
 22 23  1  0  0  0
 10 15  1  0  0  0
 10 16  1  0  0  0
M  END
> <minimizedAffinity>
-6.37088

> <CNNscore>
0.2258759886

> <CNNaffinity>
5.1154565811

> <CNN_VS>
1.1554588079

> <CNNaffinity_variance>
0.0665372312

$$$$
[H]O[C@]([H])(C([H])([H])[H])[C@@]([H])(C(=O)N([H])S(=O)(=O)c1c([H])c([H])c([H])c(-c2nc(C([H])([H])[H])nc(N([H])[H])c2[H])c1[H])N([H])[H]


 31 32  0  0  0  0  0  0  0  0999 V2000
  155.1528  138.4144  186.0745 C   0  0  0  0  0  0  0  0  0  0  0  0
  153.9142  138.4565  185.4781 C   0  0  0  0  0  0  0  0  0  0  0  0
  153.7338  139.0380  184.2275 C   0  0  0  0  0  0  0  0  0  0  0  0
  154.8529  139.5651  183.6223 C   0  0  0  0  0  0  0  0  0  0  0  0
  156.1181  139.5408  184.1925 C   0  0  0  0  0  0  0  0  0  0  0  0
  156.2521  138.9656  185.4114 C   0  0  0  0  0  0  0  0  0  0  0  0
  157.2426  140.1304  183.4692 C   0  0  0  0  0  0  0  0  0  0  0  0
  158.4886  140.2782  184.0352 C   0  0  0  0  0  0  0  0  0  0  0  0
  159.5417  140.8410  183.3177 C   0  0  0  0  0  0  0  0  0  0  0  0
  160.8439  141.0065  183.8727 N   0  0  0  0  0  0  0  0  0  0  0  0
  159.2811  141.2293  182.0562 N   0  0  0  0  0  0  0  0  0  0  0  0
  158.0935  141.1038  181.4753 C   0  0  0  0  0  0  0  0  0  0  0  0
  157.9200  141.5696  180.0760 C   0  0  0  0  0  0  0  0  0  0  0  0
  157.0979  140.5574  182.1913 N   0  0  0  0  0  0  0  0  0  0  0  0
  161.6204  140.4632  183.4338 H   0  0  0  0  0  0  0  0  0  0  0  0
  160.9860  141.6375  184.6690 H   0  0  0  0  0  0  0  0  0  0  0  0
  155.3492  137.6716  187.6651 S   0  0  0  0  0  0  0  0  0  0  0  0
  156.3400  138.4832  188.4253 O   0  0  0  0  0  0  0  0  0  0  0  0
  153.9864  137.6503  188.2969 O   0  0  0  0  0  0  0  0  0  0  0  0
  156.2127  135.1555  188.4013 C   0  0  0  0  0  0  0  0  0  0  0  0
  156.0903  135.5633  189.5862 O   0  0  0  0  0  0  0  0  0  0  0  0
  155.8921  136.0554  187.3752 N   0  0  0  0  0  0  0  0  0  0  0  0
  155.9783  135.7559  186.3815 H   0  0  0  0  0  0  0  0  0  0  0  0
  156.6761  133.7821  188.0793 C   0  0  0  0  0  0  0  0  0  0  0  0
  155.6414  132.9614  187.5354 N   0  0  0  0  0  0  0  0  0  0  0  0
  155.3561  132.1747  188.1695 H   0  0  0  0  0  0  0  0  0  0  0  0
  155.8351  132.6110  186.5638 H   0  0  0  0  0  0  0  0  0  0  0  0
  159.0586  134.3309  187.9843 C   0  0  0  0  0  0  0  0  0  0  0  0
  157.8941  133.7882  187.1839 C   0  0  0  0  0  0  0  0  0  0  0  0
  158.2286  132.5229  186.7270 O   0  0  0  0  0  0  0  0  0  0  0  0
  158.9309  132.6213  186.0467 H   0  0  0  0  0  0  0  0  0  0  0  0
 28 29  1  0  0  0
 29 30  1  0  0  0
 29 24  1  0  0  0
 24 25  1  0  0  0
 24 20  1  0  0  0
 20 21  2  0  0  0
 20 22  1  0  0  0
 22 17  1  0  0  0
 17 18  2  0  0  0
 17 19  2  0  0  0
 17  1  1  0  0  0
  1  2  2  0  0  0
  2  3  1  0  0  0
  3  4  2  0  0  0
  4  5  1  0  0  0
  5  6  2  0  0  0
  5  7  1  0  0  0
  7  8  2  0  0  0
  8  9  1  0  0  0
  9 10  1  0  0  0
  9 11  2  0  0  0
 11 12  1  0  0  0
 12 13  1  0  0  0
 12 14  2  0  0  0
  6  1  1  0  0  0
 14  7  1  0  0  0
 30 31  1  0  0  0
 25 26  1  0  0  0
 25 27  1  0  0  0
 22 23  1  0  0  0
 10 15  1  0  0  0
 10 16  1  0  0  0
M  END
> <minimizedAffinity>
-6.57130

> <CNNscore>
0.2237422764

> <CNNaffinity>
5.2059116364

> <CNN_VS>
1.1647825241

> <CNNaffinity_variance>
0.1136388332

$$$$
[H]O[C@]([H])(C([H])([H])[H])[C@@]([H])(C(=O)N([H])S(=O)(=O)c1c([H])c([H])c([H])c(-c2nc(C([H])([H])[H])nc(N([H])[H])c2[H])c1[H])N([H])[H]


 31 32  0  0  0  0  0  0  0  0999 V2000
  153.5299  139.9983  182.5163 C   0  0  0  0  0  0  0  0  0  0  0  0
  152.8630  140.6292  181.4921 C   0  0  0  0  0  0  0  0  0  0  0  0
  151.7747  140.0335  180.8634 C   0  0  0  0  0  0  0  0  0  0  0  0
  151.4027  138.7878  181.3175 C   0  0  0  0  0  0  0  0  0  0  0  0
  152.0504  138.1207  182.3479 C   0  0  0  0  0  0  0  0  0  0  0  0
  153.1058  138.7344  182.9344 C   0  0  0  0  0  0  0  0  0  0  0  0
  151.5791  136.7987  182.7549 C   0  0  0  0  0  0  0  0  0  0  0  0
  150.5696  136.6257  183.6744 C   0  0  0  0  0  0  0  0  0  0  0  0
  150.1401  135.3515  184.0389 C   0  0  0  0  0  0  0  0  0  0  0  0
  149.0966  135.1372  184.9856 N   0  0  0  0  0  0  0  0  0  0  0  0
  150.7569  134.3094  183.4527 N   0  0  0  0  0  0  0  0  0  0  0  0
  151.7339  134.4353  182.5621 C   0  0  0  0  0  0  0  0  0  0  0  0
  152.3442  133.2128  181.9805 C   0  0  0  0  0  0  0  0  0  0  0  0
  152.1262  135.6755  182.2301 N   0  0  0  0  0  0  0  0  0  0  0  0
  148.2237  134.6825  184.6363 H   0  0  0  0  0  0  0  0  0  0  0  0
  149.2220  135.4265  185.9619 H   0  0  0  0  0  0  0  0  0  0  0  0
  154.9107  140.7797  183.2929 S   0  0  0  0  0  0  0  0  0  0  0  0
  154.4464  142.0870  183.8345 O   0  0  0  0  0  0  0  0  0  0  0  0
  155.3947  139.8331  184.3543 O   0  0  0  0  0  0  0  0  0  0  0  0
  157.4099  141.4287  182.3176 C   0  0  0  0  0  0  0  0  0  0  0  0
  157.6912  141.7325  183.5067 O   0  0  0  0  0  0  0  0  0  0  0  0
  156.1147  140.9560  182.0639 N   0  0  0  0  0  0  0  0  0  0  0  0
  155.8432  140.6922  181.0937 H   0  0  0  0  0  0  0  0  0  0  0  0
  158.3931  141.5577  181.2125 C   0  0  0  0  0  0  0  0  0  0  0  0
  157.8448  141.2123  179.9398 N   0  0  0  0  0  0  0  0  0  0  0  0
  158.2572  140.3374  179.5313 H   0  0  0  0  0  0  0  0  0  0  0  0
  157.8539  141.9958  179.2396 H   0  0  0  0  0  0  0  0  0  0  0  0
  159.2255  143.3141  179.7263 C   0  0  0  0  0  0  0  0  0  0  0  0
  159.0322  142.9273  181.1769 C   0  0  0  0  0  0  0  0  0  0  0  0
  158.2534  143.8972  181.7887 O   0  0  0  0  0  0  0  0  0  0  0  0
  158.7876  144.7194  181.8540 H   0  0  0  0  0  0  0  0  0  0  0  0
 28 29  1  0  0  0
 29 30  1  0  0  0
 29 24  1  0  0  0
 24 25  1  0  0  0
 24 20  1  0  0  0
 20 21  2  0  0  0
 20 22  1  0  0  0
 22 17  1  0  0  0
 17 18  2  0  0  0
 17 19  2  0  0  0
 17  1  1  0  0  0
  1  2  2  0  0  0
  2  3  1  0  0  0
  3  4  2  0  0  0
  4  5  1  0  0  0
  5  6  2  0  0  0
  5  7  1  0  0  0
  7  8  2  0  0  0
  8  9  1  0  0  0
  9 10  1  0  0  0
  9 11  2  0  0  0
 11 12  1  0  0  0
 12 13  1  0  0  0
 12 14  2  0  0  0
  6  1  1  0  0  0
 14  7  1  0  0  0
 30 31  1  0  0  0
 25 26  1  0  0  0
 25 27  1  0  0  0
 22 23  1  0  0  0
 10 15  1  0  0  0
 10 16  1  0  0  0
M  END
> <minimizedAffinity>
-6.69483

> <CNNscore>
0.1926259249

> <CNNaffinity>
5.3455367088

> <CNN_VS>
1.0296889544

> <CNNaffinity_variance>
0.1324886978

$$$$
[H]O[C@]([H])(C([H])([H])[H])[C@@]([H])(C(=O)N([H])S(=O)(=O)c1c([H])c([H])c([H])c(-c2nc(C([H])([H])[H])nc(N([H])[H])c2[H])c1[H])N([H])[H]


 31 32  0  0  0  0  0  0  0  0999 V2000
  154.2417  140.3334  183.2289 C   0  0  0  0  0  0  0  0  0  0  0  0
  154.9292  139.5023  184.0824 C   0  0  0  0  0  0  0  0  0  0  0  0
  154.4976  138.2034  184.3296 C   0  0  0  0  0  0  0  0  0  0  0  0
  153.3542  137.7963  183.6791 C   0  0  0  0  0  0  0  0  0  0  0  0
  152.6346  138.6057  182.8111 C   0  0  0  0  0  0  0  0  0  0  0  0
  153.0875  139.8640  182.5968 C   0  0  0  0  0  0  0  0  0  0  0  0
  151.4306  138.0797  182.1713 C   0  0  0  0  0  0  0  0  0  0  0  0
  151.3066  136.7589  181.8042 C   0  0  0  0  0  0  0  0  0  0  0  0
  150.1438  136.2873  181.1991 C   0  0  0  0  0  0  0  0  0  0  0  0
  149.9819  134.9262  180.8088 N   0  0  0  0  0  0  0  0  0  0  0  0
  149.1584  137.1800  180.9935 N   0  0  0  0  0  0  0  0  0  0  0  0
  149.2401  138.4613  181.3331 C   0  0  0  0  0  0  0  0  0  0  0  0
  148.0890  139.3576  181.0558 C   0  0  0  0  0  0  0  0  0  0  0  0
  150.3727  138.8867  181.9148 N   0  0  0  0  0  0  0  0  0  0  0  0
  149.2398  134.3768  181.2967 H   0  0  0  0  0  0  0  0  0  0  0  0
  150.5813  134.5272  180.0780 H   0  0  0  0  0  0  0  0  0  0  0  0
  154.8134  141.9792  182.9377 S   0  0  0  0  0  0  0  0  0  0  0  0
  153.6388  142.8033  182.5386 O   0  0  0  0  0  0  0  0  0  0  0  0
  155.4575  142.4389  184.2147 O   0  0  0  0  0  0  0  0  0  0  0  0
  157.2930  141.3577  181.8967 C   0  0  0  0  0  0  0  0  0  0  0  0
  157.5826  140.9787  183.0620 O   0  0  0  0  0  0  0  0  0  0  0  0
  156.0009  141.8593  181.6862 N   0  0  0  0  0  0  0  0  0  0  0  0
  155.7216  142.1813  180.7359 H   0  0  0  0  0  0  0  0  0  0  0  0
  158.2637  141.2861  180.7755 C   0  0  0  0  0  0  0  0  0  0  0  0
  157.6318  141.2850  179.4946 N   0  0  0  0  0  0  0  0  0  0  0  0
  157.7356  140.3764  178.9788 H   0  0  0  0  0  0  0  0  0  0  0  0
  157.8959  142.0978  178.8831 H   0  0  0  0  0  0  0  0  0  0  0  0
  159.2327  143.2024  179.6027 C   0  0  0  0  0  0  0  0  0  0  0  0
  159.3151  142.3688  180.8635 C   0  0  0  0  0  0  0  0  0  0  0  0
  159.1322  143.2048  181.9540 O   0  0  0  0  0  0  0  0  0  0  0  0
  159.9214  143.7857  182.0274 H   0  0  0  0  0  0  0  0  0  0  0  0
 28 29  1  0  0  0
 29 30  1  0  0  0
 29 24  1  0  0  0
 24 25  1  0  0  0
 24 20  1  0  0  0
 20 21  2  0  0  0
 20 22  1  0  0  0
 22 17  1  0  0  0
 17 18  2  0  0  0
 17 19  2  0  0  0
 17  1  1  0  0  0
  1  2  2  0  0  0
  2  3  1  0  0  0
  3  4  2  0  0  0
  4  5  1  0  0  0
  5  6  2  0  0  0
  5  7  1  0  0  0
  7  8  2  0  0  0
  8  9  1  0  0  0
  9 10  1  0  0  0
  9 11  2  0  0  0
 11 12  1  0  0  0
 12 13  1  0  0  0
 12 14  2  0  0  0
  6  1  1  0  0  0
 14  7  1  0  0  0
 30 31  1  0  0  0
 25 26  1  0  0  0
 25 27  1  0  0  0
 22 23  1  0  0  0
 10 15  1  0  0  0
 10 16  1  0  0  0
M  END
> <minimizedAffinity>
-7.22637

> <CNNscore>
0.1917810440

> <CNNaffinity>
5.2791681290

> <CNN_VS>
1.0124443769

> <CNNaffinity_variance>
0.0784978718

$$$$
[H]O[C@]([H])(C([H])([H])[H])[C@@]([H])(C(=O)N([H])S(=O)(=O)c1c([H])c([H])c([H])c(-c2nc(C([H])([H])[H])nc(N([H])[H])c2[H])c1[H])N([H])[H]


 31 32  0  0  0  0  0  0  0  0999 V2000
  157.3379  142.3147  182.2588 C   0  0  0  0  0  0  0  0  0  0  0  0
  156.9382  143.6258  182.3736 C   0  0  0  0  0  0  0  0  0  0  0  0
  155.5930  143.9650  182.4726 C   0  0  0  0  0  0  0  0  0  0  0  0
  154.6889  142.9264  182.4500 C   0  0  0  0  0  0  0  0  0  0  0  0
  155.0543  141.5923  182.3359 C   0  0  0  0  0  0  0  0  0  0  0  0
  156.3742  141.3032  182.2419 C   0  0  0  0  0  0  0  0  0  0  0  0
  154.0170  140.5631  182.3189 C   0  0  0  0  0  0  0  0  0  0  0  0
  153.9334  139.5831  183.2818 C   0  0  0  0  0  0  0  0  0  0  0  0
  152.9299  138.6178  183.2396 C   0  0  0  0  0  0  0  0  0  0  0  0
  152.8135  137.5913  184.2214 N   0  0  0  0  0  0  0  0  0  0  0  0
  152.0559  138.6913  182.2195 N   0  0  0  0  0  0  0  0  0  0  0  0
  152.1034  139.6205  181.2719 C   0  0  0  0  0  0  0  0  0  0  0  0
  151.0856  139.6034  180.1907 C   0  0  0  0  0  0  0  0  0  0  0  0
  153.0813  140.5378  181.3391 N   0  0  0  0  0  0  0  0  0  0  0  0
  151.9567  137.5993  184.8184 H   0  0  0  0  0  0  0  0  0  0  0  0
  153.5533  136.8870  184.3176 H   0  0  0  0  0  0  0  0  0  0  0  0
  159.0540  141.9160  182.1319 S   0  0  0  0  0  0  0  0  0  0  0  0
  159.1866  140.4379  182.2572 O   0  0  0  0  0  0  0  0  0  0  0  0
  159.5176  142.4453  180.8045 O   0  0  0  0  0  0  0  0  0  0  0  0
  159.8695  142.3079  184.7395 C   0  0  0  0  0  0  0  0  0  0  0  0
  159.2910  141.2168  184.9849 O   0  0  0  0  0  0  0  0  0  0  0  0
  159.8398  142.7679  183.4155 N   0  0  0  0  0  0  0  0  0  0  0  0
  160.3083  143.6653  183.1711 H   0  0  0  0  0  0  0  0  0  0  0  0
  160.5610  143.0932  185.7930 C   0  0  0  0  0  0  0  0  0  0  0  0
  160.1096  142.7724  187.1094 N   0  0  0  0  0  0  0  0  0  0  0  0
  159.5877  143.5561  187.5742 H   0  0  0  0  0  0  0  0  0  0  0  0
  160.8582  142.3915  187.7409 H   0  0  0  0  0  0  0  0  0  0  0  0
  162.6077  142.7038  187.0759 C   0  0  0  0  0  0  0  0  0  0  0  0
  162.0652  142.9815  185.6904 C   0  0  0  0  0  0  0  0  0  0  0  0
  162.4694  141.9573  184.8483 O   0  0  0  0  0  0  0  0  0  0  0  0
  163.4406  142.0352  184.7195 H   0  0  0  0  0  0  0  0  0  0  0  0
 28 29  1  0  0  0
 29 30  1  0  0  0
 29 24  1  0  0  0
 24 25  1  0  0  0
 24 20  1  0  0  0
 20 21  2  0  0  0
 20 22  1  0  0  0
 22 17  1  0  0  0
 17 18  2  0  0  0
 17 19  2  0  0  0
 17  1  1  0  0  0
  1  2  2  0  0  0
  2  3  1  0  0  0
  3  4  2  0  0  0
  4  5  1  0  0  0
  5  6  2  0  0  0
  5  7  1  0  0  0
  7  8  2  0  0  0
  8  9  1  0  0  0
  9 10  1  0  0  0
  9 11  2  0  0  0
 11 12  1  0  0  0
 12 13  1  0  0  0
 12 14  2  0  0  0
  6  1  1  0  0  0
 14  7  1  0  0  0
 30 31  1  0  0  0
 25 26  1  0  0  0
 25 27  1  0  0  0
 22 23  1  0  0  0
 10 15  1  0  0  0
 10 16  1  0  0  0
M  END
> <minimizedAffinity>
-9.06892

> <CNNscore>
0.1886211783

> <CNNaffinity>
5.7572541237

> <CNN_VS>
1.0859400034

> <CNNaffinity_variance>
0.1085578427

$$$$
[H]O[C@]([H])(C([H])([H])[H])[C@@]([H])(C(=O)N([H])S(=O)(=O)c1c([H])c([H])c([H])c(-c2nc(C([H])([H])[H])nc(N([H])[H])c2[H])c1[H])N([H])[H]


 31 32  0  0  0  0  0  0  0  0999 V2000
  154.0897  139.3140  183.6898 C   0  0  0  0  0  0  0  0  0  0  0  0
  153.1586  139.8289  182.8182 C   0  0  0  0  0  0  0  0  0  0  0  0
  153.4658  140.8956  181.9800 C   0  0  0  0  0  0  0  0  0  0  0  0
  154.7423  141.4049  182.0681 C   0  0  0  0  0  0  0  0  0  0  0  0
  155.7081  140.9116  182.9343 C   0  0  0  0  0  0  0  0  0  0  0  0
  155.3697  139.8723  183.7341 C   0  0  0  0  0  0  0  0  0  0  0  0
  157.0347  141.5242  182.9537 C   0  0  0  0  0  0  0  0  0  0  0  0
  158.1557  140.8445  183.3734 C   0  0  0  0  0  0  0  0  0  0  0  0
  159.4075  141.4556  183.3765 C   0  0  0  0  0  0  0  0  0  0  0  0
  160.5880  140.7801  183.8024 N   0  0  0  0  0  0  0  0  0  0  0  0
  159.4642  142.7314  182.9533 N   0  0  0  0  0  0  0  0  0  0  0  0
  158.4062  143.4203  182.5412 C   0  0  0  0  0  0  0  0  0  0  0  0
  158.5868  144.8258  182.0969 C   0  0  0  0  0  0  0  0  0  0  0  0
  157.2131  142.8050  182.5489 N   0  0  0  0  0  0  0  0  0  0  0  0
  161.3289  140.6189  183.0843 H   0  0  0  0  0  0  0  0  0  0  0  0
  160.6812  140.4751  184.7776 H   0  0  0  0  0  0  0  0  0  0  0  0
  153.6682  137.9607  184.7439 S   0  0  0  0  0  0  0  0  0  0  0  0
  152.2118  137.6956  184.5811 O   0  0  0  0  0  0  0  0  0  0  0  0
  154.5343  136.8073  184.3239 O   0  0  0  0  0  0  0  0  0  0  0  0
  153.9325  137.6310  187.4715 C   0  0  0  0  0  0  0  0  0  0  0  0
  153.4759  136.4732  187.2807 O   0  0  0  0  0  0  0  0  0  0  0  0
  154.0811  138.4568  186.3484 N   0  0  0  0  0  0  0  0  0  0  0  0
  154.4573  139.4210  186.4639 H   0  0  0  0  0  0  0  0  0  0  0  0
  154.3048  138.1239  188.8217 C   0  0  0  0  0  0  0  0  0  0  0  0
  153.6029  137.4535  189.8694 N   0  0  0  0  0  0  0  0  0  0  0  0
  152.9265  138.0724  190.3811 H   0  0  0  0  0  0  0  0  0  0  0  0
  154.2233  136.9363  190.5417 H   0  0  0  0  0  0  0  0  0  0  0  0
  156.0364  137.7836  190.5166 C   0  0  0  0  0  0  0  0  0  0  0  0
  155.7984  138.0797  189.0514 C   0  0  0  0  0  0  0  0  0  0  0  0
  156.4267  137.0998  188.2988 O   0  0  0  0  0  0  0  0  0  0  0  0
  157.3975  137.2230  188.3890 H   0  0  0  0  0  0  0  0  0  0  0  0
 28 29  1  0  0  0
 29 30  1  0  0  0
 29 24  1  0  0  0
 24 25  1  0  0  0
 24 20  1  0  0  0
 20 21  2  0  0  0
 20 22  1  0  0  0
 22 17  1  0  0  0
 17 18  2  0  0  0
 17 19  2  0  0  0
 17  1  1  0  0  0
  1  2  2  0  0  0
  2  3  1  0  0  0
  3  4  2  0  0  0
  4  5  1  0  0  0
  5  6  2  0  0  0
  5  7  1  0  0  0
  7  8  2  0  0  0
  8  9  1  0  0  0
  9 10  1  0  0  0
  9 11  2  0  0  0
 11 12  1  0  0  0
 12 13  1  0  0  0
 12 14  2  0  0  0
  6  1  1  0  0  0
 14  7  1  0  0  0
 30 31  1  0  0  0
 25 26  1  0  0  0
 25 27  1  0  0  0
 22 23  1  0  0  0
 10 15  1  0  0  0
 10 16  1  0  0  0
M  END
> <minimizedAffinity>
-7.06254

> <CNNscore>
0.1820998639

> <CNNaffinity>
5.4071364403

> <CNN_VS>
0.9846388102

> <CNNaffinity_variance>
0.0279332809

$$$$
[H]O[C@]([H])(C([H])([H])[H])[C@@]([H])(C(=O)N([H])S(=O)(=O)c1c([H])c([H])c([H])c(-c2nc(C([H])([H])[H])nc(N([H])[H])c2[H])c1[H])N([H])[H]


 31 32  0  0  0  0  0  0  0  0999 V2000
  153.7283  137.4617  188.3033 C   0  0  0  0  0  0  0  0  0  0  0  0
  152.4557  136.9981  188.0635 C   0  0  0  0  0  0  0  0  0  0  0  0
  151.8311  137.2032  186.8378 C   0  0  0  0  0  0  0  0  0  0  0  0
  152.5489  137.8897  185.8839 C   0  0  0  0  0  0  0  0  0  0  0  0
  153.8341  138.3718  186.0891 C   0  0  0  0  0  0  0  0  0  0  0  0
  154.4077  138.1516  187.2961 C   0  0  0  0  0  0  0  0  0  0  0  0
  154.5110  139.0914  185.0122 C   0  0  0  0  0  0  0  0  0  0  0  0
  155.8825  139.1664  184.9226 C   0  0  0  0  0  0  0  0  0  0  0  0
  156.4979  139.8573  183.8811 C   0  0  0  0  0  0  0  0  0  0  0  0
  157.9145  139.9525  183.7575 N   0  0  0  0  0  0  0  0  0  0  0  0
  155.6913  140.4421  182.9770 N   0  0  0  0  0  0  0  0  0  0  0  0
  154.3652  140.3924  183.0291 C   0  0  0  0  0  0  0  0  0  0  0  0
  153.5739  141.0777  181.9758 C   0  0  0  0  0  0  0  0  0  0  0  0
  153.8005  139.7190  184.0440 N   0  0  0  0  0  0  0  0  0  0  0  0
  158.3502  139.5020  182.9221 H   0  0  0  0  0  0  0  0  0  0  0  0
  158.4598  140.4473  184.4719 H   0  0  0  0  0  0  0  0  0  0  0  0
  154.4937  137.1880  189.8716 S   0  0  0  0  0  0  0  0  0  0  0  0
  155.2724  135.9217  189.7813 O   0  0  0  0  0  0  0  0  0  0  0  0
  155.3469  138.3937  190.1458 O   0  0  0  0  0  0  0  0  0  0  0  0
  153.3055  136.4020  192.2356 C   0  0  0  0  0  0  0  0  0  0  0  0
  154.3947  135.8193  192.4796 O   0  0  0  0  0  0  0  0  0  0  0  0
  153.2069  137.0996  191.0236 N   0  0  0  0  0  0  0  0  0  0  0  0
  152.3231  137.5965  190.7855 H   0  0  0  0  0  0  0  0  0  0  0  0
  152.1584  136.3655  193.1777 C   0  0  0  0  0  0  0  0  0  0  0  0
  151.2687  137.4701  193.0105 N   0  0  0  0  0  0  0  0  0  0  0  0
  151.2680  138.1324  193.8252 H   0  0  0  0  0  0  0  0  0  0  0  0
  150.2889  137.1981  192.7452 H   0  0  0  0  0  0  0  0  0  0  0  0
  149.9309  135.3531  193.1678 C   0  0  0  0  0  0  0  0  0  0  0  0
  151.4133  135.0515  193.1158 C   0  0  0  0  0  0  0  0  0  0  0  0
  151.6754  134.3420  191.9542 O   0  0  0  0  0  0  0  0  0  0  0  0
  151.2766  133.4486  192.0472 H   0  0  0  0  0  0  0  0  0  0  0  0
 28 29  1  0  0  0
 29 30  1  0  0  0
 29 24  1  0  0  0
 24 25  1  0  0  0
 24 20  1  0  0  0
 20 21  2  0  0  0
 20 22  1  0  0  0
 22 17  1  0  0  0
 17 18  2  0  0  0
 17 19  2  0  0  0
 17  1  1  0  0  0
  1  2  2  0  0  0
  2  3  1  0  0  0
  3  4  2  0  0  0
  4  5  1  0  0  0
  5  6  2  0  0  0
  5  7  1  0  0  0
  7  8  2  0  0  0
  8  9  1  0  0  0
  9 10  1  0  0  0
  9 11  2  0  0  0
 11 12  1  0  0  0
 12 13  1  0  0  0
 12 14  2  0  0  0
  6  1  1  0  0  0
 14  7  1  0  0  0
 30 31  1  0  0  0
 25 26  1  0  0  0
 25 27  1  0  0  0
 22 23  1  0  0  0
 10 15  1  0  0  0
 10 16  1  0  0  0
M  END
> <minimizedAffinity>
-6.18099

> <CNNscore>
0.1666206121

> <CNNaffinity>
4.7335944176

> <CNN_VS>
0.7887144089

> <CNNaffinity_variance>
0.1627406180

$$$$
[H]O[C@]([H])(C([H])([H])[H])[C@@]([H])(C(=O)N([H])S(=O)(=O)c1c([H])c([H])c([H])c(-c2nc(C([H])([H])[H])nc(N([H])[H])c2[H])c1[H])N([H])[H]


 31 32  0  0  0  0  0  0  0  0999 V2000
  155.9520  140.7659  183.8112 C   0  0  0  0  0  0  0  0  0  0  0  0
  155.9594  139.5417  184.4381 C   0  0  0  0  0  0  0  0  0  0  0  0
  157.0025  139.1664  185.2781 C   0  0  0  0  0  0  0  0  0  0  0  0
  158.0199  140.0788  185.4480 C   0  0  0  0  0  0  0  0  0  0  0  0
  158.0468  141.3228  184.8331 C   0  0  0  0  0  0  0  0  0  0  0  0
  157.0124  141.6508  184.0225 C   0  0  0  0  0  0  0  0  0  0  0  0
  159.1747  142.2194  185.0766 C   0  0  0  0  0  0  0  0  0  0  0  0
  160.0473  142.0400  186.1259 C   0  0  0  0  0  0  0  0  0  0  0  0
  161.1157  142.9106  186.3291 C   0  0  0  0  0  0  0  0  0  0  0  0
  162.0383  142.7523  187.4037 N   0  0  0  0  0  0  0  0  0  0  0  0
  161.2493  143.9257  185.4563 N   0  0  0  0  0  0  0  0  0  0  0  0
  160.4290  144.1322  184.4325 C   0  0  0  0  0  0  0  0  0  0  0  0
  160.6722  145.2883  183.5328 C   0  0  0  0  0  0  0  0  0  0  0  0
  159.4087  143.2765  184.2618 N   0  0  0  0  0  0  0  0  0  0  0  0
  163.0302  142.5436  187.1520 H   0  0  0  0  0  0  0  0  0  0  0  0
  161.7169  142.8439  188.3737 H   0  0  0  0  0  0  0  0  0  0  0  0
  154.6142  141.2124  182.7476 S   0  0  0  0  0  0  0  0  0  0  0  0
  154.0524  142.5002  183.2418 O   0  0  0  0  0  0  0  0  0  0  0  0
  155.1844  141.3043  181.3609 O   0  0  0  0  0  0  0  0  0  0  0  0
  152.4259  139.7459  181.9236 C   0  0  0  0  0  0  0  0  0  0  0  0
  152.3215  140.5968  181.0013 O   0  0  0  0  0  0  0  0  0  0  0  0
  153.4782  139.9114  182.8350 N   0  0  0  0  0  0  0  0  0  0  0  0
  153.5999  139.2277  183.6112 H   0  0  0  0  0  0  0  0  0  0  0  0
  151.4847  138.6057  182.0606 C   0  0  0  0  0  0  0  0  0  0  0  0
  150.7695  138.3297  180.8556 N   0  0  0  0  0  0  0  0  0  0  0  0
  149.7417  138.5337  180.9242 H   0  0  0  0  0  0  0  0  0  0  0  0
  150.9377  137.3687  180.4650 H   0  0  0  0  0  0  0  0  0  0  0  0
  151.5778  137.0433  183.9412 C   0  0  0  0  0  0  0  0  0  0  0  0
  152.1686  137.3636  182.5849 C   0  0  0  0  0  0  0  0  0  0  0  0
  151.9896  136.2651  181.7587 O   0  0  0  0  0  0  0  0  0  0  0  0
  152.5721  135.5430  182.0828 H   0  0  0  0  0  0  0  0  0  0  0  0
 28 29  1  0  0  0
 29 30  1  0  0  0
 29 24  1  0  0  0
 24 25  1  0  0  0
 24 20  1  0  0  0
 20 21  2  0  0  0
 20 22  1  0  0  0
 22 17  1  0  0  0
 17 18  2  0  0  0
 17 19  2  0  0  0
 17  1  1  0  0  0
  1  2  2  0  0  0
  2  3  1  0  0  0
  3  4  2  0  0  0
  4  5  1  0  0  0
  5  6  2  0  0  0
  5  7  1  0  0  0
  7  8  2  0  0  0
  8  9  1  0  0  0
  9 10  1  0  0  0
  9 11  2  0  0  0
 11 12  1  0  0  0
 12 13  1  0  0  0
 12 14  2  0  0  0
  6  1  1  0  0  0
 14  7  1  0  0  0
 30 31  1  0  0  0
 25 26  1  0  0  0
 25 27  1  0  0  0
 22 23  1  0  0  0
 10 15  1  0  0  0
 10 16  1  0  0  0
M  END
> <minimizedAffinity>
-7.10419

> <CNNscore>
0.1481071264

> <CNNaffinity>
5.4490041733

> <CNN_VS>
0.8070363402

> <CNNaffinity_variance>
0.0684631690

$$$$
[H]c1nc(N([H])[H])c(C(=O)N([H])c2nc([H])c([H])c([H])c2N2C([H])([H])C([H])([H])C(N([H])[H])(C([H])([H])[H])C([H])([H])C2([H])[H])nc1-c1nc([H])c([H])c([H])c1C(F)(F)F


 39 42  0  0  0  0  0  0  0  0999 V2000
  154.6808  136.1919  187.3241 N   0  0  0  0  0  0  0  0  0  0  0  0
  154.4640  136.4139  185.9851 C   0  0  0  0  0  0  0  0  0  0  0  0
  154.2636  135.2568  185.3329 O   0  0  0  0  0  0  0  0  0  0  0  0
  154.6297  135.1129  187.5727 H   0  0  0  0  0  0  0  0  0  0  0  0
  154.3943  137.5368  185.0947 C   0  0  0  0  0  0  0  0  0  0  0  0
  155.3632  138.3994  184.8562 N   0  0  0  0  0  0  0  0  0  0  0  0
  155.3055  139.5034  184.0471 C   0  0  0  0  0  0  0  0  0  0  0  0
  154.1180  139.7179  183.4357 C   0  0  0  0  0  0  0  0  0  0  0  0
  153.0760  138.8532  183.6461 N   0  0  0  0  0  0  0  0  0  0  0  0
  153.1788  137.8046  184.4322 C   0  0  0  0  0  0  0  0  0  0  0  0
  152.0865  136.9033  184.6372 N   0  0  0  0  0  0  0  0  0  0  0  0
  151.3732  137.1631  185.3730 H   0  0  0  0  0  0  0  0  0  0  0  0
  151.9664  136.0175  184.0940 H   0  0  0  0  0  0  0  0  0  0  0  0
  156.4466  140.3891  184.0361 C   0  0  0  0  0  0  0  0  0  0  0  0
  157.6297  139.7389  184.3178 N   0  0  0  0  0  0  0  0  0  0  0  0
  158.8179  140.2725  184.3432 C   0  0  0  0  0  0  0  0  0  0  0  0
  158.9218  141.6257  184.0617 C   0  0  0  0  0  0  0  0  0  0  0  0
  157.7879  142.3289  183.7712 C   0  0  0  0  0  0  0  0  0  0  0  0
  156.5118  141.7120  183.7501 C   0  0  0  0  0  0  0  0  0  0  0  0
  155.3708  142.5060  183.3042 C   0  0  0  0  0  0  0  0  0  0  0  0
  154.9551  142.2511  181.9904 F   0  0  0  0  0  0  0  0  0  0  0  0
  155.9764  143.8111  183.0340 F   0  0  0  0  0  0  0  0  0  0  0  0
  154.4352  142.8591  184.2057 F   0  0  0  0  0  0  0  0  0  0  0  0
  156.0194  136.5598  189.3252 C   0  0  0  0  0  0  0  0  0  0  0  0
  156.3052  137.3206  190.4356 C   0  0  0  0  0  0  0  0  0  0  0  0
  155.5695  138.4569  190.6557 C   0  0  0  0  0  0  0  0  0  0  0  0
  154.5572  138.8398  189.7846 C   0  0  0  0  0  0  0  0  0  0  0  0
  154.3082  138.0747  188.7177 N   0  0  0  0  0  0  0  0  0  0  0  0
  154.9918  136.9552  188.4509 C   0  0  0  0  0  0  0  0  0  0  0  0
  159.6454  132.4365  188.6123 C   0  0  0  0  0  0  0  0  0  0  0  0
  158.2445  133.0016  188.5175 C   0  0  0  0  0  0  0  0  0  0  0  0
  157.3258  131.9350  188.1700 N   0  0  0  0  0  0  0  0  0  0  0  0
  158.1611  134.0792  187.4766 C   0  0  0  0  0  0  0  0  0  0  0  0
  157.7778  135.4215  188.0255 C   0  0  0  0  0  0  0  0  0  0  0  0
  156.7809  135.4205  189.0386 N   0  0  0  0  0  0  0  0  0  0  0  0
  156.5475  134.1988  189.7937 C   0  0  0  0  0  0  0  0  0  0  0  0
  157.8662  133.4877  189.8974 C   0  0  0  0  0  0  0  0  0  0  0  0
  156.4595  132.3349  187.7462 H   0  0  0  0  0  0  0  0  0  0  0  0
  157.0269  131.3735  188.9943 H   0  0  0  0  0  0  0  0  0  0  0  0
 30 31  1  0  0  0
 31 32  1  0  0  0
 31 33  1  0  0  0
 33 34  1  0  0  0
 34 35  1  0  0  0
 35 36  1  0  0  0
 36 37  1  0  0  0
 35 24  1  0  0  0
 24 25  2  0  0  0
 25 26  1  0  0  0
 26 27  2  0  0  0
 27 28  1  0  0  0
 28 29  2  0  0  0
 29  1  1  0  0  0
  1  2  1  0  0  0
  2  3  2  0  0  0
  2  5  1  0  0  0
  5  6  2  0  0  0
  6  7  1  0  0  0
  7  8  2  0  0  0
  8  9  1  0  0  0
  9 10  2  0  0  0
 10 11  1  0  0  0
  7 14  1  0  0  0
 14 15  2  0  0  0
 15 16  1  0  0  0
 16 17  2  0  0  0
 17 18  1  0  0  0
 18 19  2  0  0  0
 19 20  1  0  0  0
 20 21  1  0  0  0
 20 22  1  0  0  0
 20 23  1  0  0  0
 37 31  1  0  0  0
 29 24  1  0  0  0
 10  5  1  0  0  0
 19 14  1  0  0  0
 32 38  1  0  0  0
 32 39  1  0  0  0
  1  4  1  0  0  0
 11 12  1  0  0  0
 11 13  1  0  0  0
M  END
> <minimizedAffinity>
-7.63539

> <CNNscore>
0.3690282404

> <CNNaffinity>
6.4352674484

> <CNN_VS>
2.3747954369

> <CNNaffinity_variance>
0.1571252495

$$$$
[H]c1nc(N([H])[H])c(C(=O)N([H])c2nc([H])c([H])c([H])c2N2C([H])([H])C([H])([H])C(N([H])[H])(C([H])([H])[H])C([H])([H])C2([H])[H])nc1-c1nc([H])c([H])c([H])c1C(F)(F)F


 39 42  0  0  0  0  0  0  0  0999 V2000
  152.4119  137.1440  182.1795 N   0  0  0  0  0  0  0  0  0  0  0  0
  153.4204  137.1360  183.1133 C   0  0  0  0  0  0  0  0  0  0  0  0
  153.6064  135.9014  183.6087 O   0  0  0  0  0  0  0  0  0  0  0  0
  151.9846  136.1320  182.0313 H   0  0  0  0  0  0  0  0  0  0  0  0
  154.3252  138.0800  183.7039 C   0  0  0  0  0  0  0  0  0  0  0  0
  154.9618  139.0459  183.0703 N   0  0  0  0  0  0  0  0  0  0  0  0
  155.8639  139.9287  183.6031 C   0  0  0  0  0  0  0  0  0  0  0  0
  156.1188  139.7779  184.9229 C   0  0  0  0  0  0  0  0  0  0  0  0
  155.4852  138.7913  185.6320 N   0  0  0  0  0  0  0  0  0  0  0  0
  154.6250  137.9667  185.0771 C   0  0  0  0  0  0  0  0  0  0  0  0
  153.9624  136.9459  185.8297 N   0  0  0  0  0  0  0  0  0  0  0  0
  154.4771  136.0330  185.9691 H   0  0  0  0  0  0  0  0  0  0  0  0
  153.0095  137.0679  186.2434 H   0  0  0  0  0  0  0  0  0  0  0  0
  156.5453  140.8228  182.6959 C   0  0  0  0  0  0  0  0  0  0  0  0
  157.6403  140.2398  182.0937 N   0  0  0  0  0  0  0  0  0  0  0  0
  158.4207  140.7916  181.2083 C   0  0  0  0  0  0  0  0  0  0  0  0
  158.1371  142.0922  180.8221 C   0  0  0  0  0  0  0  0  0  0  0  0
  157.0638  142.7273  181.3782 C   0  0  0  0  0  0  0  0  0  0  0  0
  156.2352  142.0922  182.3371 C   0  0  0  0  0  0  0  0  0  0  0  0
  155.0360  142.7947  182.7836 C   0  0  0  0  0  0  0  0  0  0  0  0
  153.8452  142.3656  182.1820 F   0  0  0  0  0  0  0  0  0  0  0  0
  155.1293  144.0700  182.0707 F   0  0  0  0  0  0  0  0  0  0  0  0
  154.9786  143.2355  184.0546 F   0  0  0  0  0  0  0  0  0  0  0  0
  150.3471  138.1938  181.4270 C   0  0  0  0  0  0  0  0  0  0  0  0
  149.7112  139.1278  180.6417 C   0  0  0  0  0  0  0  0  0  0  0  0
  150.4762  139.9412  179.8453 C   0  0  0  0  0  0  0  0  0  0  0  0
  151.8611  139.8328  179.8242 C   0  0  0  0  0  0  0  0  0  0  0  0
  152.4425  138.9130  180.5997 N   0  0  0  0  0  0  0  0  0  0  0  0
  151.7490  138.0912  181.3970 C   0  0  0  0  0  0  0  0  0  0  0  0
  146.8141  135.5533  184.7741 C   0  0  0  0  0  0  0  0  0  0  0  0
  148.0951  135.5997  183.9692 C   0  0  0  0  0  0  0  0  0  0  0  0
  148.6819  134.2742  183.9357 N   0  0  0  0  0  0  0  0  0  0  0  0
  149.0815  136.5576  184.5701 C   0  0  0  0  0  0  0  0  0  0  0  0
  149.4431  137.6989  183.6664 C   0  0  0  0  0  0  0  0  0  0  0  0
  149.6053  137.3794  182.2909 N   0  0  0  0  0  0  0  0  0  0  0  0
  148.9836  136.1704  181.7724 C   0  0  0  0  0  0  0  0  0  0  0  0
  147.7169  135.9588  182.5510 C   0  0  0  0  0  0  0  0  0  0  0  0
  149.7022  134.3415  183.7250 H   0  0  0  0  0  0  0  0  0  0  0  0
  148.2623  133.6640  183.2038 H   0  0  0  0  0  0  0  0  0  0  0  0
 30 31  1  0  0  0
 31 32  1  0  0  0
 31 33  1  0  0  0
 33 34  1  0  0  0
 34 35  1  0  0  0
 35 36  1  0  0  0
 36 37  1  0  0  0
 35 24  1  0  0  0
 24 25  2  0  0  0
 25 26  1  0  0  0
 26 27  2  0  0  0
 27 28  1  0  0  0
 28 29  2  0  0  0
 29  1  1  0  0  0
  1  2  1  0  0  0
  2  3  2  0  0  0
  2  5  1  0  0  0
  5  6  2  0  0  0
  6  7  1  0  0  0
  7  8  2  0  0  0
  8  9  1  0  0  0
  9 10  2  0  0  0
 10 11  1  0  0  0
  7 14  1  0  0  0
 14 15  2  0  0  0
 15 16  1  0  0  0
 16 17  2  0  0  0
 17 18  1  0  0  0
 18 19  2  0  0  0
 19 20  1  0  0  0
 20 21  1  0  0  0
 20 22  1  0  0  0
 20 23  1  0  0  0
 37 31  1  0  0  0
 29 24  1  0  0  0
 10  5  1  0  0  0
 19 14  1  0  0  0
 32 38  1  0  0  0
 32 39  1  0  0  0
  1  4  1  0  0  0
 11 12  1  0  0  0
 11 13  1  0  0  0
M  END
> <minimizedAffinity>
-7.12146

> <CNNscore>
0.3143494725

> <CNNaffinity>
6.5164847374

> <CNN_VS>
2.0484535694

> <CNNaffinity_variance>
0.0411311612

$$$$
[H]c1nc(N([H])[H])c(C(=O)N([H])c2nc([H])c([H])c([H])c2N2C([H])([H])C([H])([H])C(N([H])[H])(C([H])([H])[H])C([H])([H])C2([H])[H])nc1-c1nc([H])c([H])c([H])c1C(F)(F)F


 39 42  0  0  0  0  0  0  0  0999 V2000
  157.5426  140.8266  182.7427 N   0  0  0  0  0  0  0  0  0  0  0  0
  156.3224  140.3844  183.1951 C   0  0  0  0  0  0  0  0  0  0  0  0
  156.4572  139.6862  184.3347 O   0  0  0  0  0  0  0  0  0  0  0  0
  158.3645  140.5228  183.4216 H   0  0  0  0  0  0  0  0  0  0  0  0
  154.9493  140.4613  182.7863 C   0  0  0  0  0  0  0  0  0  0  0  0
  154.1154  139.4458  182.6723 N   0  0  0  0  0  0  0  0  0  0  0  0
  152.8159  139.4886  182.2407 C   0  0  0  0  0  0  0  0  0  0  0  0
  152.3549  140.7129  181.8966 C   0  0  0  0  0  0  0  0  0  0  0  0
  153.1772  141.8045  181.9959 N   0  0  0  0  0  0  0  0  0  0  0  0
  154.4192  141.7146  182.4169 C   0  0  0  0  0  0  0  0  0  0  0  0
  155.2659  142.8631  182.5252 N   0  0  0  0  0  0  0  0  0  0  0  0
  155.7720  143.1781  181.6521 H   0  0  0  0  0  0  0  0  0  0  0  0
  155.3965  143.3952  183.4162 H   0  0  0  0  0  0  0  0  0  0  0  0
  152.1244  138.2325  182.0646 C   0  0  0  0  0  0  0  0  0  0  0  0
  152.4888  137.2869  182.9999 N   0  0  0  0  0  0  0  0  0  0  0  0
  152.0071  136.0813  183.1083 C   0  0  0  0  0  0  0  0  0  0  0  0
  151.0317  135.6942  182.2028 C   0  0  0  0  0  0  0  0  0  0  0  0
  150.6227  136.5844  181.2516 C   0  0  0  0  0  0  0  0  0  0  0  0
  151.1685  137.8900  181.1673 C   0  0  0  0  0  0  0  0  0  0  0  0
  150.5841  138.8195  180.2053 C   0  0  0  0  0  0  0  0  0  0  0  0
  149.5652  139.6332  180.7187 F   0  0  0  0  0  0  0  0  0  0  0  0
  149.7148  137.9507  179.4099 F   0  0  0  0  0  0  0  0  0  0  0  0
  151.3682  139.3255  179.2347 F   0  0  0  0  0  0  0  0  0  0  0  0
  159.1087  142.4156  181.7657 C   0  0  0  0  0  0  0  0  0  0  0  0
  159.5728  143.0957  180.6633 C   0  0  0  0  0  0  0  0  0  0  0  0
  158.9644  142.8727  179.4545 C   0  0  0  0  0  0  0  0  0  0  0  0
  157.9038  141.9834  179.3350 C   0  0  0  0  0  0  0  0  0  0  0  0
  157.4803  141.3424  180.4283 N   0  0  0  0  0  0  0  0  0  0  0  0
  158.0336  141.5192  181.6344 C   0  0  0  0  0  0  0  0  0  0  0  0
  160.8141  143.0465  186.9956 C   0  0  0  0  0  0  0  0  0  0  0  0
  161.0957  142.7889  185.5309 C   0  0  0  0  0  0  0  0  0  0  0  0
  162.4837  142.3991  185.3767 N   0  0  0  0  0  0  0  0  0  0  0  0
  160.8352  144.0128  184.7028 C   0  0  0  0  0  0  0  0  0  0  0  0
  159.7550  143.8306  183.6781 C   0  0  0  0  0  0  0  0  0  0  0  0
  159.7354  142.5778  183.0071 N   0  0  0  0  0  0  0  0  0  0  0  0
  160.3884  141.4366  183.6304 C   0  0  0  0  0  0  0  0  0  0  0  0
  160.2493  141.6080  185.1159 C   0  0  0  0  0  0  0  0  0  0  0  0
  162.7958  142.5733  184.3958 H   0  0  0  0  0  0  0  0  0  0  0  0
  162.6442  141.3885  185.5695 H   0  0  0  0  0  0  0  0  0  0  0  0
 30 31  1  0  0  0
 31 32  1  0  0  0
 31 33  1  0  0  0
 33 34  1  0  0  0
 34 35  1  0  0  0
 35 36  1  0  0  0
 36 37  1  0  0  0
 35 24  1  0  0  0
 24 25  2  0  0  0
 25 26  1  0  0  0
 26 27  2  0  0  0
 27 28  1  0  0  0
 28 29  2  0  0  0
 29  1  1  0  0  0
  1  2  1  0  0  0
  2  3  2  0  0  0
  2  5  1  0  0  0
  5  6  2  0  0  0
  6  7  1  0  0  0
  7  8  2  0  0  0
  8  9  1  0  0  0
  9 10  2  0  0  0
 10 11  1  0  0  0
  7 14  1  0  0  0
 14 15  2  0  0  0
 15 16  1  0  0  0
 16 17  2  0  0  0
 17 18  1  0  0  0
 18 19  2  0  0  0
 19 20  1  0  0  0
 20 21  1  0  0  0
 20 22  1  0  0  0
 20 23  1  0  0  0
 37 31  1  0  0  0
 29 24  1  0  0  0
 10  5  1  0  0  0
 19 14  1  0  0  0
 32 38  1  0  0  0
 32 39  1  0  0  0
  1  4  1  0  0  0
 11 12  1  0  0  0
 11 13  1  0  0  0
M  END
> <minimizedAffinity>
-9.88736

> <CNNscore>
0.2935791612

> <CNNaffinity>
7.1564040184

> <CNN_VS>
2.1009709835

> <CNNaffinity_variance>
0.1228383631

$$$$
[H]c1nc(N([H])[H])c(C(=O)N([H])c2nc([H])c([H])c([H])c2N2C([H])([H])C([H])([H])C(N([H])[H])(C([H])([H])[H])C([H])([H])C2([H])[H])nc1-c1nc([H])c([H])c([H])c1C(F)(F)F


 39 42  0  0  0  0  0  0  0  0999 V2000
  152.3210  136.8959  182.0028 N   0  0  0  0  0  0  0  0  0  0  0  0
  153.1891  136.7268  183.0549 C   0  0  0  0  0  0  0  0  0  0  0  0
  153.2983  135.4289  183.3833 O   0  0  0  0  0  0  0  0  0  0  0  0
  151.9139  135.9274  181.6494 H   0  0  0  0  0  0  0  0  0  0  0  0
  154.0069  137.5516  183.8971 C   0  0  0  0  0  0  0  0  0  0  0  0
  154.5601  138.6998  183.5576 N   0  0  0  0  0  0  0  0  0  0  0  0
  155.3808  139.4810  184.3279 C   0  0  0  0  0  0  0  0  0  0  0  0
  155.6429  139.0074  185.5675 C   0  0  0  0  0  0  0  0  0  0  0  0
  155.0942  137.8195  185.9745 N   0  0  0  0  0  0  0  0  0  0  0  0
  154.3103  137.1036  185.1992 C   0  0  0  0  0  0  0  0  0  0  0  0
  153.7355  135.8690  185.6384 N   0  0  0  0  0  0  0  0  0  0  0  0
  154.3266  134.9973  185.5457 H   0  0  0  0  0  0  0  0  0  0  0  0
  152.7742  135.7982  186.0443 H   0  0  0  0  0  0  0  0  0  0  0  0
  155.9858  140.6364  183.7069 C   0  0  0  0  0  0  0  0  0  0  0  0
  155.1514  141.7343  183.6948 N   0  0  0  0  0  0  0  0  0  0  0  0
  155.4388  142.9186  183.2341 C   0  0  0  0  0  0  0  0  0  0  0  0
  156.7031  143.1119  182.7000 C   0  0  0  0  0  0  0  0  0  0  0  0
  157.5804  142.0657  182.6839 C   0  0  0  0  0  0  0  0  0  0  0  0
  157.2321  140.7914  183.1980 C   0  0  0  0  0  0  0  0  0  0  0  0
  158.2703  139.7670  183.2601 C   0  0  0  0  0  0  0  0  0  0  0  0
  158.6824  139.4258  184.5553 F   0  0  0  0  0  0  0  0  0  0  0  0
  159.4763  140.5125  182.8955 F   0  0  0  0  0  0  0  0  0  0  0  0
  158.2896  138.8061  182.3171 F   0  0  0  0  0  0  0  0  0  0  0  0
  150.3919  138.1971  181.2833 C   0  0  0  0  0  0  0  0  0  0  0  0
  149.8750  139.2490  180.5625 C   0  0  0  0  0  0  0  0  0  0  0  0
  150.7411  140.0480  179.8606 C   0  0  0  0  0  0  0  0  0  0  0  0
  152.1097  139.8095  179.8703 C   0  0  0  0  0  0  0  0  0  0  0  0
  152.5741  138.7777  180.5811 N   0  0  0  0  0  0  0  0  0  0  0  0
  151.7783  137.9634  181.2850 C   0  0  0  0  0  0  0  0  0  0  0  0
  147.6636  134.4365  184.2953 C   0  0  0  0  0  0  0  0  0  0  0  0
  147.8074  135.8346  183.7334 C   0  0  0  0  0  0  0  0  0  0  0  0
  146.8142  136.6957  184.3453 N   0  0  0  0  0  0  0  0  0  0  0  0
  147.6163  135.8459  182.2452 C   0  0  0  0  0  0  0  0  0  0  0  0
  148.8244  136.3051  181.4840 C   0  0  0  0  0  0  0  0  0  0  0  0
  149.5463  137.3893  182.0529 N   0  0  0  0  0  0  0  0  0  0  0  0
  149.3966  137.6645  183.4738 C   0  0  0  0  0  0  0  0  0  0  0  0
  149.1655  136.3461  184.1549 C   0  0  0  0  0  0  0  0  0  0  0  0
  146.6425  137.5282  183.7392 H   0  0  0  0  0  0  0  0  0  0  0  0
  147.1094  137.0561  185.2765 H   0  0  0  0  0  0  0  0  0  0  0  0
 30 31  1  0  0  0
 31 32  1  0  0  0
 31 33  1  0  0  0
 33 34  1  0  0  0
 34 35  1  0  0  0
 35 36  1  0  0  0
 36 37  1  0  0  0
 35 24  1  0  0  0
 24 25  2  0  0  0
 25 26  1  0  0  0
 26 27  2  0  0  0
 27 28  1  0  0  0
 28 29  2  0  0  0
 29  1  1  0  0  0
  1  2  1  0  0  0
  2  3  2  0  0  0
  2  5  1  0  0  0
  5  6  2  0  0  0
  6  7  1  0  0  0
  7  8  2  0  0  0
  8  9  1  0  0  0
  9 10  2  0  0  0
 10 11  1  0  0  0
  7 14  1  0  0  0
 14 15  2  0  0  0
 15 16  1  0  0  0
 16 17  2  0  0  0
 17 18  1  0  0  0
 18 19  2  0  0  0
 19 20  1  0  0  0
 20 21  1  0  0  0
 20 22  1  0  0  0
 20 23  1  0  0  0
 37 31  1  0  0  0
 29 24  1  0  0  0
 10  5  1  0  0  0
 19 14  1  0  0  0
 32 38  1  0  0  0
 32 39  1  0  0  0
  1  4  1  0  0  0
 11 12  1  0  0  0
 11 13  1  0  0  0
M  END
> <minimizedAffinity>
-7.11925

> <CNNscore>
0.2782618701

> <CNNaffinity>
6.3630857468

> <CNN_VS>
1.7706041336

> <CNNaffinity_variance>
0.0776796937

$$$$
[H]c1nc(N([H])[H])c(C(=O)N([H])c2nc([H])c([H])c([H])c2N2C([H])([H])C([H])([H])C(N([H])[H])(C([H])([H])[H])C([H])([H])C2([H])[H])nc1-c1nc([H])c([H])c([H])c1C(F)(F)F


 39 42  0  0  0  0  0  0  0  0999 V2000
  154.2299  135.6999  188.5401 N   0  0  0  0  0  0  0  0  0  0  0  0
  152.9610  135.1947  188.3859 C   0  0  0  0  0  0  0  0  0  0  0  0
  152.9157  134.3104  187.3759 O   0  0  0  0  0  0  0  0  0  0  0  0
  154.9367  135.2587  187.8091 H   0  0  0  0  0  0  0  0  0  0  0  0
  151.6755  135.3520  189.0034 C   0  0  0  0  0  0  0  0  0  0  0  0
  151.4012  135.1739  190.2811 N   0  0  0  0  0  0  0  0  0  0  0  0
  150.1751  135.2733  190.8843 C   0  0  0  0  0  0  0  0  0  0  0  0
  149.1452  135.5872  190.0655 C   0  0  0  0  0  0  0  0  0  0  0  0
  149.3719  135.7847  188.7286 N   0  0  0  0  0  0  0  0  0  0  0  0
  150.5681  135.6791  188.1940 C   0  0  0  0  0  0  0  0  0  0  0  0
  150.7944  135.8966  186.7979 N   0  0  0  0  0  0  0  0  0  0  0  0
  150.6253  135.0822  186.1453 H   0  0  0  0  0  0  0  0  0  0  0  0
  151.1093  136.8137  186.4057 H   0  0  0  0  0  0  0  0  0  0  0  0
  150.0795  134.9035  192.2775 C   0  0  0  0  0  0  0  0  0  0  0  0
  149.2585  133.8153  192.4859 N   0  0  0  0  0  0  0  0  0  0  0  0
  149.0124  133.2403  193.6288 C   0  0  0  0  0  0  0  0  0  0  0  0
  149.6280  133.7604  194.7565 C   0  0  0  0  0  0  0  0  0  0  0  0
  150.4567  134.8369  194.6196 C   0  0  0  0  0  0  0  0  0  0  0  0
  150.7027  135.4339  193.3576 C   0  0  0  0  0  0  0  0  0  0  0  0
  151.7003  136.4969  193.2818 C   0  0  0  0  0  0  0  0  0  0  0  0
  152.9793  136.0759  192.8934 F   0  0  0  0  0  0  0  0  0  0  0  0
  152.0254  136.7304  194.6900 F   0  0  0  0  0  0  0  0  0  0  0  0
  151.3048  137.7321  192.9202 F   0  0  0  0  0  0  0  0  0  0  0  0
  156.2132  136.5067  189.7008 C   0  0  0  0  0  0  0  0  0  0  0  0
  156.8162  137.4518  190.4987 C   0  0  0  0  0  0  0  0  0  0  0  0
  156.0697  138.5216  190.9220 C   0  0  0  0  0  0  0  0  0  0  0  0
  154.7354  138.6574  190.5596 C   0  0  0  0  0  0  0  0  0  0  0  0
  154.1844  137.7187  189.7846 N   0  0  0  0  0  0  0  0  0  0  0  0
  154.8619  136.6527  189.3413 C   0  0  0  0  0  0  0  0  0  0  0  0
  159.8174  132.7180  187.8806 C   0  0  0  0  0  0  0  0  0  0  0  0
  158.4213  133.1272  188.2981 C   0  0  0  0  0  0  0  0  0  0  0  0
  157.5874  131.9444  188.3867 N   0  0  0  0  0  0  0  0  0  0  0  0
  157.8155  134.0816  187.3114 C   0  0  0  0  0  0  0  0  0  0  0  0
  157.4925  135.4267  187.8914 C   0  0  0  0  0  0  0  0  0  0  0  0
  156.9548  135.4268  189.2071 N   0  0  0  0  0  0  0  0  0  0  0  0
  157.1820  134.2693  190.0591 C   0  0  0  0  0  0  0  0  0  0  0  0
  158.5250  133.7082  189.6893 C   0  0  0  0  0  0  0  0  0  0  0  0
  156.5813  132.2109  188.3053 H   0  0  0  0  0  0  0  0  0  0  0  0
  157.6938  131.4408  189.2918 H   0  0  0  0  0  0  0  0  0  0  0  0
 30 31  1  0  0  0
 31 32  1  0  0  0
 31 33  1  0  0  0
 33 34  1  0  0  0
 34 35  1  0  0  0
 35 36  1  0  0  0
 36 37  1  0  0  0
 35 24  1  0  0  0
 24 25  2  0  0  0
 25 26  1  0  0  0
 26 27  2  0  0  0
 27 28  1  0  0  0
 28 29  2  0  0  0
 29  1  1  0  0  0
  1  2  1  0  0  0
  2  3  2  0  0  0
  2  5  1  0  0  0
  5  6  2  0  0  0
  6  7  1  0  0  0
  7  8  2  0  0  0
  8  9  1  0  0  0
  9 10  2  0  0  0
 10 11  1  0  0  0
  7 14  1  0  0  0
 14 15  2  0  0  0
 15 16  1  0  0  0
 16 17  2  0  0  0
 17 18  1  0  0  0
 18 19  2  0  0  0
 19 20  1  0  0  0
 20 21  1  0  0  0
 20 22  1  0  0  0
 20 23  1  0  0  0
 37 31  1  0  0  0
 29 24  1  0  0  0
 10  5  1  0  0  0
 19 14  1  0  0  0
 32 38  1  0  0  0
 32 39  1  0  0  0
  1  4  1  0  0  0
 11 12  1  0  0  0
 11 13  1  0  0  0
M  END
> <minimizedAffinity>
-6.80303

> <CNNscore>
0.2651720941

> <CNNaffinity>
6.0267448425

> <CNN_VS>
1.5981245041

> <CNNaffinity_variance>
0.0797078535

$$$$
[H]c1nc(N([H])[H])c(C(=O)N([H])c2nc([H])c([H])c([H])c2N2C([H])([H])C([H])([H])C(N([H])[H])(C([H])([H])[H])C([H])([H])C2([H])[H])nc1-c1nc([H])c([H])c([H])c1C(F)(F)F


 39 42  0  0  0  0  0  0  0  0999 V2000
  152.8680  137.1835  188.8791 N   0  0  0  0  0  0  0  0  0  0  0  0
  152.3905  136.9812  187.6062 C   0  0  0  0  0  0  0  0  0  0  0  0
  151.0690  136.7413  187.6216 O   0  0  0  0  0  0  0  0  0  0  0  0
  152.0589  137.1178  189.6340 H   0  0  0  0  0  0  0  0  0  0  0  0
  152.9130  136.9542  186.2702 C   0  0  0  0  0  0  0  0  0  0  0  0
  153.1888  138.0057  185.5234 N   0  0  0  0  0  0  0  0  0  0  0  0
  153.6441  138.0045  184.2312 C   0  0  0  0  0  0  0  0  0  0  0  0
  153.8230  136.7839  183.6763 C   0  0  0  0  0  0  0  0  0  0  0  0
  153.5532  135.6561  184.4062 N   0  0  0  0  0  0  0  0  0  0  0  0
  153.1179  135.7068  185.6456 C   0  0  0  0  0  0  0  0  0  0  0  0
  152.8482  134.5220  186.4013 N   0  0  0  0  0  0  0  0  0  0  0  0
  151.9010  134.0697  186.2748 H   0  0  0  0  0  0  0  0  0  0  0  0
  153.5405  134.0920  187.0570 H   0  0  0  0  0  0  0  0  0  0  0  0
  153.7519  139.2767  183.5554 C   0  0  0  0  0  0  0  0  0  0  0  0
  154.7729  140.0598  184.0513 N   0  0  0  0  0  0  0  0  0  0  0  0
  155.1263  141.2358  183.6161 C   0  0  0  0  0  0  0  0  0  0  0  0
  154.4170  141.7674  182.5505 C   0  0  0  0  0  0  0  0  0  0  0  0
  153.3945  141.0417  182.0098 C   0  0  0  0  0  0  0  0  0  0  0  0
  153.0414  139.7628  182.5090 C   0  0  0  0  0  0  0  0  0  0  0  0
  152.0232  139.0012  181.7919 C   0  0  0  0  0  0  0  0  0  0  0  0
  152.5194  138.1494  180.7959 F   0  0  0  0  0  0  0  0  0  0  0  0
  151.4565  140.0010  180.8849 F   0  0  0  0  0  0  0  0  0  0  0  0
  150.9129  138.6217  182.4523 F   0  0  0  0  0  0  0  0  0  0  0  0
  154.3015  137.1210  190.8471 C   0  0  0  0  0  0  0  0  0  0  0  0
  155.5265  137.3562  191.4279 C   0  0  0  0  0  0  0  0  0  0  0  0
  156.5320  137.8671  190.6476 C   0  0  0  0  0  0  0  0  0  0  0  0
  156.3290  138.1444  189.3015 C   0  0  0  0  0  0  0  0  0  0  0  0
  155.1254  137.9038  188.7733 N   0  0  0  0  0  0  0  0  0  0  0  0
  154.1060  137.4067  189.4844 C   0  0  0  0  0  0  0  0  0  0  0  0
  149.6908  135.2039  193.2396 C   0  0  0  0  0  0  0  0  0  0  0  0
  151.1987  135.2581  193.1201 C   0  0  0  0  0  0  0  0  0  0  0  0
  151.7780  134.2291  193.9614 N   0  0  0  0  0  0  0  0  0  0  0  0
  151.7310  136.5955  193.5441 C   0  0  0  0  0  0  0  0  0  0  0  0
  152.4423  137.3371  192.4514 C   0  0  0  0  0  0  0  0  0  0  0  0
  153.2650  136.5532  191.5976 N   0  0  0  0  0  0  0  0  0  0  0  0
  153.0207  135.1216  191.5067 C   0  0  0  0  0  0  0  0  0  0  0  0
  151.5445  134.9153  191.6896 C   0  0  0  0  0  0  0  0  0  0  0  0
  152.7686  134.4694  194.1871 H   0  0  0  0  0  0  0  0  0  0  0  0
  151.7909  133.2931  193.5055 H   0  0  0  0  0  0  0  0  0  0  0  0
 30 31  1  0  0  0
 31 32  1  0  0  0
 31 33  1  0  0  0
 33 34  1  0  0  0
 34 35  1  0  0  0
 35 36  1  0  0  0
 36 37  1  0  0  0
 35 24  1  0  0  0
 24 25  2  0  0  0
 25 26  1  0  0  0
 26 27  2  0  0  0
 27 28  1  0  0  0
 28 29  2  0  0  0
 29  1  1  0  0  0
  1  2  1  0  0  0
  2  3  2  0  0  0
  2  5  1  0  0  0
  5  6  2  0  0  0
  6  7  1  0  0  0
  7  8  2  0  0  0
  8  9  1  0  0  0
  9 10  2  0  0  0
 10 11  1  0  0  0
  7 14  1  0  0  0
 14 15  2  0  0  0
 15 16  1  0  0  0
 16 17  2  0  0  0
 17 18  1  0  0  0
 18 19  2  0  0  0
 19 20  1  0  0  0
 20 21  1  0  0  0
 20 22  1  0  0  0
 20 23  1  0  0  0
 37 31  1  0  0  0
 29 24  1  0  0  0
 10  5  1  0  0  0
 19 14  1  0  0  0
 32 38  1  0  0  0
 32 39  1  0  0  0
  1  4  1  0  0  0
 11 12  1  0  0  0
 11 13  1  0  0  0
M  END
> <minimizedAffinity>
-7.87169

> <CNNscore>
0.2587966323

> <CNNaffinity>
5.9975829124

> <CNN_VS>
1.5521543026

> <CNNaffinity_variance>
0.1661084294

$$$$
[H]c1nc(N([H])[H])c(C(=O)N([H])c2nc([H])c([H])c([H])c2N2C([H])([H])C([H])([H])C(N([H])[H])(C([H])([H])[H])C([H])([H])C2([H])[H])nc1-c1nc([H])c([H])c([H])c1C(F)(F)F


 39 42  0  0  0  0  0  0  0  0999 V2000
  153.0331  137.4816  188.7708 N   0  0  0  0  0  0  0  0  0  0  0  0
  152.6568  137.4779  187.4489 C   0  0  0  0  0  0  0  0  0  0  0  0
  151.3248  137.3530  187.3292 O   0  0  0  0  0  0  0  0  0  0  0  0
  152.1575  137.3946  189.4449 H   0  0  0  0  0  0  0  0  0  0  0  0
  153.2925  137.5688  186.1659 C   0  0  0  0  0  0  0  0  0  0  0  0
  153.9283  138.6208  185.6875 N   0  0  0  0  0  0  0  0  0  0  0  0
  154.5023  138.7467  184.4499 C   0  0  0  0  0  0  0  0  0  0  0  0
  154.3944  137.6661  183.6435 C   0  0  0  0  0  0  0  0  0  0  0  0
  153.7451  136.5445  184.0885 N   0  0  0  0  0  0  0  0  0  0  0  0
  153.2096  136.4695  185.2867 C   0  0  0  0  0  0  0  0  0  0  0  0
  152.5417  135.2895  185.7440 N   0  0  0  0  0  0  0  0  0  0  0  0
  151.5257  135.1714  185.4767 H   0  0  0  0  0  0  0  0  0  0  0  0
  153.0124  134.5516  186.3167 H   0  0  0  0  0  0  0  0  0  0  0  0
  155.0312  140.0399  184.0828 C   0  0  0  0  0  0  0  0  0  0  0  0
  154.0736  140.8761  183.5484 N   0  0  0  0  0  0  0  0  0  0  0  0
  154.2513  142.1077  183.1624 C   0  0  0  0  0  0  0  0  0  0  0  0
  155.5215  142.6465  183.2946 C   0  0  0  0  0  0  0  0  0  0  0  0
  156.5161  141.8724  183.8199 C   0  0  0  0  0  0  0  0  0  0  0  0
  156.2832  140.5363  184.2322 C   0  0  0  0  0  0  0  0  0  0  0  0
  157.3673  139.8235  184.9012 C   0  0  0  0  0  0  0  0  0  0  0  0
  156.9956  139.1590  186.0778 F   0  0  0  0  0  0  0  0  0  0  0  0
  158.1075  140.9063  185.5515 F   0  0  0  0  0  0  0  0  0  0  0  0
  158.3461  139.2818  184.1519 F   0  0  0  0  0  0  0  0  0  0  0  0
  154.2997  136.9742  190.7883 C   0  0  0  0  0  0  0  0  0  0  0  0
  155.4818  137.0312  191.4903 C   0  0  0  0  0  0  0  0  0  0  0  0
  156.5655  137.6267  190.8972 C   0  0  0  0  0  0  0  0  0  0  0  0
  156.4825  138.1631  189.6183 C   0  0  0  0  0  0  0  0  0  0  0  0
  155.3172  138.0898  188.9684 N   0  0  0  0  0  0  0  0  0  0  0  0
  154.2258  137.5215  189.4954 C   0  0  0  0  0  0  0  0  0  0  0  0
  149.4521  134.8168  192.3709 C   0  0  0  0  0  0  0  0  0  0  0  0
  150.9625  134.8809  192.4453 C   0  0  0  0  0  0  0  0  0  0  0  0
  151.4457  133.7654  193.2356 N   0  0  0  0  0  0  0  0  0  0  0  0
  151.4229  136.1632  193.0740 C   0  0  0  0  0  0  0  0  0  0  0  0
  152.2548  137.0179  192.1643 C   0  0  0  0  0  0  0  0  0  0  0  0
  153.1853  136.3300  191.3390 N   0  0  0  0  0  0  0  0  0  0  0  0
  152.9707  134.9173  191.0644 C   0  0  0  0  0  0  0  0  0  0  0  0
  151.4857  134.6950  191.0399 C   0  0  0  0  0  0  0  0  0  0  0  0
  152.3981  133.9779  193.6067 H   0  0  0  0  0  0  0  0  0  0  0  0
  151.5255  132.8845  192.6862 H   0  0  0  0  0  0  0  0  0  0  0  0
 30 31  1  0  0  0
 31 32  1  0  0  0
 31 33  1  0  0  0
 33 34  1  0  0  0
 34 35  1  0  0  0
 35 36  1  0  0  0
 36 37  1  0  0  0
 35 24  1  0  0  0
 24 25  2  0  0  0
 25 26  1  0  0  0
 26 27  2  0  0  0
 27 28  1  0  0  0
 28 29  2  0  0  0
 29  1  1  0  0  0
  1  2  1  0  0  0
  2  3  2  0  0  0
  2  5  1  0  0  0
  5  6  2  0  0  0
  6  7  1  0  0  0
  7  8  2  0  0  0
  8  9  1  0  0  0
  9 10  2  0  0  0
 10 11  1  0  0  0
  7 14  1  0  0  0
 14 15  2  0  0  0
 15 16  1  0  0  0
 16 17  2  0  0  0
 17 18  1  0  0  0
 18 19  2  0  0  0
 19 20  1  0  0  0
 20 21  1  0  0  0
 20 22  1  0  0  0
 20 23  1  0  0  0
 37 31  1  0  0  0
 29 24  1  0  0  0
 10  5  1  0  0  0
 19 14  1  0  0  0
 32 38  1  0  0  0
 32 39  1  0  0  0
  1  4  1  0  0  0
 11 12  1  0  0  0
 11 13  1  0  0  0
M  END
> <minimizedAffinity>
-7.39615

> <CNNscore>
0.2561607659

> <CNNaffinity>
6.1491198540

> <CNN_VS>
1.5751632452

> <CNNaffinity_variance>
0.2089290619

$$$$
[H]c1nc(N([H])[H])c(C(=O)N([H])c2nc([H])c([H])c([H])c2N2C([H])([H])C([H])([H])C(N([H])[H])(C([H])([H])[H])C([H])([H])C2([H])[H])nc1-c1nc([H])c([H])c([H])c1C(F)(F)F


 39 42  0  0  0  0  0  0  0  0999 V2000
  154.2718  135.2307  188.6227 N   0  0  0  0  0  0  0  0  0  0  0  0
  152.9622  134.8506  188.4502 C   0  0  0  0  0  0  0  0  0  0  0  0
  152.8408  134.0023  187.4158 O   0  0  0  0  0  0  0  0  0  0  0  0
  154.9388  134.7456  187.8821 H   0  0  0  0  0  0  0  0  0  0  0  0
  151.6933  135.1103  189.0674 C   0  0  0  0  0  0  0  0  0  0  0  0
  151.3947  134.9196  190.3378 N   0  0  0  0  0  0  0  0  0  0  0  0
  150.1796  135.1165  190.9393 C   0  0  0  0  0  0  0  0  0  0  0  0
  149.1897  135.5522  190.1268 C   0  0  0  0  0  0  0  0  0  0  0  0
  149.4431  135.7684  188.7977 N   0  0  0  0  0  0  0  0  0  0  0  0
  150.6275  135.5661  188.2645 C   0  0  0  0  0  0  0  0  0  0  0  0
  150.8828  135.8042  186.8768 N   0  0  0  0  0  0  0  0  0  0  0  0
  150.6416  135.0302  186.1983 H   0  0  0  0  0  0  0  0  0  0  0  0
  151.2861  136.6988  186.5149 H   0  0  0  0  0  0  0  0  0  0  0  0
  150.0399  134.7146  192.3198 C   0  0  0  0  0  0  0  0  0  0  0  0
  149.2225  133.6149  192.4755 N   0  0  0  0  0  0  0  0  0  0  0  0
  148.9429  133.0121  193.5961 C   0  0  0  0  0  0  0  0  0  0  0  0
  149.5146  133.5119  194.7557 C   0  0  0  0  0  0  0  0  0  0  0  0
  150.3374  134.5984  194.6714 C   0  0  0  0  0  0  0  0  0  0  0  0
  150.6207  135.2257  193.4322 C   0  0  0  0  0  0  0  0  0  0  0  0
  151.6104  136.2988  193.4144 C   0  0  0  0  0  0  0  0  0  0  0  0
  152.9022  135.9007  193.0448 F   0  0  0  0  0  0  0  0  0  0  0  0
  151.8988  136.4904  194.8368 F   0  0  0  0  0  0  0  0  0  0  0  0
  151.2128  137.5415  193.0820 F   0  0  0  0  0  0  0  0  0  0  0  0
  155.3705  137.3716  188.9986 C   0  0  0  0  0  0  0  0  0  0  0  0
  156.0809  138.2088  189.8280 C   0  0  0  0  0  0  0  0  0  0  0  0
  156.3929  137.7683  191.0888 C   0  0  0  0  0  0  0  0  0  0  0  0
  156.0058  136.5084  191.5281 C   0  0  0  0  0  0  0  0  0  0  0  0
  155.3181  135.7234  190.6936 N   0  0  0  0  0  0  0  0  0  0  0  0
  154.9851  136.0979  189.4523 C   0  0  0  0  0  0  0  0  0  0  0  0
  154.0551  139.8483  184.2243 C   0  0  0  0  0  0  0  0  0  0  0  0
  154.3064  138.6029  185.0468 C   0  0  0  0  0  0  0  0  0  0  0  0
  154.3339  137.4511  184.1664 N   0  0  0  0  0  0  0  0  0  0  0  0
  153.2347  138.4060  186.0786 C   0  0  0  0  0  0  0  0  0  0  0  0
  153.7407  138.4420  187.4902 C   0  0  0  0  0  0  0  0  0  0  0  0
  154.9892  137.8037  187.7227 N   0  0  0  0  0  0  0  0  0  0  0  0
  155.8908  137.5936  186.6000 C   0  0  0  0  0  0  0  0  0  0  0  0
  155.6849  138.7389  185.6507 C   0  0  0  0  0  0  0  0  0  0  0  0
  154.1358  136.5822  184.7103 H   0  0  0  0  0  0  0  0  0  0  0  0
  155.2580  137.3151  183.7064 H   0  0  0  0  0  0  0  0  0  0  0  0
 30 31  1  0  0  0
 31 32  1  0  0  0
 31 33  1  0  0  0
 33 34  1  0  0  0
 34 35  1  0  0  0
 35 36  1  0  0  0
 36 37  1  0  0  0
 35 24  1  0  0  0
 24 25  2  0  0  0
 25 26  1  0  0  0
 26 27  2  0  0  0
 27 28  1  0  0  0
 28 29  2  0  0  0
 29  1  1  0  0  0
  1  2  1  0  0  0
  2  3  2  0  0  0
  2  5  1  0  0  0
  5  6  2  0  0  0
  6  7  1  0  0  0
  7  8  2  0  0  0
  8  9  1  0  0  0
  9 10  2  0  0  0
 10 11  1  0  0  0
  7 14  1  0  0  0
 14 15  2  0  0  0
 15 16  1  0  0  0
 16 17  2  0  0  0
 17 18  1  0  0  0
 18 19  2  0  0  0
 19 20  1  0  0  0
 20 21  1  0  0  0
 20 22  1  0  0  0
 20 23  1  0  0  0
 37 31  1  0  0  0
 29 24  1  0  0  0
 10  5  1  0  0  0
 19 14  1  0  0  0
 32 38  1  0  0  0
 32 39  1  0  0  0
  1  4  1  0  0  0
 11 12  1  0  0  0
 11 13  1  0  0  0
M  END
> <minimizedAffinity>
-6.76264

> <CNNscore>
0.2358781099

> <CNNaffinity>
5.9744977951

> <CNN_VS>
1.4092532396

> <CNNaffinity_variance>
0.2022068501

$$$$
[H]c1nc(N([H])[H])c(C(=O)N([H])c2nc([H])c([H])c([H])c2N2C([H])([H])C([H])([H])C(N([H])[H])(C([H])([H])[H])C([H])([H])C2([H])[H])nc1-c1nc([H])c([H])c([H])c1C(F)(F)F


 39 42  0  0  0  0  0  0  0  0999 V2000
  157.3970  140.8878  183.1269 N   0  0  0  0  0  0  0  0  0  0  0  0
  156.2275  140.3471  183.6055 C   0  0  0  0  0  0  0  0  0  0  0  0
  156.3871  139.8908  184.8588 O   0  0  0  0  0  0  0  0  0  0  0  0
  158.2075  140.8409  183.8816 H   0  0  0  0  0  0  0  0  0  0  0  0
  154.8882  140.1350  183.1366 C   0  0  0  0  0  0  0  0  0  0  0  0
  154.1953  139.0181  183.2462 N   0  0  0  0  0  0  0  0  0  0  0  0
  152.9346  138.7778  182.7666 C   0  0  0  0  0  0  0  0  0  0  0  0
  152.3532  139.8080  182.1106 C   0  0  0  0  0  0  0  0  0  0  0  0
  153.0264  140.9928  181.9673 N   0  0  0  0  0  0  0  0  0  0  0  0
  154.2366  141.1776  182.4461 C   0  0  0  0  0  0  0  0  0  0  0  0
  154.9264  142.4225  182.2984 N   0  0  0  0  0  0  0  0  0  0  0  0
  155.4516  142.5832  181.3949 H   0  0  0  0  0  0  0  0  0  0  0  0
  154.9266  143.1669  183.0332 H   0  0  0  0  0  0  0  0  0  0  0  0
  152.4165  137.4342  182.8818 C   0  0  0  0  0  0  0  0  0  0  0  0
  151.9509  136.9371  181.6828 N   0  0  0  0  0  0  0  0  0  0  0  0
  151.4625  135.7470  181.4769 C   0  0  0  0  0  0  0  0  0  0  0  0
  151.3969  134.8824  182.5583 C   0  0  0  0  0  0  0  0  0  0  0  0
  151.8447  135.3112  183.7749 C   0  0  0  0  0  0  0  0  0  0  0  0
  152.3732  136.6136  183.9592 C   0  0  0  0  0  0  0  0  0  0  0  0
  152.9478  136.9456  185.2594 C   0  0  0  0  0  0  0  0  0  0  0  0
  154.3224  136.6987  185.3748 F   0  0  0  0  0  0  0  0  0  0  0  0
  152.5098  135.8274  186.0967 F   0  0  0  0  0  0  0  0  0  0  0  0
  152.4311  137.9785  185.9515 F   0  0  0  0  0  0  0  0  0  0  0  0
  158.9878  142.2728  181.9091 C   0  0  0  0  0  0  0  0  0  0  0  0
  159.4174  142.8169  180.7205 C   0  0  0  0  0  0  0  0  0  0  0  0
  158.7168  142.5257  179.5779 C   0  0  0  0  0  0  0  0  0  0  0  0
  157.5984  141.7021  179.6088 C   0  0  0  0  0  0  0  0  0  0  0  0
  157.2110  141.1933  180.7821 N   0  0  0  0  0  0  0  0  0  0  0  0
  157.8537  141.4420  181.9297 C   0  0  0  0  0  0  0  0  0  0  0  0
  161.0768  143.2116  186.9501 C   0  0  0  0  0  0  0  0  0  0  0  0
  161.2483  142.8586  185.4883 C   0  0  0  0  0  0  0  0  0  0  0  0
  162.6183  142.4427  185.2588 N   0  0  0  0  0  0  0  0  0  0  0  0
  160.9372  144.0308  184.6048 C   0  0  0  0  0  0  0  0  0  0  0  0
  159.7834  143.7977  183.6751 C   0  0  0  0  0  0  0  0  0  0  0  0
  159.7050  142.5053  183.0887 N   0  0  0  0  0  0  0  0  0  0  0  0
  160.3932  141.3977  183.7345 C   0  0  0  0  0  0  0  0  0  0  0  0
  160.3647  141.6643  185.2121 C   0  0  0  0  0  0  0  0  0  0  0  0
  162.8589  142.5508  184.2487 H   0  0  0  0  0  0  0  0  0  0  0  0
  162.7847  141.4444  185.5035 H   0  0  0  0  0  0  0  0  0  0  0  0
 30 31  1  0  0  0
 31 32  1  0  0  0
 31 33  1  0  0  0
 33 34  1  0  0  0
 34 35  1  0  0  0
 35 36  1  0  0  0
 36 37  1  0  0  0
 35 24  1  0  0  0
 24 25  2  0  0  0
 25 26  1  0  0  0
 26 27  2  0  0  0
 27 28  1  0  0  0
 28 29  2  0  0  0
 29  1  1  0  0  0
  1  2  1  0  0  0
  2  3  2  0  0  0
  2  5  1  0  0  0
  5  6  2  0  0  0
  6  7  1  0  0  0
  7  8  2  0  0  0
  8  9  1  0  0  0
  9 10  2  0  0  0
 10 11  1  0  0  0
  7 14  1  0  0  0
 14 15  2  0  0  0
 15 16  1  0  0  0
 16 17  2  0  0  0
 17 18  1  0  0  0
 18 19  2  0  0  0
 19 20  1  0  0  0
 20 21  1  0  0  0
 20 22  1  0  0  0
 20 23  1  0  0  0
 37 31  1  0  0  0
 29 24  1  0  0  0
 10  5  1  0  0  0
 19 14  1  0  0  0
 32 38  1  0  0  0
 32 39  1  0  0  0
  1  4  1  0  0  0
 11 12  1  0  0  0
 11 13  1  0  0  0
M  END
> <minimizedAffinity>
-9.07506

> <CNNscore>
0.2336479574

> <CNNaffinity>
6.9060096741

> <CNN_VS>
1.6135751009

> <CNNaffinity_variance>
0.2225302458

$$$$
[H]c1nc(N2C([H])([H])[C@@]3([H])N(C([H])([H])[H])C([H])([H])[C@]2([H])C3([H])[H])c([H])nc1-c1c([H])c([H])c([H])c([H])c1[H]


 20 23  0  0  0  0  0  0  0  0999 V2000
  151.2882  134.7504  181.9520 C   0  0  0  0  0  0  0  0  0  0  0  0
  151.3118  136.1053  181.6937 C   0  0  0  0  0  0  0  0  0  0  0  0
  150.4317  136.9203  182.3003 N   0  0  0  0  0  0  0  0  0  0  0  0
  149.4983  136.4907  183.1713 C   0  0  0  0  0  0  0  0  0  0  0  0
  149.4753  135.1400  183.4284 C   0  0  0  0  0  0  0  0  0  0  0  0
  150.3625  134.3096  182.8184 N   0  0  0  0  0  0  0  0  0  0  0  0
  155.5956  132.3004  179.5982 C   0  0  0  0  0  0  0  0  0  0  0  0
  154.3370  133.0407  179.5849 N   0  0  0  0  0  0  0  0  0  0  0  0
  154.4580  134.0847  180.6113 C   0  0  0  0  0  0  0  0  0  0  0  0
  153.5556  133.6526  181.7481 C   0  0  0  0  0  0  0  0  0  0  0  0
  153.6418  132.1252  181.5544 C   0  0  0  0  0  0  0  0  0  0  0  0
  153.2697  132.1991  180.0611 C   0  0  0  0  0  0  0  0  0  0  0  0
  152.0145  133.0346  180.1524 C   0  0  0  0  0  0  0  0  0  0  0  0
  152.2090  133.8737  181.3212 N   0  0  0  0  0  0  0  0  0  0  0  0
  148.5910  137.4620  183.7737 C   0  0  0  0  0  0  0  0  0  0  0  0
  148.0120  137.2767  185.0077 C   0  0  0  0  0  0  0  0  0  0  0  0
  147.1454  138.2309  185.5552 C   0  0  0  0  0  0  0  0  0  0  0  0
  146.8453  139.3884  184.8721 C   0  0  0  0  0  0  0  0  0  0  0  0
  147.4208  139.5784  183.6394 C   0  0  0  0  0  0  0  0  0  0  0  0
  148.2719  138.6331  183.1104 C   0  0  0  0  0  0  0  0  0  0  0  0
  7  8  1  0  0  0
  8  9  1  0  0  0
  9 10  1  0  0  0
 10 11  1  0  0  0
 11 12  1  0  0  0
 12 13  1  0  0  0
 13 14  1  0  0  0
 14  1  1  0  0  0
  1  2  2  0  0  0
  2  3  1  0  0  0
  3  4  2  0  0  0
  4  5  1  0  0  0
  5  6  2  0  0  0
  4 15  1  0  0  0
 15 16  2  0  0  0
 16 17  1  0  0  0
 17 18  2  0  0  0
 18 19  1  0  0  0
 19 20  2  0  0  0
 12  8  1  0  0  0
  6  1  1  0  0  0
 20 15  1  0  0  0
 14 10  1  0  0  0
M  END
> <minimizedAffinity>
-3.14175

> <CNNscore>
0.4771908522

> <CNNaffinity>
4.4154472351

> <CNN_VS>
2.1070110798

> <CNNaffinity_variance>
0.1118102893

$$$$
[H]c1nc(N2C([H])([H])[C@@]3([H])N(C([H])([H])[H])C([H])([H])[C@]2([H])C3([H])[H])c([H])nc1-c1c([H])c([H])c([H])c([H])c1[H]


 20 23  0  0  0  0  0  0  0  0999 V2000
  150.1082  136.0110  186.0902 C   0  0  0  0  0  0  0  0  0  0  0  0
  151.2112  135.8768  186.9077 C   0  0  0  0  0  0  0  0  0  0  0  0
  151.0495  135.6908  188.2291 N   0  0  0  0  0  0  0  0  0  0  0  0
  149.8452  135.6241  188.8288 C   0  0  0  0  0  0  0  0  0  0  0  0
  148.7461  135.7579  188.0134 C   0  0  0  0  0  0  0  0  0  0  0  0
  148.9020  135.9463  186.6759 N   0  0  0  0  0  0  0  0  0  0  0  0
  149.4851  136.7568  180.6909 C   0  0  0  0  0  0  0  0  0  0  0  0
  149.7048  135.9506  181.8884 N   0  0  0  0  0  0  0  0  0  0  0  0
  148.7384  136.4217  182.8897 C   0  0  0  0  0  0  0  0  0  0  0  0
  149.5485  137.1799  183.9204 C   0  0  0  0  0  0  0  0  0  0  0  0
  150.6914  137.6733  183.0103 C   0  0  0  0  0  0  0  0  0  0  0  0
  150.9884  136.2649  182.4609 C   0  0  0  0  0  0  0  0  0  0  0  0
  151.1238  135.5076  183.7610 C   0  0  0  0  0  0  0  0  0  0  0  0
  150.2583  136.2083  184.6927 N   0  0  0  0  0  0  0  0  0  0  0  0
  149.7832  135.4190  190.2723 C   0  0  0  0  0  0  0  0  0  0  0  0
  150.4280  136.2374  191.1705 C   0  0  0  0  0  0  0  0  0  0  0  0
  150.3463  136.0105  192.5500 C   0  0  0  0  0  0  0  0  0  0  0  0
  149.6151  134.9567  193.0514 C   0  0  0  0  0  0  0  0  0  0  0  0
  148.9693  134.1363  192.1587 C   0  0  0  0  0  0  0  0  0  0  0  0
  149.0564  134.3689  190.8037 C   0  0  0  0  0  0  0  0  0  0  0  0
  7  8  1  0  0  0
  8  9  1  0  0  0
  9 10  1  0  0  0
 10 11  1  0  0  0
 11 12  1  0  0  0
 12 13  1  0  0  0
 13 14  1  0  0  0
 14  1  1  0  0  0
  1  2  2  0  0  0
  2  3  1  0  0  0
  3  4  2  0  0  0
  4  5  1  0  0  0
  5  6  2  0  0  0
  4 15  1  0  0  0
 15 16  2  0  0  0
 16 17  1  0  0  0
 17 18  2  0  0  0
 18 19  1  0  0  0
 19 20  2  0  0  0
 12  8  1  0  0  0
  6  1  1  0  0  0
 20 15  1  0  0  0
 14 10  1  0  0  0
M  END
> <minimizedAffinity>
-3.31832

> <CNNscore>
0.4713407457

> <CNNaffinity>
4.5127935410

> <CNN_VS>
2.1270635128

> <CNNaffinity_variance>
0.2042203397

$$$$
[H]c1nc(N2C([H])([H])[C@@]3([H])N(C([H])([H])[H])C([H])([H])[C@]2([H])C3([H])[H])c([H])nc1-c1c([H])c([H])c([H])c([H])c1[H]


 20 23  0  0  0  0  0  0  0  0999 V2000
  153.3930  135.1843  186.9804 C   0  0  0  0  0  0  0  0  0  0  0  0
  154.3076  135.9537  187.6692 C   0  0  0  0  0  0  0  0  0  0  0  0
  155.5859  135.5499  187.7683 N   0  0  0  0  0  0  0  0  0  0  0  0
  156.0497  134.4086  187.2235 C   0  0  0  0  0  0  0  0  0  0  0  0
  155.1375  133.6421  186.5370 C   0  0  0  0  0  0  0  0  0  0  0  0
  153.8428  134.0443  186.4326 N   0  0  0  0  0  0  0  0  0  0  0  0
  148.5490  137.3173  185.5373 C   0  0  0  0  0  0  0  0  0  0  0  0
  149.8109  137.3028  186.2719 N   0  0  0  0  0  0  0  0  0  0  0  0
  150.8498  136.9211  185.3059 C   0  0  0  0  0  0  0  0  0  0  0  0
  151.2551  135.5086  185.6721 C   0  0  0  0  0  0  0  0  0  0  0  0
  149.9197  135.0250  186.2729 C   0  0  0  0  0  0  0  0  0  0  0  0
  149.8067  136.2273  187.2298 C   0  0  0  0  0  0  0  0  0  0  0  0
  151.1702  136.1665  187.8774 C   0  0  0  0  0  0  0  0  0  0  0  0
  152.0389  135.5936  186.8648 N   0  0  0  0  0  0  0  0  0  0  0  0
  157.4579  134.0646  187.3916 C   0  0  0  0  0  0  0  0  0  0  0  0
  158.4099  134.9823  187.7708 C   0  0  0  0  0  0  0  0  0  0  0  0
  159.7532  134.6165  187.9225 C   0  0  0  0  0  0  0  0  0  0  0  0
  160.1636  133.3216  187.6956 C   0  0  0  0  0  0  0  0  0  0  0  0
  159.2168  132.4012  187.3168 C   0  0  0  0  0  0  0  0  0  0  0  0
  157.8982  132.7721  187.1706 C   0  0  0  0  0  0  0  0  0  0  0  0
  7  8  1  0  0  0
  8  9  1  0  0  0
  9 10  1  0  0  0
 10 11  1  0  0  0
 11 12  1  0  0  0
 12 13  1  0  0  0
 13 14  1  0  0  0
 14  1  1  0  0  0
  1  2  2  0  0  0
  2  3  1  0  0  0
  3  4  2  0  0  0
  4  5  1  0  0  0
  5  6  2  0  0  0
  4 15  1  0  0  0
 15 16  2  0  0  0
 16 17  1  0  0  0
 17 18  2  0  0  0
 18 19  1  0  0  0
 19 20  2  0  0  0
 12  8  1  0  0  0
  6  1  1  0  0  0
 20 15  1  0  0  0
 14 10  1  0  0  0
M  END
> <minimizedAffinity>
-3.67731

> <CNNscore>
0.4017739296

> <CNNaffinity>
4.4123992920

> <CNN_VS>
1.7727869749

> <CNNaffinity_variance>
0.0844277292

$$$$
[H]c1nc(N2C([H])([H])[C@@]3([H])N(C([H])([H])[H])C([H])([H])[C@]2([H])C3([H])[H])c([H])nc1-c1c([H])c([H])c([H])c([H])c1[H]


 20 23  0  0  0  0  0  0  0  0999 V2000
  154.3048  135.9597  186.0152 C   0  0  0  0  0  0  0  0  0  0  0  0
  153.9919  136.6335  184.8528 C   0  0  0  0  0  0  0  0  0  0  0  0
  154.0541  135.9977  183.6701 N   0  0  0  0  0  0  0  0  0  0  0  0
  154.4126  134.7059  183.5382 C   0  0  0  0  0  0  0  0  0  0  0  0
  154.7244  134.0348  184.6973 C   0  0  0  0  0  0  0  0  0  0  0  0
  154.6637  134.6716  185.8971 N   0  0  0  0  0  0  0  0  0  0  0  0
  155.2681  138.5651  190.7460 C   0  0  0  0  0  0  0  0  0  0  0  0
  155.0456  137.3813  189.9205 N   0  0  0  0  0  0  0  0  0  0  0  0
  155.8702  137.5530  188.7168 C   0  0  0  0  0  0  0  0  0  0  0  0
  154.9008  137.8442  187.5904 C   0  0  0  0  0  0  0  0  0  0  0  0
  153.7858  138.5297  188.4058 C   0  0  0  0  0  0  0  0  0  0  0  0
  153.6933  137.3779  189.4249 C   0  0  0  0  0  0  0  0  0  0  0  0
  153.5407  136.2112  188.4775 C   0  0  0  0  0  0  0  0  0  0  0  0
  154.2452  136.6137  187.2734 N   0  0  0  0  0  0  0  0  0  0  0  0
  154.4472  134.1130  182.2052 C   0  0  0  0  0  0  0  0  0  0  0  0
  153.3102  133.8378  181.4815 C   0  0  0  0  0  0  0  0  0  0  0  0
  153.3811  133.2681  180.2041 C   0  0  0  0  0  0  0  0  0  0  0  0
  154.5962  132.9648  179.6314 C   0  0  0  0  0  0  0  0  0  0  0  0
  155.7347  133.2377  180.3499 C   0  0  0  0  0  0  0  0  0  0  0  0
  155.6533  133.7982  181.6057 C   0  0  0  0  0  0  0  0  0  0  0  0
  7  8  1  0  0  0
  8  9  1  0  0  0
  9 10  1  0  0  0
 10 11  1  0  0  0
 11 12  1  0  0  0
 12 13  1  0  0  0
 13 14  1  0  0  0
 14  1  1  0  0  0
  1  2  2  0  0  0
  2  3  1  0  0  0
  3  4  2  0  0  0
  4  5  1  0  0  0
  5  6  2  0  0  0
  4 15  1  0  0  0
 15 16  2  0  0  0
 16 17  1  0  0  0
 17 18  2  0  0  0
 18 19  1  0  0  0
 19 20  2  0  0  0
 12  8  1  0  0  0
  6  1  1  0  0  0
 20 15  1  0  0  0
 14 10  1  0  0  0
M  END
> <minimizedAffinity>
-4.50531

> <CNNscore>
0.3969868720

> <CNNaffinity>
4.4554901123

> <CNN_VS>
1.7687710524

> <CNNaffinity_variance>
0.0295800474

$$$$
[H]c1nc(N2C([H])([H])[C@@]3([H])N(C([H])([H])[H])C([H])([H])[C@]2([H])C3([H])[H])c([H])nc1-c1c([H])c([H])c([H])c([H])c1[H]


 20 23  0  0  0  0  0  0  0  0999 V2000
  156.0205  139.4153  184.7278 C   0  0  0  0  0  0  0  0  0  0  0  0
  155.4053  139.7943  183.5527 C   0  0  0  0  0  0  0  0  0  0  0  0
  156.0533  140.5849  182.6798 N   0  0  0  0  0  0  0  0  0  0  0  0
  157.3024  141.0472  182.8805 C   0  0  0  0  0  0  0  0  0  0  0  0
  157.9151  140.6691  184.0521 C   0  0  0  0  0  0  0  0  0  0  0  0
  157.2659  139.8695  184.9397 N   0  0  0  0  0  0  0  0  0  0  0  0
  152.5634  137.0107  188.2439 C   0  0  0  0  0  0  0  0  0  0  0  0
  153.6891  137.8710  187.8902 N   0  0  0  0  0  0  0  0  0  0  0  0
  153.2499  138.6806  186.7458 C   0  0  0  0  0  0  0  0  0  0  0  0
  153.9981  138.1390  185.5456 C   0  0  0  0  0  0  0  0  0  0  0  0
  154.1620  136.6765  186.0062 C   0  0  0  0  0  0  0  0  0  0  0  0
  154.7679  137.0738  187.3659 C   0  0  0  0  0  0  0  0  0  0  0  0
  155.8591  138.0067  186.8957 C   0  0  0  0  0  0  0  0  0  0  0  0
  155.3528  138.5812  185.6621 N   0  0  0  0  0  0  0  0  0  0  0  0
  157.9134  141.9003  181.8664 C   0  0  0  0  0  0  0  0  0  0  0  0
  158.4038  143.1552  182.1441 C   0  0  0  0  0  0  0  0  0  0  0  0
  158.9841  143.9468  181.1452 C   0  0  0  0  0  0  0  0  0  0  0  0
  159.0820  143.4912  179.8493 C   0  0  0  0  0  0  0  0  0  0  0  0
  158.5939  142.2387  179.5667 C   0  0  0  0  0  0  0  0  0  0  0  0
  158.0249  141.4685  180.5571 C   0  0  0  0  0  0  0  0  0  0  0  0
  7  8  1  0  0  0
  8  9  1  0  0  0
  9 10  1  0  0  0
 10 11  1  0  0  0
 11 12  1  0  0  0
 12 13  1  0  0  0
 13 14  1  0  0  0
 14  1  1  0  0  0
  1  2  2  0  0  0
  2  3  1  0  0  0
  3  4  2  0  0  0
  4  5  1  0  0  0
  5  6  2  0  0  0
  4 15  1  0  0  0
 15 16  2  0  0  0
 16 17  1  0  0  0
 17 18  2  0  0  0
 18 19  1  0  0  0
 19 20  2  0  0  0
 12  8  1  0  0  0
  6  1  1  0  0  0
 20 15  1  0  0  0
 14 10  1  0  0  0
M  END
> <minimizedAffinity>
-6.89732

> <CNNscore>
0.3811255693

> <CNNaffinity>
5.4583797455

> <CNN_VS>
2.0803279877

> <CNNaffinity_variance>
0.0993561745

$$$$
[H]c1nc(N2C([H])([H])[C@@]3([H])N(C([H])([H])[H])C([H])([H])[C@]2([H])C3([H])[H])c([H])nc1-c1c([H])c([H])c([H])c([H])c1[H]


 20 23  0  0  0  0  0  0  0  0999 V2000
  152.5106  137.2029  185.2272 C   0  0  0  0  0  0  0  0  0  0  0  0
  153.2554  138.0116  184.3939 C   0  0  0  0  0  0  0  0  0  0  0  0
  152.7602  138.3847  183.2012 N   0  0  0  0  0  0  0  0  0  0  0  0
  151.5475  138.0110  182.7496 C   0  0  0  0  0  0  0  0  0  0  0  0
  150.8056  137.2048  183.5807 C   0  0  0  0  0  0  0  0  0  0  0  0
  151.3000  136.8235  184.7885 N   0  0  0  0  0  0  0  0  0  0  0  0
  155.1364  136.6319  190.0100 C   0  0  0  0  0  0  0  0  0  0  0  0
  154.9311  136.3797  188.5865 N   0  0  0  0  0  0  0  0  0  0  0  0
  154.6382  137.6814  187.9718 C   0  0  0  0  0  0  0  0  0  0  0  0
  153.1638  137.6526  187.6269 C   0  0  0  0  0  0  0  0  0  0  0  0
  152.6778  136.6967  188.7350 C   0  0  0  0  0  0  0  0  0  0  0  0
  153.7239  135.6183  188.3939 C   0  0  0  0  0  0  0  0  0  0  0  0
  153.4800  135.4875  186.9088 C   0  0  0  0  0  0  0  0  0  0  0  0
  153.0161  136.7981  186.4901 N   0  0  0  0  0  0  0  0  0  0  0  0
  151.1067  138.4736  181.4376 C   0  0  0  0  0  0  0  0  0  0  0  0
  151.7886  139.4242  180.7140 C   0  0  0  0  0  0  0  0  0  0  0  0
  151.3360  139.8447  179.4572 C   0  0  0  0  0  0  0  0  0  0  0  0
  150.1900  139.3170  178.9051 C   0  0  0  0  0  0  0  0  0  0  0  0
  149.5053  138.3673  179.6236 C   0  0  0  0  0  0  0  0  0  0  0  0
  149.9595  137.9611  180.8591 C   0  0  0  0  0  0  0  0  0  0  0  0
  7  8  1  0  0  0
  8  9  1  0  0  0
  9 10  1  0  0  0
 10 11  1  0  0  0
 11 12  1  0  0  0
 12 13  1  0  0  0
 13 14  1  0  0  0
 14  1  1  0  0  0
  1  2  2  0  0  0
  2  3  1  0  0  0
  3  4  2  0  0  0
  4  5  1  0  0  0
  5  6  2  0  0  0
  4 15  1  0  0  0
 15 16  2  0  0  0
 16 17  1  0  0  0
 17 18  2  0  0  0
 18 19  1  0  0  0
 19 20  2  0  0  0
 12  8  1  0  0  0
  6  1  1  0  0  0
 20 15  1  0  0  0
 14 10  1  0  0  0
M  END
> <minimizedAffinity>
-5.01074

> <CNNscore>
0.3650270104

> <CNNaffinity>
4.5555973053

> <CNN_VS>
1.6629160643

> <CNNaffinity_variance>
0.0223836470

$$$$
[H]c1nc(N2C([H])([H])[C@@]3([H])N(C([H])([H])[H])C([H])([H])[C@]2([H])C3([H])[H])c([H])nc1-c1c([H])c([H])c([H])c([H])c1[H]


 20 23  0  0  0  0  0  0  0  0999 V2000
  154.7878  138.1112  187.6547 C   0  0  0  0  0  0  0  0  0  0  0  0
  153.4807  138.3923  187.3149 C   0  0  0  0  0  0  0  0  0  0  0  0
  153.1824  138.7940  186.0673 N   0  0  0  0  0  0  0  0  0  0  0  0
  154.1021  138.9456  185.0949 C   0  0  0  0  0  0  0  0  0  0  0  0
  155.4049  138.6652  185.4343 C   0  0  0  0  0  0  0  0  0  0  0  0
  155.7141  138.2584  186.6943 N   0  0  0  0  0  0  0  0  0  0  0  0
  156.7874  135.6813  192.1485 C   0  0  0  0  0  0  0  0  0  0  0  0
  155.7963  135.8822  191.0950 N   0  0  0  0  0  0  0  0  0  0  0  0
  156.5457  136.0056  189.8375 C   0  0  0  0  0  0  0  0  0  0  0  0
  156.4527  137.4649  189.4431 C   0  0  0  0  0  0  0  0  0  0  0  0
  156.3311  138.0853  190.8495 C   0  0  0  0  0  0  0  0  0  0  0  0
  155.1639  137.1659  191.2570 C   0  0  0  0  0  0  0  0  0  0  0  0
  154.2414  137.3894  190.0818 C   0  0  0  0  0  0  0  0  0  0  0  0
  155.1228  137.6860  188.9667 N   0  0  0  0  0  0  0  0  0  0  0  0
  153.6693  139.3875  183.7732 C   0  0  0  0  0  0  0  0  0  0  0  0
  152.8823  138.6165  182.9495 C   0  0  0  0  0  0  0  0  0  0  0  0
  152.4855  139.0731  181.6864 C   0  0  0  0  0  0  0  0  0  0  0  0
  152.8729  140.3129  181.2287 C   0  0  0  0  0  0  0  0  0  0  0  0
  153.6589  141.0867  182.0473 C   0  0  0  0  0  0  0  0  0  0  0  0
  154.0433  140.6276  183.2880 C   0  0  0  0  0  0  0  0  0  0  0  0
  7  8  1  0  0  0
  8  9  1  0  0  0
  9 10  1  0  0  0
 10 11  1  0  0  0
 11 12  1  0  0  0
 12 13  1  0  0  0
 13 14  1  0  0  0
 14  1  1  0  0  0
  1  2  2  0  0  0
  2  3  1  0  0  0
  3  4  2  0  0  0
  4  5  1  0  0  0
  5  6  2  0  0  0
  4 15  1  0  0  0
 15 16  2  0  0  0
 16 17  1  0  0  0
 17 18  2  0  0  0
 18 19  1  0  0  0
 19 20  2  0  0  0
 12  8  1  0  0  0
  6  1  1  0  0  0
 20 15  1  0  0  0
 14 10  1  0  0  0
M  END
> <minimizedAffinity>
-6.27340

> <CNNscore>
0.3563405871

> <CNNaffinity>
4.8758115768

> <CNN_VS>
1.7374495268

> <CNNaffinity_variance>
0.0362095013

$$$$
[H]c1nc(N2C([H])([H])[C@@]3([H])N(C([H])([H])[H])C([H])([H])[C@]2([H])C3([H])[H])c([H])nc1-c1c([H])c([H])c([H])c([H])c1[H]


 20 23  0  0  0  0  0  0  0  0999 V2000
  155.2790  139.4406  184.2922 C   0  0  0  0  0  0  0  0  0  0  0  0
  154.7665  140.0497  183.1656 C   0  0  0  0  0  0  0  0  0  0  0  0
  155.5579  140.8204  182.3997 N   0  0  0  0  0  0  0  0  0  0  0  0
  156.8590  141.0459  182.6657 C   0  0  0  0  0  0  0  0  0  0  0  0
  157.3693  140.4384  183.7889 C   0  0  0  0  0  0  0  0  0  0  0  0
  156.5747  139.6575  184.5683 N   0  0  0  0  0  0  0  0  0  0  0  0
  153.1527  135.7489  187.7487 C   0  0  0  0  0  0  0  0  0  0  0  0
  153.5270  136.2489  186.4287 N   0  0  0  0  0  0  0  0  0  0  0  0
  154.8829  136.7984  186.5616 C   0  0  0  0  0  0  0  0  0  0  0  0
  154.7284  138.3028  186.4808 C   0  0  0  0  0  0  0  0  0  0  0  0
  153.3055  138.4284  187.0618 C   0  0  0  0  0  0  0  0  0  0  0  0
  152.7153  137.3891  186.0895 C   0  0  0  0  0  0  0  0  0  0  0  0
  153.2158  137.9522  184.7801 C   0  0  0  0  0  0  0  0  0  0  0  0
  154.4594  138.6234  185.1136 N   0  0  0  0  0  0  0  0  0  0  0  0
  157.6281  141.9004  181.7668 C   0  0  0  0  0  0  0  0  0  0  0  0
  158.0915  143.1427  182.1332 C   0  0  0  0  0  0  0  0  0  0  0  0
  158.8270  143.9361  181.2439 C   0  0  0  0  0  0  0  0  0  0  0  0
  159.1098  143.4949  179.9704 C   0  0  0  0  0  0  0  0  0  0  0  0
  158.6493  142.2550  179.5995 C   0  0  0  0  0  0  0  0  0  0  0  0
  157.9268  141.4829  180.4824 C   0  0  0  0  0  0  0  0  0  0  0  0
  7  8  1  0  0  0
  8  9  1  0  0  0
  9 10  1  0  0  0
 10 11  1  0  0  0
 11 12  1  0  0  0
 12 13  1  0  0  0
 13 14  1  0  0  0
 14  1  1  0  0  0
  1  2  2  0  0  0
  2  3  1  0  0  0
  3  4  2  0  0  0
  4  5  1  0  0  0
  5  6  2  0  0  0
  4 15  1  0  0  0
 15 16  2  0  0  0
 16 17  1  0  0  0
 17 18  2  0  0  0
 18 19  1  0  0  0
 19 20  2  0  0  0
 12  8  1  0  0  0
  6  1  1  0  0  0
 20 15  1  0  0  0
 14 10  1  0  0  0
M  END
> <minimizedAffinity>
-6.95610

> <CNNscore>
0.3392553329

> <CNNaffinity>
5.3058180809

> <CNN_VS>
1.8000271320

> <CNNaffinity_variance>
0.1113908291

$$$$
[H]c1nc(N2C([H])([H])[C@@]3([H])N(C([H])([H])[H])C([H])([H])[C@]2([H])C3([H])[H])c([H])nc1-c1c([H])c([H])c([H])c([H])c1[H]


 20 23  0  0  0  0  0  0  0  0999 V2000
  154.7272  137.4818  186.5656 C   0  0  0  0  0  0  0  0  0  0  0  0
  153.6729  136.8653  185.9243 C   0  0  0  0  0  0  0  0  0  0  0  0
  153.2182  137.3535  184.7573 N   0  0  0  0  0  0  0  0  0  0  0  0
  153.7385  138.4384  184.1518 C   0  0  0  0  0  0  0  0  0  0  0  0
  154.7895  139.0525  184.7916 C   0  0  0  0  0  0  0  0  0  0  0  0
  155.2547  138.5642  185.9722 N   0  0  0  0  0  0  0  0  0  0  0  0
  156.3828  136.6544  191.7300 C   0  0  0  0  0  0  0  0  0  0  0  0
  156.5873  136.9852  190.3226 N   0  0  0  0  0  0  0  0  0  0  0  0
  155.5128  137.9168  189.9541 C   0  0  0  0  0  0  0  0  0  0  0  0
  154.5727  137.1312  189.0638 C   0  0  0  0  0  0  0  0  0  0  0  0
  154.8122  135.7236  189.6463 C   0  0  0  0  0  0  0  0  0  0  0  0
  156.3433  135.8237  189.5067 C   0  0  0  0  0  0  0  0  0  0  0  0
  156.4405  136.2363  188.0568 C   0  0  0  0  0  0  0  0  0  0  0  0
  155.2214  136.9815  187.7984 N   0  0  0  0  0  0  0  0  0  0  0  0
  153.1682  138.8842  182.8847 C   0  0  0  0  0  0  0  0  0  0  0  0
  152.4287  138.0601  182.0685 C   0  0  0  0  0  0  0  0  0  0  0  0
  151.8962  138.5222  180.8584 C   0  0  0  0  0  0  0  0  0  0  0  0
  152.0975  139.8210  180.4473 C   0  0  0  0  0  0  0  0  0  0  0  0
  152.8352  140.6481  181.2587 C   0  0  0  0  0  0  0  0  0  0  0  0
  153.3543  140.1830  182.4470 C   0  0  0  0  0  0  0  0  0  0  0  0
  7  8  1  0  0  0
  8  9  1  0  0  0
  9 10  1  0  0  0
 10 11  1  0  0  0
 11 12  1  0  0  0
 12 13  1  0  0  0
 13 14  1  0  0  0
 14  1  1  0  0  0
  1  2  2  0  0  0
  2  3  1  0  0  0
  3  4  2  0  0  0
  4  5  1  0  0  0
  5  6  2  0  0  0
  4 15  1  0  0  0
 15 16  2  0  0  0
 16 17  1  0  0  0
 17 18  2  0  0  0
 18 19  1  0  0  0
 19 20  2  0  0  0
 12  8  1  0  0  0
  6  1  1  0  0  0
 20 15  1  0  0  0
 14 10  1  0  0  0
M  END
> <minimizedAffinity>
-5.60948

> <CNNscore>
0.3386652470

> <CNNaffinity>
4.6714067459

> <CNN_VS>
1.5820431709

> <CNNaffinity_variance>
0.0244527422

$$$$
[H]ON([H])C(=O)C([H])([H])C([H])([H])C([H])([H])C([H])([H])C([H])([H])C([H])([H])C(=O)N([H])c1c([H])c([H])c([H])c(-c2nnn(C([H])([H])c3c([H])c([H])c([H])c([H])c3[H])c2[H])c1[H]


 34 36  0  0  0  0  0  0  0  0999 V2000
  155.1830  137.9893  186.5377 C   0  0  0  0  0  0  0  0  0  0  0  0
  154.1332  137.6293  185.7477 C   0  0  0  0  0  0  0  0  0  0  0  0
  154.0323  138.1451  184.4380 C   0  0  0  0  0  0  0  0  0  0  0  0
  154.9951  139.0010  183.9838 C   0  0  0  0  0  0  0  0  0  0  0  0
  156.0705  139.3870  184.7542 C   0  0  0  0  0  0  0  0  0  0  0  0
  156.1424  138.8728  186.0167 C   0  0  0  0  0  0  0  0  0  0  0  0
  157.0562  140.3022  184.1994 C   0  0  0  0  0  0  0  0  0  0  0  0
  158.4146  140.2791  184.2681 C   0  0  0  0  0  0  0  0  0  0  0  0
  158.8982  141.3412  183.5991 N   0  0  0  0  0  0  0  0  0  0  0  0
  157.8623  141.9909  183.1371 N   0  0  0  0  0  0  0  0  0  0  0  0
  156.7380  141.4114  183.4681 N   0  0  0  0  0  0  0  0  0  0  0  0
  160.2752  141.7409  183.3944 C   0  0  0  0  0  0  0  0  0  0  0  0
  160.9345  142.1440  184.6475 C   0  0  0  0  0  0  0  0  0  0  0  0
  162.3004  142.1437  184.7532 C   0  0  0  0  0  0  0  0  0  0  0  0
  162.9101  142.5310  185.9534 C   0  0  0  0  0  0  0  0  0  0  0  0
  162.1581  142.9176  187.0448 C   0  0  0  0  0  0  0  0  0  0  0  0
  160.7910  142.9155  186.9319 C   0  0  0  0  0  0  0  0  0  0  0  0
  160.1851  142.5270  185.7288 C   0  0  0  0  0  0  0  0  0  0  0  0
  156.2135  136.5549  188.3584 C   0  0  0  0  0  0  0  0  0  0  0  0
  157.0942  135.9257  187.7226 O   0  0  0  0  0  0  0  0  0  0  0  0
  155.3275  137.5009  187.8481 N   0  0  0  0  0  0  0  0  0  0  0  0
  154.6498  137.9196  188.5772 H   0  0  0  0  0  0  0  0  0  0  0  0
  156.1386  136.2222  189.8312 C   0  0  0  0  0  0  0  0  0  0  0  0
  156.3297  137.5190  190.5905 C   0  0  0  0  0  0  0  0  0  0  0  0
  155.1000  137.9387  191.3121 C   0  0  0  0  0  0  0  0  0  0  0  0
  153.9337  137.0183  191.0509 C   0  0  0  0  0  0  0  0  0  0  0  0
  153.3869  136.4466  192.3234 C   0  0  0  0  0  0  0  0  0  0  0  0
  152.2523  137.2405  192.8988 C   0  0  0  0  0  0  0  0  0  0  0  0
  149.1628  135.3800  193.8672 O   0  0  0  0  0  0  0  0  0  0  0  0
  150.3633  135.9700  193.9712 N   0  0  0  0  0  0  0  0  0  0  0  0
  150.9291  136.5827  192.8118 C   0  0  0  0  0  0  0  0  0  0  0  0
  150.2503  136.5266  191.7521 O   0  0  0  0  0  0  0  0  0  0  0  0
  148.6939  135.2803  194.7380 H   0  0  0  0  0  0  0  0  0  0  0  0
  150.9131  136.0071  194.8589 H   0  0  0  0  0  0  0  0  0  0  0  0
 29 30  1  0  0  0
 30 31  1  0  0  0
 31 32  2  0  0  0
 31 28  1  0  0  0
 28 27  1  0  0  0
 27 26  1  0  0  0
 26 25  1  0  0  0
 25 24  1  0  0  0
 24 23  1  0  0  0
 23 19  1  0  0  0
 19 20  2  0  0  0
 19 21  1  0  0  0
 21  1  1  0  0  0
  1  2  2  0  0  0
  2  3  1  0  0  0
  3  4  2  0  0  0
  4  5  1  0  0  0
  5  6  2  0  0  0
  5  7  1  0  0  0
  7  8  2  0  0  0
  8  9  1  0  0  0
  9 12  1  0  0  0
 12 13  1  0  0  0
 13 14  2  0  0  0
 14 15  1  0  0  0
 15 16  2  0  0  0
 16 17  1  0  0  0
 17 18  2  0  0  0
  9 10  1  0  0  0
 10 11  2  0  0  0
  6  1  1  0  0  0
 11  7  1  0  0  0
 18 13  1  0  0  0
 29 33  1  0  0  0
 30 34  1  0  0  0
 21 22  1  0  0  0
M  END
> <minimizedAffinity>
-8.62635

> <CNNscore>
0.5155071020

> <CNNaffinity>
6.1889929771

> <CNN_VS>
3.1904697418

> <CNNaffinity_variance>
0.0194311738

$$$$
[H]ON([H])C(=O)C([H])([H])C([H])([H])C([H])([H])C([H])([H])C([H])([H])C([H])([H])C(=O)N([H])c1c([H])c([H])c([H])c(-c2nnn(C([H])([H])c3c([H])c([H])c([H])c([H])c3[H])c2[H])c1[H]


 34 36  0  0  0  0  0  0  0  0999 V2000
  154.9314  138.7130  184.9955 C   0  0  0  0  0  0  0  0  0  0  0  0
  153.9272  139.0208  184.1281 C   0  0  0  0  0  0  0  0  0  0  0  0
  154.1633  139.9333  183.0777 C   0  0  0  0  0  0  0  0  0  0  0  0
  155.4022  140.4944  182.9496 C   0  0  0  0  0  0  0  0  0  0  0  0
  156.4413  140.2068  183.8078 C   0  0  0  0  0  0  0  0  0  0  0  0
  156.1843  139.3211  184.8142 C   0  0  0  0  0  0  0  0  0  0  0  0
  157.7334  140.8446  183.6058 C   0  0  0  0  0  0  0  0  0  0  0  0
  158.2046  142.0389  184.0556 C   0  0  0  0  0  0  0  0  0  0  0  0
  159.4628  142.2018  183.6086 N   0  0  0  0  0  0  0  0  0  0  0  0
  159.7475  141.1363  182.9070 N   0  0  0  0  0  0  0  0  0  0  0  0
  158.7476  140.2945  182.8743 N   0  0  0  0  0  0  0  0  0  0  0  0
  160.3717  143.3086  183.8246 C   0  0  0  0  0  0  0  0  0  0  0  0
  161.2468  143.0968  184.9893 C   0  0  0  0  0  0  0  0  0  0  0  0
  162.4297  142.4173  184.8638 C   0  0  0  0  0  0  0  0  0  0  0  0
  163.2499  142.2261  185.9832 C   0  0  0  0  0  0  0  0  0  0  0  0
  162.8898  142.7120  187.2243 C   0  0  0  0  0  0  0  0  0  0  0  0
  161.7040  143.3914  187.3428 C   0  0  0  0  0  0  0  0  0  0  0  0
  160.8863  143.5804  186.2197 C   0  0  0  0  0  0  0  0  0  0  0  0
  153.9419  137.9121  187.1895 C   0  0  0  0  0  0  0  0  0  0  0  0
  153.1952  138.8720  187.5006 O   0  0  0  0  0  0  0  0  0  0  0  0
  154.7450  137.8090  186.0561 N   0  0  0  0  0  0  0  0  0  0  0  0
  155.3088  136.8905  185.9881 H   0  0  0  0  0  0  0  0  0  0  0  0
  153.9413  136.7660  188.1754 C   0  0  0  0  0  0  0  0  0  0  0  0
  154.1232  137.3654  189.5547 C   0  0  0  0  0  0  0  0  0  0  0  0
  153.1581  136.8158  190.5423 C   0  0  0  0  0  0  0  0  0  0  0  0
  153.3074  137.4418  191.9067 C   0  0  0  0  0  0  0  0  0  0  0  0
  152.3460  136.8509  192.8925 C   0  0  0  0  0  0  0  0  0  0  0  0
  150.9265  136.8339  192.4095 C   0  0  0  0  0  0  0  0  0  0  0  0
  149.0993  133.5858  192.6456 O   0  0  0  0  0  0  0  0  0  0  0  0
  149.8486  134.5762  192.1379 N   0  0  0  0  0  0  0  0  0  0  0  0
  150.1030  135.7266  192.9453 C   0  0  0  0  0  0  0  0  0  0  0  0
  149.5977  135.7328  194.0992 O   0  0  0  0  0  0  0  0  0  0  0  0
  149.2378  132.7122  192.1920 H   0  0  0  0  0  0  0  0  0  0  0  0
  150.2602  134.5544  191.1778 H   0  0  0  0  0  0  0  0  0  0  0  0
 29 30  1  0  0  0
 30 31  1  0  0  0
 31 32  2  0  0  0
 31 28  1  0  0  0
 28 27  1  0  0  0
 27 26  1  0  0  0
 26 25  1  0  0  0
 25 24  1  0  0  0
 24 23  1  0  0  0
 23 19  1  0  0  0
 19 20  2  0  0  0
 19 21  1  0  0  0
 21  1  1  0  0  0
  1  2  2  0  0  0
  2  3  1  0  0  0
  3  4  2  0  0  0
  4  5  1  0  0  0
  5  6  2  0  0  0
  5  7  1  0  0  0
  7  8  2  0  0  0
  8  9  1  0  0  0
  9 12  1  0  0  0
 12 13  1  0  0  0
 13 14  2  0  0  0
 14 15  1  0  0  0
 15 16  2  0  0  0
 16 17  1  0  0  0
 17 18  2  0  0  0
  9 10  1  0  0  0
 10 11  2  0  0  0
  6  1  1  0  0  0
 11  7  1  0  0  0
 18 13  1  0  0  0
 29 33  1  0  0  0
 30 34  1  0  0  0
 21 22  1  0  0  0
M  END
> <minimizedAffinity>
-8.13713

> <CNNscore>
0.4828589559

> <CNNaffinity>
6.0635485649

> <CNN_VS>
2.9278388023

> <CNNaffinity_variance>
0.1142603904

$$$$
[H]ON([H])C(=O)C([H])([H])C([H])([H])C([H])([H])C([H])([H])C([H])([H])C([H])([H])C(=O)N([H])c1c([H])c([H])c([H])c(-c2nnn(C([H])([H])c3c([H])c([H])c([H])c([H])c3[H])c2[H])c1[H]


 34 36  0  0  0  0  0  0  0  0999 V2000
  155.0218  137.8842  186.1245 C   0  0  0  0  0  0  0  0  0  0  0  0
  153.8168  137.9150  185.4898 C   0  0  0  0  0  0  0  0  0  0  0  0
  153.6160  138.8006  184.4096 C   0  0  0  0  0  0  0  0  0  0  0  0
  154.6400  139.6156  184.0180 C   0  0  0  0  0  0  0  0  0  0  0  0
  155.8716  139.6118  184.6361 C   0  0  0  0  0  0  0  0  0  0  0  0
  156.0374  138.7453  185.6778 C   0  0  0  0  0  0  0  0  0  0  0  0
  156.9134  140.5093  184.1608 C   0  0  0  0  0  0  0  0  0  0  0  0
  158.2671  140.3759  184.1833 C   0  0  0  0  0  0  0  0  0  0  0  0
  158.8175  141.4702  183.6275 N   0  0  0  0  0  0  0  0  0  0  0  0
  157.8257  142.2464  183.2774 N   0  0  0  0  0  0  0  0  0  0  0  0
  156.6670  141.7182  183.5741 N   0  0  0  0  0  0  0  0  0  0  0  0
  160.2166  141.7864  183.4273 C   0  0  0  0  0  0  0  0  0  0  0  0
  160.8881  142.1767  184.6780 C   0  0  0  0  0  0  0  0  0  0  0  0
  162.2543  142.1539  184.7774 C   0  0  0  0  0  0  0  0  0  0  0  0
  162.8757  142.5293  185.9754 C   0  0  0  0  0  0  0  0  0  0  0  0
  162.1351  142.9263  187.0708 C   0  0  0  0  0  0  0  0  0  0  0  0
  160.7676  142.9467  186.9643 C   0  0  0  0  0  0  0  0  0  0  0  0
  160.1500  142.5701  185.7633 C   0  0  0  0  0  0  0  0  0  0  0  0
  155.1952  137.2529  188.5752 C   0  0  0  0  0  0  0  0  0  0  0  0
  154.8782  138.3278  189.1407 O   0  0  0  0  0  0  0  0  0  0  0  0
  155.2701  137.0184  187.2041 N   0  0  0  0  0  0  0  0  0  0  0  0
  155.5651  136.0148  186.9363 H   0  0  0  0  0  0  0  0  0  0  0  0
  155.5233  136.1164  189.5166 C   0  0  0  0  0  0  0  0  0  0  0  0
  157.0288  135.9487  189.5040 C   0  0  0  0  0  0  0  0  0  0  0  0
  157.4395  134.5444  189.2428 C   0  0  0  0  0  0  0  0  0  0  0  0
  158.1097  133.9068  190.4345 C   0  0  0  0  0  0  0  0  0  0  0  0
  157.1485  133.0751  191.2279 C   0  0  0  0  0  0  0  0  0  0  0  0
  157.5755  131.6457  191.3795 C   0  0  0  0  0  0  0  0  0  0  0  0
  159.8109  131.5184  194.3681 O   0  0  0  0  0  0  0  0  0  0  0  0
  158.7103  131.7089  193.6247 N   0  0  0  0  0  0  0  0  0  0  0  0
  158.7752  131.4437  192.2228 C   0  0  0  0  0  0  0  0  0  0  0  0
  159.8807  131.0418  191.7721 O   0  0  0  0  0  0  0  0  0  0  0  0
  159.6188  131.3950  195.3355 H   0  0  0  0  0  0  0  0  0  0  0  0
  157.8008  132.0432  194.0155 H   0  0  0  0  0  0  0  0  0  0  0  0
 29 30  1  0  0  0
 30 31  1  0  0  0
 31 32  2  0  0  0
 31 28  1  0  0  0
 28 27  1  0  0  0
 27 26  1  0  0  0
 26 25  1  0  0  0
 25 24  1  0  0  0
 24 23  1  0  0  0
 23 19  1  0  0  0
 19 20  2  0  0  0
 19 21  1  0  0  0
 21  1  1  0  0  0
  1  2  2  0  0  0
  2  3  1  0  0  0
  3  4  2  0  0  0
  4  5  1  0  0  0
  5  6  2  0  0  0
  5  7  1  0  0  0
  7  8  2  0  0  0
  8  9  1  0  0  0
  9 12  1  0  0  0
 12 13  1  0  0  0
 13 14  2  0  0  0
 14 15  1  0  0  0
 15 16  2  0  0  0
 16 17  1  0  0  0
 17 18  2  0  0  0
  9 10  1  0  0  0
 10 11  2  0  0  0
  6  1  1  0  0  0
 11  7  1  0  0  0
 18 13  1  0  0  0
 29 33  1  0  0  0
 30 34  1  0  0  0
 21 22  1  0  0  0
M  END
> <minimizedAffinity>
-7.44282

> <CNNscore>
0.4534183145

> <CNNaffinity>
6.1944475174

> <CNN_VS>
2.8086760044

> <CNNaffinity_variance>
0.0969818607

$$$$
[H]ON([H])C(=O)C([H])([H])C([H])([H])C([H])([H])C([H])([H])C([H])([H])C([H])([H])C(=O)N([H])c1c([H])c([H])c([H])c(-c2nnn(C([H])([H])c3c([H])c([H])c([H])c([H])c3[H])c2[H])c1[H]


 34 36  0  0  0  0  0  0  0  0999 V2000
  154.6183  140.7058  182.6569 C   0  0  0  0  0  0  0  0  0  0  0  0
  154.8222  139.7954  183.6495 C   0  0  0  0  0  0  0  0  0  0  0  0
  153.8992  138.7445  183.8373 C   0  0  0  0  0  0  0  0  0  0  0  0
  152.8116  138.6592  183.0152 C   0  0  0  0  0  0  0  0  0  0  0  0
  152.5731  139.5615  182.0013 C   0  0  0  0  0  0  0  0  0  0  0  0
  153.4822  140.5674  181.8428 C   0  0  0  0  0  0  0  0  0  0  0  0
  151.3920  139.4036  181.1664 C   0  0  0  0  0  0  0  0  0  0  0  0
  150.0962  139.1731  181.5102 C   0  0  0  0  0  0  0  0  0  0  0  0
  149.3585  139.1011  180.3877 N   0  0  0  0  0  0  0  0  0  0  0  0
  150.1835  139.2828  179.3902 N   0  0  0  0  0  0  0  0  0  0  0  0
  151.4106  139.4680  179.8018 N   0  0  0  0  0  0  0  0  0  0  0  0
  147.9357  138.8715  180.2440 C   0  0  0  0  0  0  0  0  0  0  0  0
  147.6391  137.6335  179.5045 C   0  0  0  0  0  0  0  0  0  0  0  0
  147.9364  136.4081  180.0401 C   0  0  0  0  0  0  0  0  0  0  0  0
  147.6463  135.2408  179.3220 C   0  0  0  0  0  0  0  0  0  0  0  0
  147.0610  135.2971  178.0728 C   0  0  0  0  0  0  0  0  0  0  0  0
  146.7661  136.5274  177.5426 C   0  0  0  0  0  0  0  0  0  0  0  0
  147.0583  137.6930  178.2649 C   0  0  0  0  0  0  0  0  0  0  0  0
  155.3217  143.1415  182.5730 C   0  0  0  0  0  0  0  0  0  0  0  0
  154.2752  143.7245  182.9482 O   0  0  0  0  0  0  0  0  0  0  0  0
  155.5101  141.7688  182.4300 N   0  0  0  0  0  0  0  0  0  0  0  0
  156.4955  141.4843  182.0922 H   0  0  0  0  0  0  0  0  0  0  0  0
  156.4772  144.0619  182.2518 C   0  0  0  0  0  0  0  0  0  0  0  0
  157.4763  143.2573  181.4463 C   0  0  0  0  0  0  0  0  0  0  0  0
  158.8710  143.7347  181.6352 C   0  0  0  0  0  0  0  0  0  0  0  0
  159.3094  143.6837  183.0777 C   0  0  0  0  0  0  0  0  0  0  0  0
  159.5690  142.2775  183.5254 C   0  0  0  0  0  0  0  0  0  0  0  0
  159.5561  142.1105  185.0156 C   0  0  0  0  0  0  0  0  0  0  0  0
  161.9292  143.2658  187.6572 O   0  0  0  0  0  0  0  0  0  0  0  0
  160.7793  142.9108  187.0640 N   0  0  0  0  0  0  0  0  0  0  0  0
  160.8105  142.5070  185.6944 C   0  0  0  0  0  0  0  0  0  0  0  0
  161.9351  142.5116  185.1270 O   0  0  0  0  0  0  0  0  0  0  0  0
  161.8973  143.2078  188.6491 H   0  0  0  0  0  0  0  0  0  0  0  0
  159.8545  142.9130  187.5501 H   0  0  0  0  0  0  0  0  0  0  0  0
 29 30  1  0  0  0
 30 31  1  0  0  0
 31 32  2  0  0  0
 31 28  1  0  0  0
 28 27  1  0  0  0
 27 26  1  0  0  0
 26 25  1  0  0  0
 25 24  1  0  0  0
 24 23  1  0  0  0
 23 19  1  0  0  0
 19 20  2  0  0  0
 19 21  1  0  0  0
 21  1  1  0  0  0
  1  2  2  0  0  0
  2  3  1  0  0  0
  3  4  2  0  0  0
  4  5  1  0  0  0
  5  6  2  0  0  0
  5  7  1  0  0  0
  7  8  2  0  0  0
  8  9  1  0  0  0
  9 12  1  0  0  0
 12 13  1  0  0  0
 13 14  2  0  0  0
 14 15  1  0  0  0
 15 16  2  0  0  0
 16 17  1  0  0  0
 17 18  2  0  0  0
  9 10  1  0  0  0
 10 11  2  0  0  0
  6  1  1  0  0  0
 11  7  1  0  0  0
 18 13  1  0  0  0
 29 33  1  0  0  0
 30 34  1  0  0  0
 21 22  1  0  0  0
M  END
> <minimizedAffinity>
-7.77527

> <CNNscore>
0.4132483006

> <CNNaffinity>
6.0104837418

> <CNN_VS>
2.4838221073

> <CNNaffinity_variance>
0.1305413693

$$$$
[H]ON([H])C(=O)C([H])([H])C([H])([H])C([H])([H])C([H])([H])C([H])([H])C([H])([H])C(=O)N([H])c1c([H])c([H])c([H])c(-c2nnn(C([H])([H])c3c([H])c([H])c([H])c([H])c3[H])c2[H])c1[H]


 34 36  0  0  0  0  0  0  0  0999 V2000
  154.0601  138.4583  184.8158 C   0  0  0  0  0  0  0  0  0  0  0  0
  153.0385  138.1512  183.9686 C   0  0  0  0  0  0  0  0  0  0  0  0
  152.8594  138.9001  182.7859 C   0  0  0  0  0  0  0  0  0  0  0  0
  153.7191  139.9254  182.5109 C   0  0  0  0  0  0  0  0  0  0  0  0
  154.7631  140.2644  183.3441 C   0  0  0  0  0  0  0  0  0  0  0  0
  154.9123  139.5232  184.4807 C   0  0  0  0  0  0  0  0  0  0  0  0
  155.6374  141.3696  182.9821 C   0  0  0  0  0  0  0  0  0  0  0  0
  156.9499  141.3720  182.6241 C   0  0  0  0  0  0  0  0  0  0  0  0
  157.3278  142.6397  182.3800 N   0  0  0  0  0  0  0  0  0  0  0  0
  156.2743  143.3861  182.5842 N   0  0  0  0  0  0  0  0  0  0  0  0
  155.2379  142.6756  182.9457 N   0  0  0  0  0  0  0  0  0  0  0  0
  158.6228  143.1431  181.9709 C   0  0  0  0  0  0  0  0  0  0  0  0
  159.6476  142.9678  183.0132 C   0  0  0  0  0  0  0  0  0  0  0  0
  159.9771  143.9984  183.8536 C   0  0  0  0  0  0  0  0  0  0  0  0
  160.9543  143.8128  184.8399 C   0  0  0  0  0  0  0  0  0  0  0  0
  161.6006  142.6017  184.9867 C   0  0  0  0  0  0  0  0  0  0  0  0
  161.2658  141.5741  184.1418 C   0  0  0  0  0  0  0  0  0  0  0  0
  160.2872  141.7644  183.1561 C   0  0  0  0  0  0  0  0  0  0  0  0
  153.7739  137.9531  187.2850 C   0  0  0  0  0  0  0  0  0  0  0  0
  152.9899  138.8649  187.6450 O   0  0  0  0  0  0  0  0  0  0  0  0
  154.2797  137.7406  186.0046 N   0  0  0  0  0  0  0  0  0  0  0  0
  154.9421  136.8920  185.9193 H   0  0  0  0  0  0  0  0  0  0  0  0
  154.1898  137.0057  188.3874 C   0  0  0  0  0  0  0  0  0  0  0  0
  154.1111  137.7760  189.6893 C   0  0  0  0  0  0  0  0  0  0  0  0
  154.2408  136.8933  190.8779 C   0  0  0  0  0  0  0  0  0  0  0  0
  152.9035  136.4550  191.4213 C   0  0  0  0  0  0  0  0  0  0  0  0
  152.5145  137.2464  192.6327 C   0  0  0  0  0  0  0  0  0  0  0  0
  151.3969  136.6290  193.4190 C   0  0  0  0  0  0  0  0  0  0  0  0
  151.1622  132.9324  193.8927 O   0  0  0  0  0  0  0  0  0  0  0  0
  150.8961  134.1629  193.4288 N   0  0  0  0  0  0  0  0  0  0  0  0
  151.6698  135.2609  193.9142 C   0  0  0  0  0  0  0  0  0  0  0  0
  152.5650  134.9944  194.7594 O   0  0  0  0  0  0  0  0  0  0  0  0
  150.8415  132.2059  193.2948 H   0  0  0  0  0  0  0  0  0  0  0  0
  150.1490  134.3660  192.7272 H   0  0  0  0  0  0  0  0  0  0  0  0
 29 30  1  0  0  0
 30 31  1  0  0  0
 31 32  2  0  0  0
 31 28  1  0  0  0
 28 27  1  0  0  0
 27 26  1  0  0  0
 26 25  1  0  0  0
 25 24  1  0  0  0
 24 23  1  0  0  0
 23 19  1  0  0  0
 19 20  2  0  0  0
 19 21  1  0  0  0
 21  1  1  0  0  0
  1  2  2  0  0  0
  2  3  1  0  0  0
  3  4  2  0  0  0
  4  5  1  0  0  0
  5  6  2  0  0  0
  5  7  1  0  0  0
  7  8  2  0  0  0
  8  9  1  0  0  0
  9 12  1  0  0  0
 12 13  1  0  0  0
 13 14  2  0  0  0
 14 15  1  0  0  0
 15 16  2  0  0  0
 16 17  1  0  0  0
 17 18  2  0  0  0
  9 10  1  0  0  0
 10 11  2  0  0  0
  6  1  1  0  0  0
 11  7  1  0  0  0
 18 13  1  0  0  0
 29 33  1  0  0  0
 30 34  1  0  0  0
 21 22  1  0  0  0
M  END
> <minimizedAffinity>
-7.34410

> <CNNscore>
0.3721456826

> <CNNaffinity>
5.9680819511

> <CNN_VS>
2.2209959030

> <CNNaffinity_variance>
0.1498982757

$$$$
[H]ON([H])C(=O)C([H])([H])C([H])([H])C([H])([H])C([H])([H])C([H])([H])C([H])([H])C(=O)N([H])c1c([H])c([H])c([H])c(-c2nnn(C([H])([H])c3c([H])c([H])c([H])c([H])c3[H])c2[H])c1[H]


 34 36  0  0  0  0  0  0  0  0999 V2000
  154.0370  137.2395  186.0174 C   0  0  0  0  0  0  0  0  0  0  0  0
  154.1352  135.9036  185.7695 C   0  0  0  0  0  0  0  0  0  0  0  0
  153.8862  135.4116  184.4705 C   0  0  0  0  0  0  0  0  0  0  0  0
  153.5491  136.2894  183.4796 C   0  0  0  0  0  0  0  0  0  0  0  0
  153.4404  137.6465  183.6935 C   0  0  0  0  0  0  0  0  0  0  0  0
  153.6868  138.0941  184.9594 C   0  0  0  0  0  0  0  0  0  0  0  0
  153.0775  138.5183  182.5867 C   0  0  0  0  0  0  0  0  0  0  0  0
  152.1629  138.3459  181.5945 C   0  0  0  0  0  0  0  0  0  0  0  0
  152.1831  139.4286  180.7966 N   0  0  0  0  0  0  0  0  0  0  0  0
  153.0847  140.2359  181.2906 N   0  0  0  0  0  0  0  0  0  0  0  0
  153.6483  139.7388  182.3605 N   0  0  0  0  0  0  0  0  0  0  0  0
  151.3927  139.7063  179.6152 C   0  0  0  0  0  0  0  0  0  0  0  0
  149.9783  139.3352  179.7865 C   0  0  0  0  0  0  0  0  0  0  0  0
  149.3257  138.5992  178.8330 C   0  0  0  0  0  0  0  0  0  0  0  0
  147.9799  138.2549  179.0135 C   0  0  0  0  0  0  0  0  0  0  0  0
  147.2879  138.6444  180.1429 C   0  0  0  0  0  0  0  0  0  0  0  0
  147.9476  139.3812  181.0936 C   0  0  0  0  0  0  0  0  0  0  0  0
  149.2945  139.7235  180.9086 C   0  0  0  0  0  0  0  0  0  0  0  0
  155.3870  137.6480  188.1258 C   0  0  0  0  0  0  0  0  0  0  0  0
  156.4355  136.9996  187.8895 O   0  0  0  0  0  0  0  0  0  0  0  0
  154.2769  137.7771  187.2942 N   0  0  0  0  0  0  0  0  0  0  0  0
  153.4816  138.3850  187.6992 H   0  0  0  0  0  0  0  0  0  0  0  0
  155.3658  138.3490  189.4651 C   0  0  0  0  0  0  0  0  0  0  0  0
  156.5816  137.8751  190.2345 C   0  0  0  0  0  0  0  0  0  0  0  0
  156.2183  137.2084  191.5121 C   0  0  0  0  0  0  0  0  0  0  0  0
  155.7359  135.7936  191.3093 C   0  0  0  0  0  0  0  0  0  0  0  0
  154.2467  135.6946  191.4421 C   0  0  0  0  0  0  0  0  0  0  0  0
  153.7818  135.5063  192.8553 C   0  0  0  0  0  0  0  0  0  0  0  0
  150.4999  137.2310  192.4089 O   0  0  0  0  0  0  0  0  0  0  0  0
  151.6937  136.6967  192.1098 N   0  0  0  0  0  0  0  0  0  0  0  0
  152.4612  136.1029  193.1578 C   0  0  0  0  0  0  0  0  0  0  0  0
  151.9560  136.1215  194.3116 O   0  0  0  0  0  0  0  0  0  0  0  0
  149.8958  137.3148  191.6240 H   0  0  0  0  0  0  0  0  0  0  0  0
  152.0979  136.6901  191.1464 H   0  0  0  0  0  0  0  0  0  0  0  0
 29 30  1  0  0  0
 30 31  1  0  0  0
 31 32  2  0  0  0
 31 28  1  0  0  0
 28 27  1  0  0  0
 27 26  1  0  0  0
 26 25  1  0  0  0
 25 24  1  0  0  0
 24 23  1  0  0  0
 23 19  1  0  0  0
 19 20  2  0  0  0
 19 21  1  0  0  0
 21  1  1  0  0  0
  1  2  2  0  0  0
  2  3  1  0  0  0
  3  4  2  0  0  0
  4  5  1  0  0  0
  5  6  2  0  0  0
  5  7  1  0  0  0
  7  8  2  0  0  0
  8  9  1  0  0  0
  9 12  1  0  0  0
 12 13  1  0  0  0
 13 14  2  0  0  0
 14 15  1  0  0  0
 15 16  2  0  0  0
 16 17  1  0  0  0
 17 18  2  0  0  0
  9 10  1  0  0  0
 10 11  2  0  0  0
  6  1  1  0  0  0
 11  7  1  0  0  0
 18 13  1  0  0  0
 29 33  1  0  0  0
 30 34  1  0  0  0
 21 22  1  0  0  0
M  END
> <minimizedAffinity>
-7.08692

> <CNNscore>
0.3281281888

> <CNNaffinity>
5.2156062126

> <CNN_VS>
1.7113873959

> <CNNaffinity_variance>
0.0890673473

$$$$
[H]ON([H])C(=O)C([H])([H])C([H])([H])C([H])([H])C([H])([H])C([H])([H])C([H])([H])C(=O)N([H])c1c([H])c([H])c([H])c(-c2nnn(C([H])([H])c3c([H])c([H])c([H])c([H])c3[H])c2[H])c1[H]


 34 36  0  0  0  0  0  0  0  0999 V2000
  155.2293  137.4913  186.4873 C   0  0  0  0  0  0  0  0  0  0  0  0
  154.5072  136.4143  186.0697 C   0  0  0  0  0  0  0  0  0  0  0  0
  153.8409  136.4565  184.8264 C   0  0  0  0  0  0  0  0  0  0  0  0
  153.9329  137.5835  184.0600 C   0  0  0  0  0  0  0  0  0  0  0  0
  154.6538  138.6913  184.4499 C   0  0  0  0  0  0  0  0  0  0  0  0
  155.2878  138.6224  185.6569 C   0  0  0  0  0  0  0  0  0  0  0  0
  154.7052  139.8548  183.5778 C   0  0  0  0  0  0  0  0  0  0  0  0
  155.3950  141.0202  183.7059 C   0  0  0  0  0  0  0  0  0  0  0  0
  155.1244  141.8003  182.6439 N   0  0  0  0  0  0  0  0  0  0  0  0
  154.2935  141.1272  181.8921 N   0  0  0  0  0  0  0  0  0  0  0  0
  154.0112  139.9583  182.4055 N   0  0  0  0  0  0  0  0  0  0  0  0
  155.6195  143.1261  182.3358 C   0  0  0  0  0  0  0  0  0  0  0  0
  156.9085  143.0924  181.6254 C   0  0  0  0  0  0  0  0  0  0  0  0
  157.2181  142.0578  180.7823 C   0  0  0  0  0  0  0  0  0  0  0  0
  158.4493  142.0431  180.1143 C   0  0  0  0  0  0  0  0  0  0  0  0
  159.3686  143.0585  180.2876 C   0  0  0  0  0  0  0  0  0  0  0  0
  159.0521  144.0912  181.1332 C   0  0  0  0  0  0  0  0  0  0  0  0
  157.8186  144.1017  181.7997 C   0  0  0  0  0  0  0  0  0  0  0  0
  155.5453  138.0502  188.9413 C   0  0  0  0  0  0  0  0  0  0  0  0
  154.4908  138.6806  189.1994 O   0  0  0  0  0  0  0  0  0  0  0  0
  155.9113  137.4962  187.7168 N   0  0  0  0  0  0  0  0  0  0  0  0
  156.8676  136.9947  187.7195 H   0  0  0  0  0  0  0  0  0  0  0  0
  156.4924  137.8978  190.1098 C   0  0  0  0  0  0  0  0  0  0  0  0
  155.6454  137.6317  191.3372 C   0  0  0  0  0  0  0  0  0  0  0  0
  155.4272  136.1801  191.5703 C   0  0  0  0  0  0  0  0  0  0  0  0
  154.1106  135.8950  192.2491 C   0  0  0  0  0  0  0  0  0  0  0  0
  153.1474  137.0307  192.0828 C   0  0  0  0  0  0  0  0  0  0  0  0
  152.0755  137.0663  193.1309 C   0  0  0  0  0  0  0  0  0  0  0  0
  149.3882  135.5284  191.0434 O   0  0  0  0  0  0  0  0  0  0  0  0
  150.5432  136.1287  191.3686 N   0  0  0  0  0  0  0  0  0  0  0  0
  150.8089  136.4047  192.7445 C   0  0  0  0  0  0  0  0  0  0  0  0
  149.9254  136.0595  193.5733 O   0  0  0  0  0  0  0  0  0  0  0  0
  149.4125  135.0764  190.1584 H   0  0  0  0  0  0  0  0  0  0  0  0
  151.2656  136.4085  190.6675 H   0  0  0  0  0  0  0  0  0  0  0  0
 29 30  1  0  0  0
 30 31  1  0  0  0
 31 32  2  0  0  0
 31 28  1  0  0  0
 28 27  1  0  0  0
 27 26  1  0  0  0
 26 25  1  0  0  0
 25 24  1  0  0  0
 24 23  1  0  0  0
 23 19  1  0  0  0
 19 20  2  0  0  0
 19 21  1  0  0  0
 21  1  1  0  0  0
  1  2  2  0  0  0
  2  3  1  0  0  0
  3  4  2  0  0  0
  4  5  1  0  0  0
  5  6  2  0  0  0
  5  7  1  0  0  0
  7  8  2  0  0  0
  8  9  1  0  0  0
  9 12  1  0  0  0
 12 13  1  0  0  0
 13 14  2  0  0  0
 14 15  1  0  0  0
 15 16  2  0  0  0
 16 17  1  0  0  0
 17 18  2  0  0  0
  9 10  1  0  0  0
 10 11  2  0  0  0
  6  1  1  0  0  0
 11  7  1  0  0  0
 18 13  1  0  0  0
 29 33  1  0  0  0
 30 34  1  0  0  0
 21 22  1  0  0  0
M  END
> <minimizedAffinity>
-8.09942

> <CNNscore>
0.3247386217

> <CNNaffinity>
5.7211098671

> <CNN_VS>
1.8578653336

> <CNNaffinity_variance>
0.0767294616

$$$$
[H]ON([H])C(=O)C([H])([H])C([H])([H])C([H])([H])C([H])([H])C([H])([H])C([H])([H])C(=O)N([H])c1c([H])c([H])c([H])c(-c2nnn(C([H])([H])c3c([H])c([H])c([H])c([H])c3[H])c2[H])c1[H]


 34 36  0  0  0  0  0  0  0  0999 V2000
  154.4603  140.6359  182.6508 C   0  0  0  0  0  0  0  0  0  0  0  0
  154.4016  139.7505  183.6844 C   0  0  0  0  0  0  0  0  0  0  0  0
  153.4035  138.7529  183.6970 C   0  0  0  0  0  0  0  0  0  0  0  0
  152.5093  138.6932  182.6661 C   0  0  0  0  0  0  0  0  0  0  0  0
  152.5382  139.5715  181.6046 C   0  0  0  0  0  0  0  0  0  0  0  0
  153.5141  140.5259  181.6188 C   0  0  0  0  0  0  0  0  0  0  0  0
  151.5514  139.4435  180.5431 C   0  0  0  0  0  0  0  0  0  0  0  0
  150.4124  138.7018  180.4857 C   0  0  0  0  0  0  0  0  0  0  0  0
  149.8232  138.9080  179.2942 N   0  0  0  0  0  0  0  0  0  0  0  0
  150.5833  139.7513  178.6462 N   0  0  0  0  0  0  0  0  0  0  0  0
  151.6287  140.1021  179.3487 N   0  0  0  0  0  0  0  0  0  0  0  0
  148.5960  138.3422  178.7731 C   0  0  0  0  0  0  0  0  0  0  0  0
  147.6622  137.9481  179.8408 C   0  0  0  0  0  0  0  0  0  0  0  0
  147.6312  136.6596  180.3054 C   0  0  0  0  0  0  0  0  0  0  0  0
  146.7363  136.3032  181.3224 C   0  0  0  0  0  0  0  0  0  0  0  0
  145.8750  137.2306  181.8740 C   0  0  0  0  0  0  0  0  0  0  0  0
  145.9115  138.5188  181.4040 C   0  0  0  0  0  0  0  0  0  0  0  0
  146.8087  138.8711  180.3859 C   0  0  0  0  0  0  0  0  0  0  0  0
  155.2909  143.0304  182.5461 C   0  0  0  0  0  0  0  0  0  0  0  0
  154.2145  143.6763  182.5457 O   0  0  0  0  0  0  0  0  0  0  0  0
  155.4367  141.6459  182.5932 N   0  0  0  0  0  0  0  0  0  0  0  0
  156.4604  141.3023  182.5835 H   0  0  0  0  0  0  0  0  0  0  0  0
  156.5387  143.8820  182.4884 C   0  0  0  0  0  0  0  0  0  0  0  0
  157.4424  143.2763  181.4342 C   0  0  0  0  0  0  0  0  0  0  0  0
  158.8633  143.6750  181.6100 C   0  0  0  0  0  0  0  0  0  0  0  0
  159.2043  143.9814  183.0472 C   0  0  0  0  0  0  0  0  0  0  0  0
  160.0334  142.8945  183.6607 C   0  0  0  0  0  0  0  0  0  0  0  0
  159.2718  142.0270  184.6178 C   0  0  0  0  0  0  0  0  0  0  0  0
  158.6840  139.1416  182.3214 O   0  0  0  0  0  0  0  0  0  0  0  0
  159.2550  140.2332  182.8530 N   0  0  0  0  0  0  0  0  0  0  0  0
  158.6623  140.8221  184.0114 C   0  0  0  0  0  0  0  0  0  0  0  0
  157.6258  140.2665  184.4630 O   0  0  0  0  0  0  0  0  0  0  0  0
  159.3027  138.6064  181.7567 H   0  0  0  0  0  0  0  0  0  0  0  0
  160.1154  140.6814  182.4650 H   0  0  0  0  0  0  0  0  0  0  0  0
 29 30  1  0  0  0
 30 31  1  0  0  0
 31 32  2  0  0  0
 31 28  1  0  0  0
 28 27  1  0  0  0
 27 26  1  0  0  0
 26 25  1  0  0  0
 25 24  1  0  0  0
 24 23  1  0  0  0
 23 19  1  0  0  0
 19 20  2  0  0  0
 19 21  1  0  0  0
 21  1  1  0  0  0
  1  2  2  0  0  0
  2  3  1  0  0  0
  3  4  2  0  0  0
  4  5  1  0  0  0
  5  6  2  0  0  0
  5  7  1  0  0  0
  7  8  2  0  0  0
  8  9  1  0  0  0
  9 12  1  0  0  0
 12 13  1  0  0  0
 13 14  2  0  0  0
 14 15  1  0  0  0
 15 16  2  0  0  0
 16 17  1  0  0  0
 17 18  2  0  0  0
  9 10  1  0  0  0
 10 11  2  0  0  0
  6  1  1  0  0  0
 11  7  1  0  0  0
 18 13  1  0  0  0
 29 33  1  0  0  0
 30 34  1  0  0  0
 21 22  1  0  0  0
M  END
> <minimizedAffinity>
-7.37114

> <CNNscore>
0.3042422235

> <CNNaffinity>
5.8191862106

> <CNN_VS>
1.7704421282

> <CNNaffinity_variance>
0.3194413781

$$$$
[H]ON([H])C(=O)C([H])([H])C([H])([H])C([H])([H])C([H])([H])C([H])([H])C([H])([H])C(=O)N([H])c1c([H])c([H])c([H])c(-c2nnn(C([H])([H])c3c([H])c([H])c([H])c([H])c3[H])c2[H])c1[H]


 34 36  0  0  0  0  0  0  0  0999 V2000
  153.3695  140.6743  182.0744 C   0  0  0  0  0  0  0  0  0  0  0  0
  154.3383  141.6204  181.9254 C   0  0  0  0  0  0  0  0  0  0  0  0
  155.3798  141.7124  182.8733 C   0  0  0  0  0  0  0  0  0  0  0  0
  155.3972  140.8459  183.9290 C   0  0  0  0  0  0  0  0  0  0  0  0
  154.4347  139.8768  184.1119 C   0  0  0  0  0  0  0  0  0  0  0  0
  153.4395  139.8109  183.1798 C   0  0  0  0  0  0  0  0  0  0  0  0
  154.5220  138.9897  185.2618 C   0  0  0  0  0  0  0  0  0  0  0  0
  153.6075  138.7119  186.2299 C   0  0  0  0  0  0  0  0  0  0  0  0
  154.1442  137.8265  187.0886 N   0  0  0  0  0  0  0  0  0  0  0  0
  155.3508  137.5738  186.6541 N   0  0  0  0  0  0  0  0  0  0  0  0
  155.6255  138.2436  185.5653 N   0  0  0  0  0  0  0  0  0  0  0  0
  153.5582  137.2339  188.2731 C   0  0  0  0  0  0  0  0  0  0  0  0
  154.4971  137.1999  189.4066 C   0  0  0  0  0  0  0  0  0  0  0  0
  154.9959  136.0107  189.8690 C   0  0  0  0  0  0  0  0  0  0  0  0
  155.8888  135.9980  190.9482 C   0  0  0  0  0  0  0  0  0  0  0  0
  156.2825  137.1694  191.5639 C   0  0  0  0  0  0  0  0  0  0  0  0
  155.7791  138.3565  191.0958 C   0  0  0  0  0  0  0  0  0  0  0  0
  154.8856  138.3644  190.0154 C   0  0  0  0  0  0  0  0  0  0  0  0
  152.0431  139.5273  180.2415 C   0  0  0  0  0  0  0  0  0  0  0  0
  152.7176  138.4863  180.0488 O   0  0  0  0  0  0  0  0  0  0  0  0
  152.3131  140.5427  181.1560 N   0  0  0  0  0  0  0  0  0  0  0  0
  151.5963  141.3504  181.1537 H   0  0  0  0  0  0  0  0  0  0  0  0
  150.8154  139.6552  179.3686 C   0  0  0  0  0  0  0  0  0  0  0  0
  149.6112  139.6243  180.2872 C   0  0  0  0  0  0  0  0  0  0  0  0
  149.4972  138.3407  181.0277 C   0  0  0  0  0  0  0  0  0  0  0  0
  148.9140  138.5190  182.4074 C   0  0  0  0  0  0  0  0  0  0  0  0
  147.4850  138.9658  182.3484 C   0  0  0  0  0  0  0  0  0  0  0  0
  146.6508  138.4598  183.4871 C   0  0  0  0  0  0  0  0  0  0  0  0
  147.7369  138.5148  187.0595 O   0  0  0  0  0  0  0  0  0  0  0  0
  147.3752  138.0359  185.8595 N   0  0  0  0  0  0  0  0  0  0  0  0
  147.0530  138.9614  184.8205 C   0  0  0  0  0  0  0  0  0  0  0  0
  147.1320  140.1856  185.1066 O   0  0  0  0  0  0  0  0  0  0  0  0
  148.2532  137.8646  187.6060 H   0  0  0  0  0  0  0  0  0  0  0  0
  147.3149  137.0163  185.6394 H   0  0  0  0  0  0  0  0  0  0  0  0
 29 30  1  0  0  0
 30 31  1  0  0  0
 31 32  2  0  0  0
 31 28  1  0  0  0
 28 27  1  0  0  0
 27 26  1  0  0  0
 26 25  1  0  0  0
 25 24  1  0  0  0
 24 23  1  0  0  0
 23 19  1  0  0  0
 19 20  2  0  0  0
 19 21  1  0  0  0
 21  1  1  0  0  0
  1  2  2  0  0  0
  2  3  1  0  0  0
  3  4  2  0  0  0
  4  5  1  0  0  0
  5  6  2  0  0  0
  5  7  1  0  0  0
  7  8  2  0  0  0
  8  9  1  0  0  0
  9 12  1  0  0  0
 12 13  1  0  0  0
 13 14  2  0  0  0
 14 15  1  0  0  0
 15 16  2  0  0  0
 16 17  1  0  0  0
 17 18  2  0  0  0
  9 10  1  0  0  0
 10 11  2  0  0  0
  6  1  1  0  0  0
 11  7  1  0  0  0
 18 13  1  0  0  0
 29 33  1  0  0  0
 30 34  1  0  0  0
 21 22  1  0  0  0
M  END
> <minimizedAffinity>
-7.15861

> <CNNscore>
0.2793443203

> <CNNaffinity>
5.6350030899

> <CNN_VS>
1.5741060972

> <CNNaffinity_variance>
0.1511952132

$$$$
[H]N=C(N([H])[H])N([H])C([H])([H])C([H])([H])C([H])([H])[C@@]([H])(C(=O)N([H])[C@]([H])(C(=O)O[H])C([H])([H])c1c([H])c([H])c([H])c([H])c1[H])N([H])C(=O)[C@@]([H])(N([H])C(=O)[C@@]([H])(N([H])C(=O)[C@@]([H])(N([H])C(=O)[C@@]([H])(N([H])C(=O)C([H])([H])[H])C([H])([H])C([H])([H])C([H])([H])N([H])C(=N[H])N([H])[H])C([H])([H])C([H])([H])C([H])([H])N([H])C(=N[H])N([H])[H])C([H])([H])C([H])([H])C([H])([H])N([H])C(=N[H])N([H])[H])C([H])([H])C([H])([H])C([H])([H])N([H])C(=N[H])N([H])[H]


 97 97  0  0  0  0  0  0  0  0999 V2000
  150.0679  135.3272  187.1061 C   0  0  0  0  0  0  0  0  0  0  0  0
  149.0322  135.0100  186.0685 C   0  0  0  0  0  0  0  0  0  0  0  0
  148.9440  133.5454  185.7572 O   0  0  0  0  0  0  0  0  0  0  0  0
  148.2165  136.1128  185.4613 N   0  0  0  0  0  0  0  0  0  0  0  0
  148.4366  137.5327  185.8917 H   0  0  0  0  0  0  0  0  0  0  0  0
  147.1807  135.7955  184.4238 C   0  0  0  0  0  0  0  0  0  0  0  0
  148.1433  136.1888  183.3426 C   0  0  0  0  0  0  0  0  0  0  0  0
  148.8259  135.0127  182.7095 O   0  0  0  0  0  0  0  0  0  0  0  0
  148.3361  137.6364  183.0003 N   0  0  0  0  0  0  0  0  0  0  0  0
  147.5663  138.6907  183.7391 H   0  0  0  0  0  0  0  0  0  0  0  0
  149.2986  138.0297  181.9192 C   0  0  0  0  0  0  0  0  0  0  0  0
  148.1486  138.3214  181.0014 C   0  0  0  0  0  0  0  0  0  0  0  0
  148.0466  139.3851  180.7691 O   0  0  0  0  0  0  0  0  0  0  0  0
  147.2825  137.2019  180.5050 N   0  0  0  0  0  0  0  0  0  0  0  0
  147.7063  135.8594  181.0228 H   0  0  0  0  0  0  0  0  0  0  0  0
  146.1325  137.4936  179.5872 C   0  0  0  0  0  0  0  0  0  0  0  0
  146.9807  137.1237  178.4067 C   0  0  0  0  0  0  0  0  0  0  0  0
  147.1634  135.6816  178.0368 O   0  0  0  0  0  0  0  0  0  0  0  0
  147.5153  137.8067  177.7406 O   0  0  0  0  0  0  0  0  0  0  0  0
  148.0116  135.3118  176.8563 H   0  0  0  0  0  0  0  0  0  0  0  0
  145.2842  137.8635  180.7678 C   0  0  0  0  0  0  0  0  0  0  0  0
  144.4359  138.2333  181.9483 C   0  0  0  0  0  0  0  0  0  0  0  0
  145.0330  138.2528  183.3242 C   0  0  0  0  0  0  0  0  0  0  0  0
  144.1847  138.6226  184.5047 C   0  0  0  0  0  0  0  0  0  0  0  0
  142.7394  138.9730  184.3093 C   0  0  0  0  0  0  0  0  0  0  0  0
  142.1423  138.9536  182.9335 C   0  0  0  0  0  0  0  0  0  0  0  0
  142.9906  138.5837  181.7529 C   0  0  0  0  0  0  0  0  0  0  0  0
  150.4487  137.7380  182.8369 C   0  0  0  0  0  0  0  0  0  0  0  0
  151.5987  137.4463  183.7547 C   0  0  0  0  0  0  0  0  0  0  0  0
  152.7487  137.1546  184.6725 C   0  0  0  0  0  0  0  0  0  0  0  0
  153.8988  136.8629  185.5903 N   0  0  0  0  0  0  0  0  0  0  0  0
  154.7335  135.6345  185.3797 H   0  0  0  0  0  0  0  0  0  0  0  0
  154.2141  137.7995  186.7187 C   0  0  0  0  0  0  0  0  0  0  0  0
  153.1610  138.7358  187.2328 N   0  0  0  0  0  0  0  0  0  0  0  0
  155.5825  137.7999  187.3330 N   0  0  0  0  0  0  0  0  0  0  0  0
  153.6444  139.5996  188.3598 H   0  0  0  0  0  0  0  0  0  0  0  0
  151.7925  138.7354  186.6185 H   0  0  0  0  0  0  0  0  0  0  0  0
  155.8979  138.7365  188.4613 H   0  0  0  0  0  0  0  0  0  0  0  0
  146.2182  135.4022  185.5049 C   0  0  0  0  0  0  0  0  0  0  0  0
  145.2557  135.0089  186.5860 C   0  0  0  0  0  0  0  0  0  0  0  0
  144.2931  134.6156  187.6672 C   0  0  0  0  0  0  0  0  0  0  0  0
  143.3306  134.2224  188.7483 N   0  0  0  0  0  0  0  0  0  0  0  0
  143.6416  134.5392  190.1810 H   0  0  0  0  0  0  0  0  0  0  0  0
  142.0570  133.5122  188.3966 C   0  0  0  0  0  0  0  0  0  0  0  0
  141.6523  133.3652  186.9597 N   0  0  0  0  0  0  0  0  0  0  0  0
  141.1880  132.9489  189.4819 N   0  0  0  0  0  0  0  0  0  0  0  0
  140.3556  132.6310  186.7883 H   0  0  0  0  0  0  0  0  0  0  0  0
  142.5212  133.9285  185.8745 H   0  0  0  0  0  0  0  0  0  0  0  0
  139.9145  132.2388  189.1302 H   0  0  0  0  0  0  0  0  0  0  0  0
  148.2181  135.2578  188.9292 C   0  0  0  0  0  0  0  0  0  0  0  0
  147.9268  136.3098  188.8636 O   0  0  0  0  0  0  0  0  0  0  0  0
  149.2788  134.5631  188.1275 N   0  0  0  0  0  0  0  0  0  0  0  0
  149.5502  133.1044  188.3474 H   0  0  0  0  0  0  0  0  0  0  0  0
  147.4290  134.4937  189.9506 C   0  0  0  0  0  0  0  0  0  0  0  0
  149.5930  134.2427  191.3663 C   0  0  0  0  0  0  0  0  0  0  0  0
  149.4914  135.1736  191.9311 O   0  0  0  0  0  0  0  0  0  0  0  0
  148.6579  133.7161  190.3183 N   0  0  0  0  0  0  0  0  0  0  0  0
  148.9516  132.4118  189.6381 H   0  0  0  0  0  0  0  0  0  0  0  0
  150.8219  133.4651  191.7340 C   0  0  0  0  0  0  0  0  0  0  0  0
  148.5822  130.6302  193.3762 C   0  0  0  0  0  0  0  0  0  0  0  0
  149.4124  131.8701  193.2237 C   0  0  0  0  0  0  0  0  0  0  0  0
  149.5217  132.4286  194.1575 O   0  0  0  0  0  0  0  0  0  0  0  0
  149.9917  132.2252  191.8864 N   0  0  0  0  0  0  0  0  0  0  0  0
  149.7407  131.3402  190.7015 H   0  0  0  0  0  0  0  0  0  0  0  0
  152.0508  132.6875  192.1017 C   0  0  0  0  0  0  0  0  0  0  0  0
  153.2796  131.9100  192.4694 C   0  0  0  0  0  0  0  0  0  0  0  0
  154.5085  131.1324  192.8371 C   0  0  0  0  0  0  0  0  0  0  0  0
  155.7374  130.3548  193.2048 N   0  0  0  0  0  0  0  0  0  0  0  0
  157.0175  130.5765  192.4550 H   0  0  0  0  0  0  0  0  0  0  0  0
  155.6862  129.3556  194.3224 C   0  0  0  0  0  0  0  0  0  0  0  0
  156.2902  129.6885  195.6544 N   0  0  0  0  0  0  0  0  0  0  0  0
  155.0309  128.0235  194.1080 N   0  0  0  0  0  0  0  0  0  0  0  0
  156.2390  128.6892  196.7719 H   0  0  0  0  0  0  0  0  0  0  0  0
  156.9455  131.0206  195.8689 H   0  0  0  0  0  0  0  0  0  0  0  0
  154.9796  127.0242  195.2255 H   0  0  0  0  0  0  0  0  0  0  0  0
  146.6398  133.7295  190.9720 C   0  0  0  0  0  0  0  0  0  0  0  0
  145.8507  132.9654  191.9935 C   0  0  0  0  0  0  0  0  0  0  0  0
  145.0615  132.2013  193.0149 C   0  0  0  0  0  0  0  0  0  0  0  0
  144.2724  131.4371  194.0364 N   0  0  0  0  0  0  0  0  0  0  0  0
  144.6475  130.0236  194.3701 H   0  0  0  0  0  0  0  0  0  0  0  0
  143.1082  132.0864  194.7240 C   0  0  0  0  0  0  0  0  0  0  0  0
  141.9380  132.5718  193.9207 N   0  0  0  0  0  0  0  0  0  0  0  0
  143.1140  132.2504  196.2150 N   0  0  0  0  0  0  0  0  0  0  0  0
  140.7738  133.2211  194.6084 H   0  0  0  0  0  0  0  0  0  0  0  0
  141.9322  132.4078  192.4297 H   0  0  0  0  0  0  0  0  0  0  0  0
  141.9497  132.8998  196.9027 H   0  0  0  0  0  0  0  0  0  0  0  0
  151.1037  135.6445  188.1436 C   0  0  0  0  0  0  0  0  0  0  0  0
  152.1395  135.9617  189.1812 C   0  0  0  0  0  0  0  0  0  0  0  0
  153.1752  136.2790  190.2188 C   0  0  0  0  0  0  0  0  0  0  0  0
  154.2110  136.5962  191.2563 N   0  0  0  0  0  0  0  0  0  0  0  0
  154.1903  135.8872  192.5780 H   0  0  0  0  0  0  0  0  0  0  0  0
  155.2674  137.6224  190.9722 C   0  0  0  0  0  0  0  0  0  0  0  0
  156.5520  137.2141  190.3139 N   0  0  0  0  0  0  0  0  0  0  0  0
  155.0394  139.0570  191.3463 N   0  0  0  0  0  0  0  0  0  0  0  0
  157.2388  138.0511  190.1613 H   0  0  0  0  0  0  0  0  0  0  0  0
  156.7800  135.7795  189.9398 H   0  0  0  0  0  0  0  0  0  0  0  0
  156.0959  140.0833  191.0621 H   0  0  0  0  0  0  0  0  0  0  0  0
 60 61  1  0  0  0
 61 62  2  0  0  0
 61 63  1  0  0  0
 63 59  1  0  0  0
 59 65  1  0  0  0
 65 66  1  0  0  0
 66 67  1  0  0  0
 67 68  1  0  0  0
 68 70  1  0  0  0
 70 71  1  0  0  0
 70 72  2  0  0  0
 59 55  1  0  0  0
 55 56  2  0  0  0
 55 57  1  0  0  0
 57 54  1  0  0  0
 54 76  1  0  0  0
 76 77  1  0  0  0
 77 78  1  0  0  0
 78 79  1  0  0  0
 79 81  1  0  0  0
 81 82  1  0  0  0
 81 83  2  0  0  0
 54 50  1  0  0  0
 50 51  2  0  0  0
 50 52  1  0  0  0
 52  1  1  0  0  0
  1 87  1  0  0  0
 87 88  1  0  0  0
 88 89  1  0  0  0
 89 90  1  0  0  0
 90 92  1  0  0  0
 92 93  1  0  0  0
 92 94  2  0  0  0
  1  2  1  0  0  0
  2  3  2  0  0  0
  2  4  1  0  0  0
  4  6  1  0  0  0
  6 39  1  0  0  0
 39 40  1  0  0  0
 40 41  1  0  0  0
 41 42  1  0  0  0
 42 44  1  0  0  0
 44 45  1  0  0  0
 44 46  2  0  0  0
  6  7  1  0  0  0
  7  8  2  0  0  0
  7  9  1  0  0  0
  9 11  1  0  0  0
 11 28  1  0  0  0
 28 29  1  0  0  0
 29 30  1  0  0  0
 30 31  1  0  0  0
 31 33  1  0  0  0
 33 34  1  0  0  0
 33 35  2  0  0  0
 11 12  1  0  0  0
 12 13  2  0  0  0
 12 14  1  0  0  0
 14 16  1  0  0  0
 16 21  1  0  0  0
 21 22  1  0  0  0
 22 23  2  0  0  0
 23 24  1  0  0  0
 24 25  2  0  0  0
 25 26  1  0  0  0
 26 27  2  0  0  0
 16 17  1  0  0  0
 17 18  1  0  0  0
 17 19  2  0  0  0
 27 22  1  0  0  0
 63 64  1  0  0  0
 68 69  1  0  0  0
 71 73  1  0  0  0
 71 74  1  0  0  0
 72 75  1  0  0  0
 57 58  1  0  0  0
 79 80  1  0  0  0
 82 84  1  0  0  0
 82 85  1  0  0  0
 83 86  1  0  0  0
 52 53  1  0  0  0
 90 91  1  0  0  0
 93 95  1  0  0  0
 93 96  1  0  0  0
 94 97  1  0  0  0
  4  5  1  0  0  0
 42 43  1  0  0  0
 45 47  1  0  0  0
 45 48  1  0  0  0
 46 49  1  0  0  0
  9 10  1  0  0  0
 31 32  1  0  0  0
 34 36  1  0  0  0
 34 37  1  0  0  0
 35 38  1  0  0  0
 14 15  1  0  0  0
 18 20  1  0  0  0
M  END
> <minimizedAffinity>
-3.91972

> <CNNscore>
0.4058362246

> <CNNaffinity>
8.1856937408

> <CNN_VS>
3.3220510483

> <CNNaffinity_variance>
0.9452377558

$$$$
[H]N=C(N([H])[H])N([H])C([H])([H])C([H])([H])C([H])([H])[C@@]([H])(C(=O)N([H])[C@]([H])(C(=O)O[H])C([H])([H])c1c([H])c([H])c([H])c([H])c1[H])N([H])C(=O)[C@@]([H])(N([H])C(=O)[C@@]([H])(N([H])C(=O)[C@@]([H])(N([H])C(=O)[C@@]([H])(N([H])C(=O)C([H])([H])[H])C([H])([H])C([H])([H])C([H])([H])N([H])C(=N[H])N([H])[H])C([H])([H])C([H])([H])C([H])([H])N([H])C(=N[H])N([H])[H])C([H])([H])C([H])([H])C([H])([H])N([H])C(=N[H])N([H])[H])C([H])([H])C([H])([H])C([H])([H])N([H])C(=N[H])N([H])[H]


 97 97  0  0  0  0  0  0  0  0999 V2000
  154.3635  133.7692  187.3540 C   0  0  0  0  0  0  0  0  0  0  0  0
  153.0552  134.3412  186.8946 C   0  0  0  0  0  0  0  0  0  0  0  0
  152.6188  135.5278  187.7016 O   0  0  0  0  0  0  0  0  0  0  0  0
  152.3307  133.7210  185.7367 N   0  0  0  0  0  0  0  0  0  0  0  0
  152.9145  132.5289  185.0383 H   0  0  0  0  0  0  0  0  0  0  0  0
  151.0224  134.2930  185.2774 C   0  0  0  0  0  0  0  0  0  0  0  0
  151.7289  135.0226  184.1735 C   0  0  0  0  0  0  0  0  0  0  0  0
  152.2107  134.1116  183.0836 O   0  0  0  0  0  0  0  0  0  0  0  0
  151.8886  136.5125  184.2412 N   0  0  0  0  0  0  0  0  0  0  0  0
  151.3417  137.2729  185.4128 H   0  0  0  0  0  0  0  0  0  0  0  0
  152.5951  137.2420  183.1373 C   0  0  0  0  0  0  0  0  0  0  0  0
  153.8027  137.3981  184.0134 C   0  0  0  0  0  0  0  0  0  0  0  0
  154.4193  136.4960  184.0556 O   0  0  0  0  0  0  0  0  0  0  0  0
  154.0546  138.6976  184.7188 N   0  0  0  0  0  0  0  0  0  0  0  0
  153.0033  139.7301  184.4382 H   0  0  0  0  0  0  0  0  0  0  0  0
  155.2621  138.8537  185.5949 C   0  0  0  0  0  0  0  0  0  0  0  0
  154.5090  138.2463  186.7411 C   0  0  0  0  0  0  0  0  0  0  0  0
  153.1274  138.7285  187.0704 O   0  0  0  0  0  0  0  0  0  0  0  0
  154.8544  137.4514  187.4080 O   0  0  0  0  0  0  0  0  0  0  0  0
  152.3743  138.1210  188.2167 H   0  0  0  0  0  0  0  0  0  0  0  0
  156.0152  139.4611  184.4486 C   0  0  0  0  0  0  0  0  0  0  0  0
  156.7682  140.0685  183.3023 C   0  0  0  0  0  0  0  0  0  0  0  0
  158.1283  139.5501  182.9397 C   0  0  0  0  0  0  0  0  0  0  0  0
  158.8813  140.1575  181.7934 C   0  0  0  0  0  0  0  0  0  0  0  0
  158.2744  141.2834  181.0098 C   0  0  0  0  0  0  0  0  0  0  0  0
  156.9144  141.8018  181.3724 C   0  0  0  0  0  0  0  0  0  0  0  0
  156.1613  141.1944  182.5187 C   0  0  0  0  0  0  0  0  0  0  0  0
  151.3876  137.0860  182.2613 C   0  0  0  0  0  0  0  0  0  0  0  0
  150.1800  136.9299  181.3853 C   0  0  0  0  0  0  0  0  0  0  0  0
  148.9725  136.7738  180.5092 C   0  0  0  0  0  0  0  0  0  0  0  0
  147.7649  136.6178  179.6332 N   0  0  0  0  0  0  0  0  0  0  0  0
  146.8329  135.4607  179.8398 H   0  0  0  0  0  0  0  0  0  0  0  0
  147.4893  137.6188  178.5505 C   0  0  0  0  0  0  0  0  0  0  0  0
  146.1082  137.7445  177.9791 N   0  0  0  0  0  0  0  0  0  0  0  0
  148.5950  138.4941  178.0393 N   0  0  0  0  0  0  0  0  0  0  0  0
  146.0098  138.7908  176.9088 H   0  0  0  0  0  0  0  0  0  0  0  0
  145.0025  136.8692  178.4904 H   0  0  0  0  0  0  0  0  0  0  0  0
  148.3195  139.4950  176.9567 H   0  0  0  0  0  0  0  0  0  0  0  0
  150.3158  133.5635  186.3813 C   0  0  0  0  0  0  0  0  0  0  0  0
  149.6093  132.8340  187.4851 C   0  0  0  0  0  0  0  0  0  0  0  0
  148.9027  132.1044  188.5890 C   0  0  0  0  0  0  0  0  0  0  0  0
  148.1962  131.3749  189.6929 N   0  0  0  0  0  0  0  0  0  0  0  0
  146.6974  131.3185  189.7155 H   0  0  0  0  0  0  0  0  0  0  0  0
  148.9885  130.7017  190.7743 C   0  0  0  0  0  0  0  0  0  0  0  0
  150.4519  130.9943  190.9245 N   0  0  0  0  0  0  0  0  0  0  0  0
  148.3172  129.7361  191.7053 N   0  0  0  0  0  0  0  0  0  0  0  0
  151.0880  130.2376  192.0527 H   0  0  0  0  0  0  0  0  0  0  0  0
  151.1232  131.9599  189.9935 H   0  0  0  0  0  0  0  0  0  0  0  0
  149.1094  129.0629  192.7866 H   0  0  0  0  0  0  0  0  0  0  0  0
  154.2176  134.2311  189.9065 C   0  0  0  0  0  0  0  0  0  0  0  0
  154.9744  135.0196  189.9428 O   0  0  0  0  0  0  0  0  0  0  0  0
  153.7624  133.4716  188.6956 N   0  0  0  0  0  0  0  0  0  0  0  0
  152.7061  132.4147  188.8264 H   0  0  0  0  0  0  0  0  0  0  0  0
  153.6164  133.9335  191.2482 C   0  0  0  0  0  0  0  0  0  0  0  0
  151.5683  135.4682  190.8008 C   0  0  0  0  0  0  0  0  0  0  0  0
  151.9678  136.3664  191.2797 O   0  0  0  0  0  0  0  0  0  0  0  0
  152.2437  134.1345  190.6777 N   0  0  0  0  0  0  0  0  0  0  0  0
  151.5465  133.0018  189.9841 H   0  0  0  0  0  0  0  0  0  0  0  0
  150.1956  135.6692  190.2303 C   0  0  0  0  0  0  0  0  0  0  0  0
  148.8174  133.4594  193.2248 C   0  0  0  0  0  0  0  0  0  0  0  0
  149.3135  134.6428  192.4480 C   0  0  0  0  0  0  0  0  0  0  0  0
  149.3479  135.5600  193.0424 O   0  0  0  0  0  0  0  0  0  0  0  0
  149.6995  134.4857  191.0071 N   0  0  0  0  0  0  0  0  0  0  0  0
  149.5894  133.1453  190.3429 H   0  0  0  0  0  0  0  0  0  0  0  0
  148.8230  135.8702  189.6598 C   0  0  0  0  0  0  0  0  0  0  0  0
  147.4503  136.0712  189.0894 C   0  0  0  0  0  0  0  0  0  0  0  0
  146.0777  136.2722  188.5189 C   0  0  0  0  0  0  0  0  0  0  0  0
  144.7050  136.4732  187.9484 N   0  0  0  0  0  0  0  0  0  0  0  0
  144.4621  136.2556  186.4844 H   0  0  0  0  0  0  0  0  0  0  0  0
  143.5753  136.8918  188.8421 C   0  0  0  0  0  0  0  0  0  0  0  0
  142.5796  135.8760  189.3180 N   0  0  0  0  0  0  0  0  0  0  0  0
  143.4415  138.3262  189.2599 N   0  0  0  0  0  0  0  0  0  0  0  0
  141.4499  136.2946  190.2117 H   0  0  0  0  0  0  0  0  0  0  0  0
  142.7134  134.4415  188.9003 H   0  0  0  0  0  0  0  0  0  0  0  0
  142.3119  138.7448  190.1536 H   0  0  0  0  0  0  0  0  0  0  0  0
  153.0152  133.6360  192.5898 C   0  0  0  0  0  0  0  0  0  0  0  0
  152.4141  133.3384  193.9315 C   0  0  0  0  0  0  0  0  0  0  0  0
  151.8129  133.0409  195.2732 C   0  0  0  0  0  0  0  0  0  0  0  0
  151.2117  132.7433  196.6148 N   0  0  0  0  0  0  0  0  0  0  0  0
  150.7165  131.3618  196.9250 H   0  0  0  0  0  0  0  0  0  0  0  0
  151.1058  133.8273  197.6462 C   0  0  0  0  0  0  0  0  0  0  0  0
  150.4432  133.5477  198.9627 N   0  0  0  0  0  0  0  0  0  0  0  0
  151.6624  135.1907  197.3613 N   0  0  0  0  0  0  0  0  0  0  0  0
  150.3372  134.6316  199.9941 H   0  0  0  0  0  0  0  0  0  0  0  0
  149.8866  132.1843  199.2476 H   0  0  0  0  0  0  0  0  0  0  0  0
  151.5564  136.2746  198.3928 H   0  0  0  0  0  0  0  0  0  0  0  0
  155.6719  133.1972  187.8133 C   0  0  0  0  0  0  0  0  0  0  0  0
  156.9802  132.6252  188.2727 C   0  0  0  0  0  0  0  0  0  0  0  0
  158.2886  132.0531  188.7321 C   0  0  0  0  0  0  0  0  0  0  0  0
  159.5969  131.4811  189.1914 N   0  0  0  0  0  0  0  0  0  0  0  0
  160.1429  131.8462  190.5400 H   0  0  0  0  0  0  0  0  0  0  0  0
  160.3593  130.5440  188.3023 C   0  0  0  0  0  0  0  0  0  0  0  0
  161.1781  129.4399  188.9027 N   0  0  0  0  0  0  0  0  0  0  0  0
  160.3029  130.7111  186.8127 N   0  0  0  0  0  0  0  0  0  0  0  0
  161.6848  128.8271  188.1521 H   0  0  0  0  0  0  0  0  0  0  0  0
  161.2345  129.2728  190.3923 H   0  0  0  0  0  0  0  0  0  0  0  0
  161.0653  129.7739  185.9235 H   0  0  0  0  0  0  0  0  0  0  0  0
 60 61  1  0  0  0
 61 62  2  0  0  0
 61 63  1  0  0  0
 63 59  1  0  0  0
 59 65  1  0  0  0
 65 66  1  0  0  0
 66 67  1  0  0  0
 67 68  1  0  0  0
 68 70  1  0  0  0
 70 71  1  0  0  0
 70 72  2  0  0  0
 59 55  1  0  0  0
 55 56  2  0  0  0
 55 57  1  0  0  0
 57 54  1  0  0  0
 54 76  1  0  0  0
 76 77  1  0  0  0
 77 78  1  0  0  0
 78 79  1  0  0  0
 79 81  1  0  0  0
 81 82  1  0  0  0
 81 83  2  0  0  0
 54 50  1  0  0  0
 50 51  2  0  0  0
 50 52  1  0  0  0
 52  1  1  0  0  0
  1 87  1  0  0  0
 87 88  1  0  0  0
 88 89  1  0  0  0
 89 90  1  0  0  0
 90 92  1  0  0  0
 92 93  1  0  0  0
 92 94  2  0  0  0
  1  2  1  0  0  0
  2  3  2  0  0  0
  2  4  1  0  0  0
  4  6  1  0  0  0
  6 39  1  0  0  0
 39 40  1  0  0  0
 40 41  1  0  0  0
 41 42  1  0  0  0
 42 44  1  0  0  0
 44 45  1  0  0  0
 44 46  2  0  0  0
  6  7  1  0  0  0
  7  8  2  0  0  0
  7  9  1  0  0  0
  9 11  1  0  0  0
 11 28  1  0  0  0
 28 29  1  0  0  0
 29 30  1  0  0  0
 30 31  1  0  0  0
 31 33  1  0  0  0
 33 34  1  0  0  0
 33 35  2  0  0  0
 11 12  1  0  0  0
 12 13  2  0  0  0
 12 14  1  0  0  0
 14 16  1  0  0  0
 16 21  1  0  0  0
 21 22  1  0  0  0
 22 23  2  0  0  0
 23 24  1  0  0  0
 24 25  2  0  0  0
 25 26  1  0  0  0
 26 27  2  0  0  0
 16 17  1  0  0  0
 17 18  1  0  0  0
 17 19  2  0  0  0
 27 22  1  0  0  0
 63 64  1  0  0  0
 68 69  1  0  0  0
 71 73  1  0  0  0
 71 74  1  0  0  0
 72 75  1  0  0  0
 57 58  1  0  0  0
 79 80  1  0  0  0
 82 84  1  0  0  0
 82 85  1  0  0  0
 83 86  1  0  0  0
 52 53  1  0  0  0
 90 91  1  0  0  0
 93 95  1  0  0  0
 93 96  1  0  0  0
 94 97  1  0  0  0
  4  5  1  0  0  0
 42 43  1  0  0  0
 45 47  1  0  0  0
 45 48  1  0  0  0
 46 49  1  0  0  0
  9 10  1  0  0  0
 31 32  1  0  0  0
 34 36  1  0  0  0
 34 37  1  0  0  0
 35 38  1  0  0  0
 14 15  1  0  0  0
 18 20  1  0  0  0
M  END
> <minimizedAffinity>
-4.42732

> <CNNscore>
0.4021172822

> <CNNaffinity>
7.6979088783

> <CNN_VS>
3.0954620838

> <CNNaffinity_variance>
0.2947017252

$$$$
[H]N=C(N([H])[H])N([H])C([H])([H])C([H])([H])C([H])([H])[C@@]([H])(C(=O)N([H])[C@]([H])(C(=O)O[H])C([H])([H])c1c([H])c([H])c([H])c([H])c1[H])N([H])C(=O)[C@@]([H])(N([H])C(=O)[C@@]([H])(N([H])C(=O)[C@@]([H])(N([H])C(=O)[C@@]([H])(N([H])C(=O)C([H])([H])[H])C([H])([H])C([H])([H])C([H])([H])N([H])C(=N[H])N([H])[H])C([H])([H])C([H])([H])C([H])([H])N([H])C(=N[H])N([H])[H])C([H])([H])C([H])([H])C([H])([H])N([H])C(=N[H])N([H])[H])C([H])([H])C([H])([H])C([H])([H])N([H])C(=N[H])N([H])[H]


 97 97  0  0  0  0  0  0  0  0999 V2000
  153.9648  136.6626  185.8040 C   0  0  0  0  0  0  0  0  0  0  0  0
  153.4494  135.5158  186.6220 C   0  0  0  0  0  0  0  0  0  0  0  0
  154.5137  134.8649  187.4546 O   0  0  0  0  0  0  0  0  0  0  0  0
  152.0009  135.1332  186.5482 N   0  0  0  0  0  0  0  0  0  0  0  0
  151.0678  135.8975  185.6565 H   0  0  0  0  0  0  0  0  0  0  0  0
  151.4854  133.9864  187.3662 C   0  0  0  0  0  0  0  0  0  0  0  0
  150.8643  134.9532  188.3303 C   0  0  0  0  0  0  0  0  0  0  0  0
  151.0137  136.3835  187.9040 O   0  0  0  0  0  0  0  0  0  0  0  0
  150.1849  134.4463  189.5678 N   0  0  0  0  0  0  0  0  0  0  0  0
  150.1266  132.9726  189.8412 H   0  0  0  0  0  0  0  0  0  0  0  0
  149.5638  135.4131  190.5319 C   0  0  0  0  0  0  0  0  0  0  0  0
  150.7143  135.2133  191.4734 C   0  0  0  0  0  0  0  0  0  0  0  0
  151.1497  134.2123  191.4096 O   0  0  0  0  0  0  0  0  0  0  0  0
  151.1505  136.3318  192.3726 N   0  0  0  0  0  0  0  0  0  0  0  0
  150.3298  137.5757  192.2010 H   0  0  0  0  0  0  0  0  0  0  0  0
  152.3010  136.1321  193.3141 C   0  0  0  0  0  0  0  0  0  0  0  0
  151.3573  135.6099  194.3566 C   0  0  0  0  0  0  0  0  0  0  0  0
  149.8975  135.9470  194.2831 O   0  0  0  0  0  0  0  0  0  0  0  0
  151.6074  134.9786  195.2137 O   0  0  0  0  0  0  0  0  0  0  0  0
  148.9538  135.4247  195.3255 H   0  0  0  0  0  0  0  0  0  0  0  0
  153.2448  136.6543  192.2717 C   0  0  0  0  0  0  0  0  0  0  0  0
  154.1885  137.1765  191.2293 C   0  0  0  0  0  0  0  0  0  0  0  0
  153.6558  137.6851  189.9226 C   0  0  0  0  0  0  0  0  0  0  0  0
  154.5995  138.2073  188.8802 C   0  0  0  0  0  0  0  0  0  0  0  0
  156.0760  138.2210  189.1445 C   0  0  0  0  0  0  0  0  0  0  0  0
  156.6087  137.7124  190.4512 C   0  0  0  0  0  0  0  0  0  0  0  0
  155.6649  137.1902  191.4936 C   0  0  0  0  0  0  0  0  0  0  0  0
  148.4133  135.6129  189.5904 C   0  0  0  0  0  0  0  0  0  0  0  0
  147.2628  135.8126  188.6489 C   0  0  0  0  0  0  0  0  0  0  0  0
  146.1123  136.0124  187.7074 C   0  0  0  0  0  0  0  0  0  0  0  0
  144.9618  136.2122  186.7659 N   0  0  0  0  0  0  0  0  0  0  0  0
  143.8914  137.2114  187.0910 H   0  0  0  0  0  0  0  0  0  0  0  0
  144.8817  135.4126  185.4992 C   0  0  0  0  0  0  0  0  0  0  0  0
  143.5814  135.3087  184.7589 N   0  0  0  0  0  0  0  0  0  0  0  0
  146.1021  134.7171  184.9729 N   0  0  0  0  0  0  0  0  0  0  0  0
  143.6794  134.4735  183.5167 H   0  0  0  0  0  0  0  0  0  0  0  0
  142.3610  136.0042  185.2851 H   0  0  0  0  0  0  0  0  0  0  0  0
  146.0221  133.9176  183.7063 H   0  0  0  0  0  0  0  0  0  0  0  0
  152.1066  133.0196  186.4021 C   0  0  0  0  0  0  0  0  0  0  0  0
  152.7277  132.0528  185.4380 C   0  0  0  0  0  0  0  0  0  0  0  0
  153.3488  131.0860  184.4739 C   0  0  0  0  0  0  0  0  0  0  0  0
  153.9699  130.1192  183.5098 N   0  0  0  0  0  0  0  0  0  0  0  0
  154.4271  128.7728  183.9875 H   0  0  0  0  0  0  0  0  0  0  0  0
  154.1339  130.4988  182.0679 C   0  0  0  0  0  0  0  0  0  0  0  0
  155.2859  131.3618  181.6458 N   0  0  0  0  0  0  0  0  0  0  0  0
  153.1458  130.0155  181.0480 N   0  0  0  0  0  0  0  0  0  0  0  0
  155.2980  131.6438  180.1726 H   0  0  0  0  0  0  0  0  0  0  0  0
  156.2740  131.8452  182.6657 H   0  0  0  0  0  0  0  0  0  0  0  0
  153.3098  130.3951  179.6062 H   0  0  0  0  0  0  0  0  0  0  0  0
  153.9820  135.0313  183.7820 C   0  0  0  0  0  0  0  0  0  0  0  0
  154.9628  134.5885  183.9763 O   0  0  0  0  0  0  0  0  0  0  0  0
  153.2963  136.0951  184.5871 N   0  0  0  0  0  0  0  0  0  0  0  0
  151.9420  136.5914  184.1752 H   0  0  0  0  0  0  0  0  0  0  0  0
  153.3134  134.4637  182.5650 C   0  0  0  0  0  0  0  0  0  0  0  0
  151.4731  136.2922  182.4236 C   0  0  0  0  0  0  0  0  0  0  0  0
  151.9476  136.8991  181.6476 O   0  0  0  0  0  0  0  0  0  0  0  0
  152.0001  135.0234  183.0256 N   0  0  0  0  0  0  0  0  0  0  0  0
  151.2139  134.3141  184.0881 H   0  0  0  0  0  0  0  0  0  0  0  0
  150.1598  136.8518  182.8842 C   0  0  0  0  0  0  0  0  0  0  0  0
  148.2770  134.0280  180.8272 C   0  0  0  0  0  0  0  0  0  0  0  0
  148.9486  135.3260  181.1652 C   0  0  0  0  0  0  0  0  0  0  0  0
  148.9820  136.0219  180.3224 O   0  0  0  0  0  0  0  0  0  0  0  0
  149.4882  135.5539  182.5461 N   0  0  0  0  0  0  0  0  0  0  0  0
  149.3561  134.4838  183.5890 H   0  0  0  0  0  0  0  0  0  0  0  0
  148.8465  137.4114  183.3447 C   0  0  0  0  0  0  0  0  0  0  0  0
  147.5332  137.9711  183.8052 C   0  0  0  0  0  0  0  0  0  0  0  0
  146.2199  138.5307  184.2657 C   0  0  0  0  0  0  0  0  0  0  0  0
  144.9066  139.0903  184.7263 N   0  0  0  0  0  0  0  0  0  0  0  0
  144.8282  139.8579  186.0126 H   0  0  0  0  0  0  0  0  0  0  0  0
  143.6718  138.8823  183.9004 C   0  0  0  0  0  0  0  0  0  0  0  0
  143.7626  138.1760  182.5803 N   0  0  0  0  0  0  0  0  0  0  0  0
  142.3461  139.3806  184.3949 N   0  0  0  0  0  0  0  0  0  0  0  0
  142.5277  137.9681  181.7545 H   0  0  0  0  0  0  0  0  0  0  0  0
  145.0882  137.6777  182.0858 H   0  0  0  0  0  0  0  0  0  0  0  0
  141.1113  139.1726  183.5691 H   0  0  0  0  0  0  0  0  0  0  0  0
  152.6449  133.8962  181.3481 C   0  0  0  0  0  0  0  0  0  0  0  0
  151.9763  133.3287  180.1312 C   0  0  0  0  0  0  0  0  0  0  0  0
  151.3077  132.7612  178.9142 C   0  0  0  0  0  0  0  0  0  0  0  0
  150.6391  132.1937  177.6973 N   0  0  0  0  0  0  0  0  0  0  0  0
  149.1463  132.0520  177.6591 H   0  0  0  0  0  0  0  0  0  0  0  0
  151.4633  131.7680  176.5186 C   0  0  0  0  0  0  0  0  0  0  0  0
  152.3638  132.7554  175.8371 N   0  0  0  0  0  0  0  0  0  0  0  0
  151.3871  130.3549  176.0213 N   0  0  0  0  0  0  0  0  0  0  0  0
  153.1880  132.3296  174.6584 H   0  0  0  0  0  0  0  0  0  0  0  0
  152.4400  134.1685  176.3345 H   0  0  0  0  0  0  0  0  0  0  0  0
  152.2113  129.9291  174.8425 H   0  0  0  0  0  0  0  0  0  0  0  0
  154.4803  137.8094  184.9860 C   0  0  0  0  0  0  0  0  0  0  0  0
  154.9957  138.9563  184.1680 C   0  0  0  0  0  0  0  0  0  0  0  0
  155.5111  140.1031  183.3500 C   0  0  0  0  0  0  0  0  0  0  0  0
  156.0265  141.2499  182.5320 N   0  0  0  0  0  0  0  0  0  0  0  0
  155.1804  142.4735  182.3390 H   0  0  0  0  0  0  0  0  0  0  0  0
  157.3879  141.1733  181.9071 C   0  0  0  0  0  0  0  0  0  0  0  0
  158.6023  141.0098  182.7724 N   0  0  0  0  0  0  0  0  0  0  0  0
  157.5351  141.2602  180.4169 N   0  0  0  0  0  0  0  0  0  0  0  0
  159.5325  140.9672  182.1994 H   0  0  0  0  0  0  0  0  0  0  0  0
  158.4551  140.9230  184.2627 H   0  0  0  0  0  0  0  0  0  0  0  0
  158.8966  141.1835  179.7920 H   0  0  0  0  0  0  0  0  0  0  0  0
 60 61  1  0  0  0
 61 62  2  0  0  0
 61 63  1  0  0  0
 63 59  1  0  0  0
 59 65  1  0  0  0
 65 66  1  0  0  0
 66 67  1  0  0  0
 67 68  1  0  0  0
 68 70  1  0  0  0
 70 71  1  0  0  0
 70 72  2  0  0  0
 59 55  1  0  0  0
 55 56  2  0  0  0
 55 57  1  0  0  0
 57 54  1  0  0  0
 54 76  1  0  0  0
 76 77  1  0  0  0
 77 78  1  0  0  0
 78 79  1  0  0  0
 79 81  1  0  0  0
 81 82  1  0  0  0
 81 83  2  0  0  0
 54 50  1  0  0  0
 50 51  2  0  0  0
 50 52  1  0  0  0
 52  1  1  0  0  0
  1 87  1  0  0  0
 87 88  1  0  0  0
 88 89  1  0  0  0
 89 90  1  0  0  0
 90 92  1  0  0  0
 92 93  1  0  0  0
 92 94  2  0  0  0
  1  2  1  0  0  0
  2  3  2  0  0  0
  2  4  1  0  0  0
  4  6  1  0  0  0
  6 39  1  0  0  0
 39 40  1  0  0  0
 40 41  1  0  0  0
 41 42  1  0  0  0
 42 44  1  0  0  0
 44 45  1  0  0  0
 44 46  2  0  0  0
  6  7  1  0  0  0
  7  8  2  0  0  0
  7  9  1  0  0  0
  9 11  1  0  0  0
 11 28  1  0  0  0
 28 29  1  0  0  0
 29 30  1  0  0  0
 30 31  1  0  0  0
 31 33  1  0  0  0
 33 34  1  0  0  0
 33 35  2  0  0  0
 11 12  1  0  0  0
 12 13  2  0  0  0
 12 14  1  0  0  0
 14 16  1  0  0  0
 16 21  1  0  0  0
 21 22  1  0  0  0
 22 23  2  0  0  0
 23 24  1  0  0  0
 24 25  2  0  0  0
 25 26  1  0  0  0
 26 27  2  0  0  0
 16 17  1  0  0  0
 17 18  1  0  0  0
 17 19  2  0  0  0
 27 22  1  0  0  0
 63 64  1  0  0  0
 68 69  1  0  0  0
 71 73  1  0  0  0
 71 74  1  0  0  0
 72 75  1  0  0  0
 57 58  1  0  0  0
 79 80  1  0  0  0
 82 84  1  0  0  0
 82 85  1  0  0  0
 83 86  1  0  0  0
 52 53  1  0  0  0
 90 91  1  0  0  0
 93 95  1  0  0  0
 93 96  1  0  0  0
 94 97  1  0  0  0
  4  5  1  0  0  0
 42 43  1  0  0  0
 45 47  1  0  0  0
 45 48  1  0  0  0
 46 49  1  0  0  0
  9 10  1  0  0  0
 31 32  1  0  0  0
 34 36  1  0  0  0
 34 37  1  0  0  0
 35 38  1  0  0  0
 14 15  1  0  0  0
 18 20  1  0  0  0
M  END
> <minimizedAffinity>
-4.41914

> <CNNscore>
0.3905574083

> <CNNaffinity>
8.4506092072

> <CNN_VS>
3.3004479408

> <CNNaffinity_variance>
0.2678717077

$$$$
[H]N=C(N([H])[H])N([H])C([H])([H])C([H])([H])C([H])([H])[C@@]([H])(C(=O)N([H])[C@]([H])(C(=O)O[H])C([H])([H])c1c([H])c([H])c([H])c([H])c1[H])N([H])C(=O)[C@@]([H])(N([H])C(=O)[C@@]([H])(N([H])C(=O)[C@@]([H])(N([H])C(=O)[C@@]([H])(N([H])C(=O)C([H])([H])[H])C([H])([H])C([H])([H])C([H])([H])N([H])C(=N[H])N([H])[H])C([H])([H])C([H])([H])C([H])([H])N([H])C(=N[H])N([H])[H])C([H])([H])C([H])([H])C([H])([H])N([H])C(=N[H])N([H])[H])C([H])([H])C([H])([H])C([H])([H])N([H])C(=N[H])N([H])[H]


 97 97  0  0  0  0  0  0  0  0999 V2000
  151.7292  137.3058  185.0922 C   0  0  0  0  0  0  0  0  0  0  0  0
  152.6714  137.8277  184.0483 C   0  0  0  0  0  0  0  0  0  0  0  0
  153.5780  136.7686  183.4950 O   0  0  0  0  0  0  0  0  0  0  0  0
  152.6360  139.2771  183.6632 N   0  0  0  0  0  0  0  0  0  0  0  0
  151.6583  140.2045  184.3220 H   0  0  0  0  0  0  0  0  0  0  0  0
  153.5783  139.7990  182.6193 C   0  0  0  0  0  0  0  0  0  0  0  0
  154.6104  140.0526  183.6777 C   0  0  0  0  0  0  0  0  0  0  0  0
  154.3623  141.3159  184.4474 O   0  0  0  0  0  0  0  0  0  0  0  0
  155.7393  139.0842  183.8718 N   0  0  0  0  0  0  0  0  0  0  0  0
  155.8360  137.8621  183.0074 H   0  0  0  0  0  0  0  0  0  0  0  0
  156.7715  139.3378  184.9302 C   0  0  0  0  0  0  0  0  0  0  0  0
  157.6288  140.0471  183.9243 C   0  0  0  0  0  0  0  0  0  0  0  0
  158.2011  139.3624  183.2923 O   0  0  0  0  0  0  0  0  0  0  0  0
  157.6339  141.5460  183.8672 N   0  0  0  0  0  0  0  0  0  0  0  0
  156.7274  142.1742  184.8838 H   0  0  0  0  0  0  0  0  0  0  0  0
  158.4912  142.2553  182.8612 C   0  0  0  0  0  0  0  0  0  0  0  0
  157.3938  142.1405  181.8451 C   0  0  0  0  0  0  0  0  0  0  0  0
  157.5906  141.2969  180.6206 O   0  0  0  0  0  0  0  0  0  0  0  0
  156.4110  142.6188  181.8810 O   0  0  0  0  0  0  0  0  0  0  0  0
  156.4932  141.1821  179.6045 H   0  0  0  0  0  0  0  0  0  0  0  0
  159.5886  142.3700  183.8773 C   0  0  0  0  0  0  0  0  0  0  0  0
  160.6860  142.4848  184.8935 C   0  0  0  0  0  0  0  0  0  0  0  0
  162.1044  142.1940  184.5016 C   0  0  0  0  0  0  0  0  0  0  0  0
  163.2018  142.3087  185.5177 C   0  0  0  0  0  0  0  0  0  0  0  0
  162.8809  142.7142  186.9257 C   0  0  0  0  0  0  0  0  0  0  0  0
  161.4625  143.0050  187.3176 C   0  0  0  0  0  0  0  0  0  0  0  0
  160.3651  142.8903  186.3015 C   0  0  0  0  0  0  0  0  0  0  0  0
  155.9142  138.6285  185.9362 C   0  0  0  0  0  0  0  0  0  0  0  0
  155.0569  137.9192  186.9422 C   0  0  0  0  0  0  0  0  0  0  0  0
  154.1996  137.2099  187.9481 C   0  0  0  0  0  0  0  0  0  0  0  0
  153.3423  136.5006  188.9541 N   0  0  0  0  0  0  0  0  0  0  0  0
  152.5541  135.2908  188.5477 H   0  0  0  0  0  0  0  0  0  0  0  0
  153.2733  137.0011  190.3665 C   0  0  0  0  0  0  0  0  0  0  0  0
  154.4267  137.7623  190.9497 N   0  0  0  0  0  0  0  0  0  0  0  0
  152.0508  136.7403  191.1957 N   0  0  0  0  0  0  0  0  0  0  0  0
  154.1909  138.1870  192.3688 H   0  0  0  0  0  0  0  0  0  0  0  0
  155.6492  138.0230  190.1205 H   0  0  0  0  0  0  0  0  0  0  0  0
  151.9818  137.2407  192.6080 H   0  0  0  0  0  0  0  0  0  0  0  0
  152.5461  139.5453  181.5608 C   0  0  0  0  0  0  0  0  0  0  0  0
  151.5139  139.2917  180.5024 C   0  0  0  0  0  0  0  0  0  0  0  0
  150.4818  139.0381  179.4439 C   0  0  0  0  0  0  0  0  0  0  0  0
  149.4496  138.7844  178.3855 N   0  0  0  0  0  0  0  0  0  0  0  0
  149.7930  138.9864  176.9394 H   0  0  0  0  0  0  0  0  0  0  0  0
  148.0740  138.3288  178.7732 C   0  0  0  0  0  0  0  0  0  0  0  0
  147.1715  137.7109  177.7468 N   0  0  0  0  0  0  0  0  0  0  0  0
  147.6011  138.4910  180.1874 N   0  0  0  0  0  0  0  0  0  0  0  0
  145.8365  137.3136  178.3034 H   0  0  0  0  0  0  0  0  0  0  0  0
  147.6445  137.5487  176.3326 H   0  0  0  0  0  0  0  0  0  0  0  0
  146.2256  138.0354  180.5752 H   0  0  0  0  0  0  0  0  0  0  0  0
  150.5108  135.6425  183.5115 C   0  0  0  0  0  0  0  0  0  0  0  0
  151.0512  134.7438  183.8216 O   0  0  0  0  0  0  0  0  0  0  0  0
  150.7034  137.0362  184.0315 N   0  0  0  0  0  0  0  0  0  0  0  0
  149.8702  138.1603  183.4909 H   0  0  0  0  0  0  0  0  0  0  0  0
  149.4850  135.3728  182.4508 C   0  0  0  0  0  0  0  0  0  0  0  0
  147.7149  134.6688  184.2174 C   0  0  0  0  0  0  0  0  0  0  0  0
  147.9224  133.5954  184.1935 O   0  0  0  0  0  0  0  0  0  0  0  0
  148.3939  135.7376  183.4133 N   0  0  0  0  0  0  0  0  0  0  0  0
  147.9818  137.1712  183.5716 H   0  0  0  0  0  0  0  0  0  0  0  0
  146.6238  135.0336  185.1799 C   0  0  0  0  0  0  0  0  0  0  0  0
  143.8874  134.5241  182.3511 C   0  0  0  0  0  0  0  0  0  0  0  0
  144.8961  135.1821  183.2453 C   0  0  0  0  0  0  0  0  0  0  0  0
  145.0171  136.2493  183.0401 O   0  0  0  0  0  0  0  0  0  0  0  0
  145.6151  134.3756  184.2858 N   0  0  0  0  0  0  0  0  0  0  0  0
  145.3253  132.9111  184.4321 H   0  0  0  0  0  0  0  0  0  0  0  0
  145.5327  135.3983  186.1424 C   0  0  0  0  0  0  0  0  0  0  0  0
  144.4416  135.7631  187.1049 C   0  0  0  0  0  0  0  0  0  0  0  0
  143.3504  136.1278  188.0675 C   0  0  0  0  0  0  0  0  0  0  0  0
  142.2593  136.4926  189.0300 N   0  0  0  0  0  0  0  0  0  0  0  0
  141.1241  135.5425  189.2719 H   0  0  0  0  0  0  0  0  0  0  0  0
  142.3035  137.8075  189.7505 C   0  0  0  0  0  0  0  0  0  0  0  0
  141.1871  138.1941  190.6747 N   0  0  0  0  0  0  0  0  0  0  0  0
  143.4640  138.7357  189.5469 N   0  0  0  0  0  0  0  0  0  0  0  0
  141.2312  139.5089  191.3952 H   0  0  0  0  0  0  0  0  0  0  0  0
  140.0265  137.2659  190.8784 H   0  0  0  0  0  0  0  0  0  0  0  0
  143.5082  140.0505  190.2674 H   0  0  0  0  0  0  0  0  0  0  0  0
  148.4592  135.1032  181.3901 C   0  0  0  0  0  0  0  0  0  0  0  0
  147.4334  134.8336  180.3294 C   0  0  0  0  0  0  0  0  0  0  0  0
  146.4077  134.5640  179.2687 C   0  0  0  0  0  0  0  0  0  0  0  0
  145.3819  134.2943  178.2080 N   0  0  0  0  0  0  0  0  0  0  0  0
  143.9293  134.5410  178.4895 H   0  0  0  0  0  0  0  0  0  0  0  0
  145.8086  133.7781  176.8659 C   0  0  0  0  0  0  0  0  0  0  0  0
  145.2794  132.4675  176.3636 N   0  0  0  0  0  0  0  0  0  0  0  0
  146.7646  134.5723  176.0261 N   0  0  0  0  0  0  0  0  0  0  0  0
  145.7061  131.9512  175.0215 H   0  0  0  0  0  0  0  0  0  0  0  0
  144.3234  131.6732  177.2034 H   0  0  0  0  0  0  0  0  0  0  0  0
  147.1913  134.0560  174.6840 H   0  0  0  0  0  0  0  0  0  0  0  0
  150.7869  136.7840  186.1362 C   0  0  0  0  0  0  0  0  0  0  0  0
  149.8447  136.2621  187.1801 C   0  0  0  0  0  0  0  0  0  0  0  0
  148.9024  135.7402  188.2240 C   0  0  0  0  0  0  0  0  0  0  0  0
  147.9601  135.2183  189.2679 N   0  0  0  0  0  0  0  0  0  0  0  0
  147.7832  135.9628  190.5581 H   0  0  0  0  0  0  0  0  0  0  0  0
  147.1948  133.9520  189.0217 C   0  0  0  0  0  0  0  0  0  0  0  0
  147.6917  132.9594  188.0128 N   0  0  0  0  0  0  0  0  0  0  0  0
  145.9325  133.6782  189.7844 N   0  0  0  0  0  0  0  0  0  0  0  0
  147.0477  132.0801  187.9256 H   0  0  0  0  0  0  0  0  0  0  0  0
  148.9540  133.2332  187.2501 H   0  0  0  0  0  0  0  0  0  0  0  0
  145.1671  132.4118  189.5382 H   0  0  0  0  0  0  0  0  0  0  0  0
 60 61  1  0  0  0
 61 62  2  0  0  0
 61 63  1  0  0  0
 63 59  1  0  0  0
 59 65  1  0  0  0
 65 66  1  0  0  0
 66 67  1  0  0  0
 67 68  1  0  0  0
 68 70  1  0  0  0
 70 71  1  0  0  0
 70 72  2  0  0  0
 59 55  1  0  0  0
 55 56  2  0  0  0
 55 57  1  0  0  0
 57 54  1  0  0  0
 54 76  1  0  0  0
 76 77  1  0  0  0
 77 78  1  0  0  0
 78 79  1  0  0  0
 79 81  1  0  0  0
 81 82  1  0  0  0
 81 83  2  0  0  0
 54 50  1  0  0  0
 50 51  2  0  0  0
 50 52  1  0  0  0
 52  1  1  0  0  0
  1 87  1  0  0  0
 87 88  1  0  0  0
 88 89  1  0  0  0
 89 90  1  0  0  0
 90 92  1  0  0  0
 92 93  1  0  0  0
 92 94  2  0  0  0
  1  2  1  0  0  0
  2  3  2  0  0  0
  2  4  1  0  0  0
  4  6  1  0  0  0
  6 39  1  0  0  0
 39 40  1  0  0  0
 40 41  1  0  0  0
 41 42  1  0  0  0
 42 44  1  0  0  0
 44 45  1  0  0  0
 44 46  2  0  0  0
  6  7  1  0  0  0
  7  8  2  0  0  0
  7  9  1  0  0  0
  9 11  1  0  0  0
 11 28  1  0  0  0
 28 29  1  0  0  0
 29 30  1  0  0  0
 30 31  1  0  0  0
 31 33  1  0  0  0
 33 34  1  0  0  0
 33 35  2  0  0  0
 11 12  1  0  0  0
 12 13  2  0  0  0
 12 14  1  0  0  0
 14 16  1  0  0  0
 16 21  1  0  0  0
 21 22  1  0  0  0
 22 23  2  0  0  0
 23 24  1  0  0  0
 24 25  2  0  0  0
 25 26  1  0  0  0
 26 27  2  0  0  0
 16 17  1  0  0  0
 17 18  1  0  0  0
 17 19  2  0  0  0
 27 22  1  0  0  0
 63 64  1  0  0  0
 68 69  1  0  0  0
 71 73  1  0  0  0
 71 74  1  0  0  0
 72 75  1  0  0  0
 57 58  1  0  0  0
 79 80  1  0  0  0
 82 84  1  0  0  0
 82 85  1  0  0  0
 83 86  1  0  0  0
 52 53  1  0  0  0
 90 91  1  0  0  0
 93 95  1  0  0  0
 93 96  1  0  0  0
 94 97  1  0  0  0
  4  5  1  0  0  0
 42 43  1  0  0  0
 45 47  1  0  0  0
 45 48  1  0  0  0
 46 49  1  0  0  0
  9 10  1  0  0  0
 31 32  1  0  0  0
 34 36  1  0  0  0
 34 37  1  0  0  0
 35 38  1  0  0  0
 14 15  1  0  0  0
 18 20  1  0  0  0
M  END
> <minimizedAffinity>
-5.31277

> <CNNscore>
0.3777336478

> <CNNaffinity>
8.3232631683

> <CNN_VS>
3.1439764500

> <CNNaffinity_variance>
0.4810785353

$$$$
[H]N=C(N([H])[H])N([H])C([H])([H])C([H])([H])C([H])([H])[C@@]([H])(C(=O)N([H])[C@]([H])(C(=O)O[H])C([H])([H])c1c([H])c([H])c([H])c([H])c1[H])N([H])C(=O)[C@@]([H])(N([H])C(=O)[C@@]([H])(N([H])C(=O)[C@@]([H])(N([H])C(=O)[C@@]([H])(N([H])C(=O)C([H])([H])[H])C([H])([H])C([H])([H])C([H])([H])N([H])C(=N[H])N([H])[H])C([H])([H])C([H])([H])C([H])([H])N([H])C(=N[H])N([H])[H])C([H])([H])C([H])([H])C([H])([H])N([H])C(=N[H])N([H])[H])C([H])([H])C([H])([H])C([H])([H])N([H])C(=N[H])N([H])[H]


 97 97  0  0  0  0  0  0  0  0999 V2000
  152.2845  135.3895  186.0006 C   0  0  0  0  0  0  0  0  0  0  0  0
  151.2516  134.3215  186.2067 C   0  0  0  0  0  0  0  0  0  0  0  0
  151.2233  133.3119  185.0978 O   0  0  0  0  0  0  0  0  0  0  0  0
  150.3822  134.3448  187.4289 N   0  0  0  0  0  0  0  0  0  0  0  0
  150.5457  135.4361  188.4449 H   0  0  0  0  0  0  0  0  0  0  0  0
  149.3493  133.2768  187.6350 C   0  0  0  0  0  0  0  0  0  0  0  0
  150.3668  132.4287  188.3390 C   0  0  0  0  0  0  0  0  0  0  0  0
  150.7502  131.2056  187.5600 O   0  0  0  0  0  0  0  0  0  0  0  0
  150.8887  132.8437  189.6826 N   0  0  0  0  0  0  0  0  0  0  0  0
  150.3932  134.1068  190.3222 H   0  0  0  0  0  0  0  0  0  0  0  0
  151.9061  131.9956  190.3866 C   0  0  0  0  0  0  0  0  0  0  0  0
  150.8126  131.3391  191.1760 C   0  0  0  0  0  0  0  0  0  0  0  0
  150.9674  130.2647  191.3087 O   0  0  0  0  0  0  0  0  0  0  0  0
  149.6641  132.1559  191.6896 N   0  0  0  0  0  0  0  0  0  0  0  0
  149.7674  133.6070  191.3241 H   0  0  0  0  0  0  0  0  0  0  0  0
  148.5706  131.4994  192.4790 C   0  0  0  0  0  0  0  0  0  0  0  0
  147.8943  131.0922  191.2036 C   0  0  0  0  0  0  0  0  0  0  0  0
  147.7154  129.6384  190.8804 O   0  0  0  0  0  0  0  0  0  0  0  0
  147.4904  131.7541  190.4325 O   0  0  0  0  0  0  0  0  0  0  0  0
  147.0391  129.2313  189.6049 H   0  0  0  0  0  0  0  0  0  0  0  0
  149.2469  131.9065  193.7545 C   0  0  0  0  0  0  0  0  0  0  0  0
  149.9233  132.3136  195.0300 C   0  0  0  0  0  0  0  0  0  0  0  0
  150.3013  133.7478  195.2538 C   0  0  0  0  0  0  0  0  0  0  0  0
  150.9776  134.1550  196.5292 C   0  0  0  0  0  0  0  0  0  0  0  0
  151.2759  133.1279  197.5809 C   0  0  0  0  0  0  0  0  0  0  0  0
  150.8979  131.6937  197.3571 C   0  0  0  0  0  0  0  0  0  0  0  0
  150.2216  131.2866  196.0816 C   0  0  0  0  0  0  0  0  0  0  0  0
  152.9996  132.6521  189.5972 C   0  0  0  0  0  0  0  0  0  0  0  0
  154.0931  133.3087  188.8078 C   0  0  0  0  0  0  0  0  0  0  0  0
  155.1867  133.9652  188.0184 C   0  0  0  0  0  0  0  0  0  0  0  0
  156.2802  134.6218  187.2290 N   0  0  0  0  0  0  0  0  0  0  0  0
  156.2132  134.6454  185.7307 H   0  0  0  0  0  0  0  0  0  0  0  0
  157.4408  135.2547  187.9379 C   0  0  0  0  0  0  0  0  0  0  0  0
  158.8267  134.7181  187.7351 N   0  0  0  0  0  0  0  0  0  0  0  0
  157.2153  136.4242  188.8497 N   0  0  0  0  0  0  0  0  0  0  0  0
  159.8651  135.4664  188.5172 H   0  0  0  0  0  0  0  0  0  0  0  0
  159.0521  133.5485  186.8233 H   0  0  0  0  0  0  0  0  0  0  0  0
  158.3758  137.0572  189.5586 H   0  0  0  0  0  0  0  0  0  0  0  0
  148.3319  134.1249  186.9310 C   0  0  0  0  0  0  0  0  0  0  0  0
  147.3145  134.9730  186.2270 C   0  0  0  0  0  0  0  0  0  0  0  0
  146.2971  135.8211  185.5229 C   0  0  0  0  0  0  0  0  0  0  0  0
  145.2797  136.6691  184.8189 N   0  0  0  0  0  0  0  0  0  0  0  0
  144.9833  136.4350  183.3673 H   0  0  0  0  0  0  0  0  0  0  0  0
  144.5587  137.7514  185.5666 C   0  0  0  0  0  0  0  0  0  0  0  0
  144.2407  139.0495  184.8857 N   0  0  0  0  0  0  0  0  0  0  0  0
  144.1557  137.5354  186.9953 N   0  0  0  0  0  0  0  0  0  0  0  0
  143.5192  140.0171  185.7763 H   0  0  0  0  0  0  0  0  0  0  0  0
  144.6437  139.2655  183.4571 H   0  0  0  0  0  0  0  0  0  0  0  0
  143.4348  138.6176  187.7430 H   0  0  0  0  0  0  0  0  0  0  0  0
  150.5186  136.5834  184.5153 C   0  0  0  0  0  0  0  0  0  0  0  0
  149.9801  137.0841  185.3248 O   0  0  0  0  0  0  0  0  0  0  0  0
  151.7110  135.6828  184.6459 N   0  0  0  0  0  0  0  0  0  0  0  0
  152.3299  135.0754  183.4220 H   0  0  0  0  0  0  0  0  0  0  0  0
  149.9450  136.8766  183.1606 C   0  0  0  0  0  0  0  0  0  0  0  0
  152.1729  138.0586  182.5367 C   0  0  0  0  0  0  0  0  0  0  0  0
  152.6971  137.1709  182.1718 O   0  0  0  0  0  0  0  0  0  0  0  0
  150.7758  138.1229  183.0787 N   0  0  0  0  0  0  0  0  0  0  0  0
  150.2093  139.4335  183.5387 H   0  0  0  0  0  0  0  0  0  0  0  0
  153.0037  139.3048  182.4548 C   0  0  0  0  0  0  0  0  0  0  0  0
  150.9421  140.3726  179.2362 C   0  0  0  0  0  0  0  0  0  0  0  0
  151.9862  139.7336  180.1030 C   0  0  0  0  0  0  0  0  0  0  0  0
  152.7088  139.1411  179.5351 O   0  0  0  0  0  0  0  0  0  0  0  0
  151.9596  139.9438  181.5879 N   0  0  0  0  0  0  0  0  0  0  0  0
  150.8887  140.7932  182.2061 H   0  0  0  0  0  0  0  0  0  0  0  0
  153.8345  140.5511  182.3728 C   0  0  0  0  0  0  0  0  0  0  0  0
  154.6652  141.7973  182.2909 C   0  0  0  0  0  0  0  0  0  0  0  0
  155.4960  143.0435  182.2089 C   0  0  0  0  0  0  0  0  0  0  0  0
  156.3268  144.2898  182.1270 N   0  0  0  0  0  0  0  0  0  0  0  0
  155.7082  145.6242  182.4213 H   0  0  0  0  0  0  0  0  0  0  0  0
  157.7762  144.2016  181.7507 C   0  0  0  0  0  0  0  0  0  0  0  0
  158.8103  144.9042  182.5794 N   0  0  0  0  0  0  0  0  0  0  0  0
  158.1913  143.4107  180.5456 N   0  0  0  0  0  0  0  0  0  0  0  0
  160.2596  144.8159  182.2031 H   0  0  0  0  0  0  0  0  0  0  0  0
  158.3951  145.6950  183.7845 H   0  0  0  0  0  0  0  0  0  0  0  0
  159.6407  143.3225  180.1693 H   0  0  0  0  0  0  0  0  0  0  0  0
  149.3715  137.1699  181.8060 C   0  0  0  0  0  0  0  0  0  0  0  0
  148.7980  137.4631  180.4513 C   0  0  0  0  0  0  0  0  0  0  0  0
  148.2244  137.7563  179.0967 C   0  0  0  0  0  0  0  0  0  0  0  0
  147.6509  138.0496  177.7421 N   0  0  0  0  0  0  0  0  0  0  0  0
  148.3843  138.9547  176.7970 H   0  0  0  0  0  0  0  0  0  0  0  0
  146.3441  137.4378  177.3324 C   0  0  0  0  0  0  0  0  0  0  0  0
  145.5869  136.5717  178.2951 N   0  0  0  0  0  0  0  0  0  0  0  0
  145.7943  137.6920  175.9602 N   0  0  0  0  0  0  0  0  0  0  0  0
  144.2801  135.9599  177.8855 H   0  0  0  0  0  0  0  0  0  0  0  0
  146.1367  136.3174  179.6674 H   0  0  0  0  0  0  0  0  0  0  0  0
  144.4874  137.0802  175.5506 H   0  0  0  0  0  0  0  0  0  0  0  0
  153.3174  136.4575  185.7944 C   0  0  0  0  0  0  0  0  0  0  0  0
  154.3503  137.5255  185.5883 C   0  0  0  0  0  0  0  0  0  0  0  0
  155.3832  138.5935  185.3822 C   0  0  0  0  0  0  0  0  0  0  0  0
  156.4161  139.6615  185.1761 N   0  0  0  0  0  0  0  0  0  0  0  0
  156.4496  140.8572  186.0813 H   0  0  0  0  0  0  0  0  0  0  0  0
  157.4155  139.5339  184.0649 C   0  0  0  0  0  0  0  0  0  0  0  0
  158.8836  139.5320  184.3730 N   0  0  0  0  0  0  0  0  0  0  0  0
  156.9469  139.4082  182.6455 N   0  0  0  0  0  0  0  0  0  0  0  0
  159.5073  139.4334  183.4803 H   0  0  0  0  0  0  0  0  0  0  0  0
  159.3522  139.6578  185.7923 H   0  0  0  0  0  0  0  0  0  0  0  0
  157.9464  139.2806  181.5342 H   0  0  0  0  0  0  0  0  0  0  0  0
 60 61  1  0  0  0
 61 62  2  0  0  0
 61 63  1  0  0  0
 63 59  1  0  0  0
 59 65  1  0  0  0
 65 66  1  0  0  0
 66 67  1  0  0  0
 67 68  1  0  0  0
 68 70  1  0  0  0
 70 71  1  0  0  0
 70 72  2  0  0  0
 59 55  1  0  0  0
 55 56  2  0  0  0
 55 57  1  0  0  0
 57 54  1  0  0  0
 54 76  1  0  0  0
 76 77  1  0  0  0
 77 78  1  0  0  0
 78 79  1  0  0  0
 79 81  1  0  0  0
 81 82  1  0  0  0
 81 83  2  0  0  0
 54 50  1  0  0  0
 50 51  2  0  0  0
 50 52  1  0  0  0
 52  1  1  0  0  0
  1 87  1  0  0  0
 87 88  1  0  0  0
 88 89  1  0  0  0
 89 90  1  0  0  0
 90 92  1  0  0  0
 92 93  1  0  0  0
 92 94  2  0  0  0
  1  2  1  0  0  0
  2  3  2  0  0  0
  2  4  1  0  0  0
  4  6  1  0  0  0
  6 39  1  0  0  0
 39 40  1  0  0  0
 40 41  1  0  0  0
 41 42  1  0  0  0
 42 44  1  0  0  0
 44 45  1  0  0  0
 44 46  2  0  0  0
  6  7  1  0  0  0
  7  8  2  0  0  0
  7  9  1  0  0  0
  9 11  1  0  0  0
 11 28  1  0  0  0
 28 29  1  0  0  0
 29 30  1  0  0  0
 30 31  1  0  0  0
 31 33  1  0  0  0
 33 34  1  0  0  0
 33 35  2  0  0  0
 11 12  1  0  0  0
 12 13  2  0  0  0
 12 14  1  0  0  0
 14 16  1  0  0  0
 16 21  1  0  0  0
 21 22  1  0  0  0
 22 23  2  0  0  0
 23 24  1  0  0  0
 24 25  2  0  0  0
 25 26  1  0  0  0
 26 27  2  0  0  0
 16 17  1  0  0  0
 17 18  1  0  0  0
 17 19  2  0  0  0
 27 22  1  0  0  0
 63 64  1  0  0  0
 68 69  1  0  0  0
 71 73  1  0  0  0
 71 74  1  0  0  0
 72 75  1  0  0  0
 57 58  1  0  0  0
 79 80  1  0  0  0
 82 84  1  0  0  0
 82 85  1  0  0  0
 83 86  1  0  0  0
 52 53  1  0  0  0
 90 91  1  0  0  0
 93 95  1  0  0  0
 93 96  1  0  0  0
 94 97  1  0  0  0
  4  5  1  0  0  0
 42 43  1  0  0  0
 45 47  1  0  0  0
 45 48  1  0  0  0
 46 49  1  0  0  0
  9 10  1  0  0  0
 31 32  1  0  0  0
 34 36  1  0  0  0
 34 37  1  0  0  0
 35 38  1  0  0  0
 14 15  1  0  0  0
 18 20  1  0  0  0
M  END
> <minimizedAffinity>
-4.27791

> <CNNscore>
0.3668524623

> <CNNaffinity>
8.1693172455

> <CNN_VS>
2.9969341755

> <CNNaffinity_variance>
0.7362326384

$$$$
[H]N=C(N([H])[H])N([H])C([H])([H])C([H])([H])C([H])([H])[C@@]([H])(C(=O)N([H])[C@]([H])(C(=O)O[H])C([H])([H])c1c([H])c([H])c([H])c([H])c1[H])N([H])C(=O)[C@@]([H])(N([H])C(=O)[C@@]([H])(N([H])C(=O)[C@@]([H])(N([H])C(=O)[C@@]([H])(N([H])C(=O)C([H])([H])[H])C([H])([H])C([H])([H])C([H])([H])N([H])C(=N[H])N([H])[H])C([H])([H])C([H])([H])C([H])([H])N([H])C(=N[H])N([H])[H])C([H])([H])C([H])([H])C([H])([H])N([H])C(=N[H])N([H])[H])C([H])([H])C([H])([H])C([H])([H])N([H])C(=N[H])N([H])[H]


 97 97  0  0  0  0  0  0  0  0999 V2000
  149.6564  136.2930  186.1118 C   0  0  0  0  0  0  0  0  0  0  0  0
  148.5032  136.0436  185.1856 C   0  0  0  0  0  0  0  0  0  0  0  0
  148.2870  134.5874  184.8980 O   0  0  0  0  0  0  0  0  0  0  0  0
  147.7061  137.1972  184.6527 N   0  0  0  0  0  0  0  0  0  0  0  0
  148.0623  138.6002  185.0460 H   0  0  0  0  0  0  0  0  0  0  0  0
  146.5529  136.9477  183.7265 C   0  0  0  0  0  0  0  0  0  0  0  0
  147.4901  136.9628  182.5555 C   0  0  0  0  0  0  0  0  0  0  0  0
  147.6476  135.6162  181.9135 O   0  0  0  0  0  0  0  0  0  0  0  0
  148.1551  138.2426  182.1434 N   0  0  0  0  0  0  0  0  0  0  0  0
  147.8828  139.5074  182.9025 H   0  0  0  0  0  0  0  0  0  0  0  0
  149.0923  138.2577  180.9724 C   0  0  0  0  0  0  0  0  0  0  0  0
  147.9363  138.5098  180.0504 C   0  0  0  0  0  0  0  0  0  0  0  0
  147.4747  139.4894  180.2020 O   0  0  0  0  0  0  0  0  0  0  0  0
  147.5291  137.4642  179.0550 N   0  0  0  0  0  0  0  0  0  0  0  0
  148.3823  136.2321  179.1171 H   0  0  0  0  0  0  0  0  0  0  0  0
  146.3730  137.7162  178.1330 C   0  0  0  0  0  0  0  0  0  0  0  0
  147.3266  137.9213  176.9934 C   0  0  0  0  0  0  0  0  0  0  0  0
  146.9836  137.4074  175.6266 O   0  0  0  0  0  0  0  0  0  0  0  0
  148.2962  138.4258  177.0293 O   0  0  0  0  0  0  0  0  0  0  0  0
  147.9371  137.6125  174.4871 H   0  0  0  0  0  0  0  0  0  0  0  0
  145.4195  137.5112  179.2726 C   0  0  0  0  0  0  0  0  0  0  0  0
  144.4659  137.3061  180.4121 C   0  0  0  0  0  0  0  0  0  0  0  0
  144.3333  135.9525  181.0448 C   0  0  0  0  0  0  0  0  0  0  0  0
  143.3797  135.7474  182.1843 C   0  0  0  0  0  0  0  0  0  0  0  0
  142.5587  136.8959  182.6913 C   0  0  0  0  0  0  0  0  0  0  0  0
  142.6913  138.2494  182.0586 C   0  0  0  0  0  0  0  0  0  0  0  0
  143.6449  138.4545  180.9190 C   0  0  0  0  0  0  0  0  0  0  0  0
  150.2484  138.0056  181.8944 C   0  0  0  0  0  0  0  0  0  0  0  0
  151.4044  137.7536  182.8164 C   0  0  0  0  0  0  0  0  0  0  0  0
  152.5604  137.5015  183.7384 C   0  0  0  0  0  0  0  0  0  0  0  0
  153.7165  137.2495  184.6604 N   0  0  0  0  0  0  0  0  0  0  0  0
  154.0347  135.8509  185.0992 H   0  0  0  0  0  0  0  0  0  0  0  0
  154.5543  138.3961  185.1435 C   0  0  0  0  0  0  0  0  0  0  0  0
  154.5002  139.7161  184.4332 N   0  0  0  0  0  0  0  0  0  0  0  0
  155.4461  138.2226  186.3371 N   0  0  0  0  0  0  0  0  0  0  0  0
  155.3984  140.7490  185.0468 H   0  0  0  0  0  0  0  0  0  0  0  0
  153.6084  139.8895  183.2396 H   0  0  0  0  0  0  0  0  0  0  0  0
  156.2839  139.3692  186.8203 H   0  0  0  0  0  0  0  0  0  0  0  0
  145.6156  136.9326  184.8975 C   0  0  0  0  0  0  0  0  0  0  0  0
  144.6784  136.9175  186.0686 C   0  0  0  0  0  0  0  0  0  0  0  0
  143.7411  136.9025  187.2396 C   0  0  0  0  0  0  0  0  0  0  0  0
  142.8039  136.8874  188.4106 N   0  0  0  0  0  0  0  0  0  0  0  0
  141.4691  136.2130  188.2944 H   0  0  0  0  0  0  0  0  0  0  0  0
  143.2014  137.5468  189.6980 C   0  0  0  0  0  0  0  0  0  0  0  0
  143.5357  136.7101  190.8972 N   0  0  0  0  0  0  0  0  0  0  0  0
  143.2647  139.0429  189.7860 N   0  0  0  0  0  0  0  0  0  0  0  0
  143.9112  137.5288  192.0967 H   0  0  0  0  0  0  0  0  0  0  0  0
  143.4724  135.2140  190.8092 H   0  0  0  0  0  0  0  0  0  0  0  0
  143.6622  139.7023  191.0733 H   0  0  0  0  0  0  0  0  0  0  0  0
  148.0602  135.8532  188.1140 C   0  0  0  0  0  0  0  0  0  0  0  0
  147.6910  136.8773  188.2176 O   0  0  0  0  0  0  0  0  0  0  0  0
  149.0569  135.3499  187.1123 N   0  0  0  0  0  0  0  0  0  0  0  0
  149.4541  133.9034  187.1111 H   0  0  0  0  0  0  0  0  0  0  0  0
  147.4607  134.9100  189.1145 C   0  0  0  0  0  0  0  0  0  0  0  0
  149.7307  134.8722  190.3777 C   0  0  0  0  0  0  0  0  0  0  0  0
  149.5373  135.7322  191.0249 O   0  0  0  0  0  0  0  0  0  0  0  0
  148.8098  134.2956  189.3436 N   0  0  0  0  0  0  0  0  0  0  0  0
  149.2380  133.1044  188.5387 H   0  0  0  0  0  0  0  0  0  0  0  0
  151.0798  134.2578  190.6068 C   0  0  0  0  0  0  0  0  0  0  0  0
  149.6003  132.1973  193.6590 C   0  0  0  0  0  0  0  0  0  0  0  0
  150.0065  132.5687  192.2636 C   0  0  0  0  0  0  0  0  0  0  0  0
  149.7625  131.7972  191.5280 O   0  0  0  0  0  0  0  0  0  0  0  0
  150.6736  133.8865  192.0022 N   0  0  0  0  0  0  0  0  0  0  0  0
  150.9347  134.8329  193.1364 H   0  0  0  0  0  0  0  0  0  0  0  0
  152.4289  133.6434  190.8360 C   0  0  0  0  0  0  0  0  0  0  0  0
  153.7779  133.0290  191.0651 C   0  0  0  0  0  0  0  0  0  0  0  0
  155.1270  132.4146  191.2943 C   0  0  0  0  0  0  0  0  0  0  0  0
  156.4761  131.8002  191.5234 N   0  0  0  0  0  0  0  0  0  0  0  0
  156.5838  130.3732  191.9730 H   0  0  0  0  0  0  0  0  0  0  0  0
  157.7175  132.6128  191.3030 C   0  0  0  0  0  0  0  0  0  0  0  0
  158.9883  131.9401  190.8758 N   0  0  0  0  0  0  0  0  0  0  0  0
  157.6881  134.0982  191.5097 N   0  0  0  0  0  0  0  0  0  0  0  0
  160.2296  132.7527  190.6554 H   0  0  0  0  0  0  0  0  0  0  0  0
  159.0177  130.4547  190.6690 H   0  0  0  0  0  0  0  0  0  0  0  0
  158.9295  134.9108  191.2893 H   0  0  0  0  0  0  0  0  0  0  0  0
  146.8612  133.9668  190.1150 C   0  0  0  0  0  0  0  0  0  0  0  0
  146.2617  133.0236  191.1155 C   0  0  0  0  0  0  0  0  0  0  0  0
  145.6622  132.0804  192.1160 C   0  0  0  0  0  0  0  0  0  0  0  0
  145.0628  131.1372  193.1165 N   0  0  0  0  0  0  0  0  0  0  0  0
  145.5113  129.7065  193.1608 H   0  0  0  0  0  0  0  0  0  0  0  0
  144.0148  131.6247  194.0725 C   0  0  0  0  0  0  0  0  0  0  0  0
  143.6978  133.0885  194.1554 N   0  0  0  0  0  0  0  0  0  0  0  0
  143.2838  130.6484  194.9457 N   0  0  0  0  0  0  0  0  0  0  0  0
  142.6499  133.5760  195.1115 H   0  0  0  0  0  0  0  0  0  0  0  0
  144.4288  134.0648  193.2822 H   0  0  0  0  0  0  0  0  0  0  0  0
  142.2358  131.1360  195.9019 H   0  0  0  0  0  0  0  0  0  0  0  0
  150.8096  136.5425  187.0380 C   0  0  0  0  0  0  0  0  0  0  0  0
  151.9628  136.7920  187.9642 C   0  0  0  0  0  0  0  0  0  0  0  0
  153.1160  137.0415  188.8904 C   0  0  0  0  0  0  0  0  0  0  0  0
  154.2693  137.2910  189.8166 N   0  0  0  0  0  0  0  0  0  0  0  0
  155.4915  138.0031  189.3175 H   0  0  0  0  0  0  0  0  0  0  0  0
  154.2002  136.8284  191.2418 C   0  0  0  0  0  0  0  0  0  0  0  0
  155.3763  136.1348  191.8630 N   0  0  0  0  0  0  0  0  0  0  0  0
  152.9552  137.0593  192.0458 N   0  0  0  0  0  0  0  0  0  0  0  0
  155.2021  135.8475  192.9035 H   0  0  0  0  0  0  0  0  0  0  0  0
  156.6214  135.9038  191.0589 H   0  0  0  0  0  0  0  0  0  0  0  0
  152.8862  136.5967  193.4711 H   0  0  0  0  0  0  0  0  0  0  0  0
 60 61  1  0  0  0
 61 62  2  0  0  0
 61 63  1  0  0  0
 63 59  1  0  0  0
 59 65  1  0  0  0
 65 66  1  0  0  0
 66 67  1  0  0  0
 67 68  1  0  0  0
 68 70  1  0  0  0
 70 71  1  0  0  0
 70 72  2  0  0  0
 59 55  1  0  0  0
 55 56  2  0  0  0
 55 57  1  0  0  0
 57 54  1  0  0  0
 54 76  1  0  0  0
 76 77  1  0  0  0
 77 78  1  0  0  0
 78 79  1  0  0  0
 79 81  1  0  0  0
 81 82  1  0  0  0
 81 83  2  0  0  0
 54 50  1  0  0  0
 50 51  2  0  0  0
 50 52  1  0  0  0
 52  1  1  0  0  0
  1 87  1  0  0  0
 87 88  1  0  0  0
 88 89  1  0  0  0
 89 90  1  0  0  0
 90 92  1  0  0  0
 92 93  1  0  0  0
 92 94  2  0  0  0
  1  2  1  0  0  0
  2  3  2  0  0  0
  2  4  1  0  0  0
  4  6  1  0  0  0
  6 39  1  0  0  0
 39 40  1  0  0  0
 40 41  1  0  0  0
 41 42  1  0  0  0
 42 44  1  0  0  0
 44 45  1  0  0  0
 44 46  2  0  0  0
  6  7  1  0  0  0
  7  8  2  0  0  0
  7  9  1  0  0  0
  9 11  1  0  0  0
 11 28  1  0  0  0
 28 29  1  0  0  0
 29 30  1  0  0  0
 30 31  1  0  0  0
 31 33  1  0  0  0
 33 34  1  0  0  0
 33 35  2  0  0  0
 11 12  1  0  0  0
 12 13  2  0  0  0
 12 14  1  0  0  0
 14 16  1  0  0  0
 16 21  1  0  0  0
 21 22  1  0  0  0
 22 23  2  0  0  0
 23 24  1  0  0  0
 24 25  2  0  0  0
 25 26  1  0  0  0
 26 27  2  0  0  0
 16 17  1  0  0  0
 17 18  1  0  0  0
 17 19  2  0  0  0
 27 22  1  0  0  0
 63 64  1  0  0  0
 68 69  1  0  0  0
 71 73  1  0  0  0
 71 74  1  0  0  0
 72 75  1  0  0  0
 57 58  1  0  0  0
 79 80  1  0  0  0
 82 84  1  0  0  0
 82 85  1  0  0  0
 83 86  1  0  0  0
 52 53  1  0  0  0
 90 91  1  0  0  0
 93 95  1  0  0  0
 93 96  1  0  0  0
 94 97  1  0  0  0
  4  5  1  0  0  0
 42 43  1  0  0  0
 45 47  1  0  0  0
 45 48  1  0  0  0
 46 49  1  0  0  0
  9 10  1  0  0  0
 31 32  1  0  0  0
 34 36  1  0  0  0
 34 37  1  0  0  0
 35 38  1  0  0  0
 14 15  1  0  0  0
 18 20  1  0  0  0
M  END
> <minimizedAffinity>
-4.20329

> <CNNscore>
0.3532202542

> <CNNaffinity>
8.0797719955

> <CNN_VS>
2.8539390564

> <CNNaffinity_variance>
0.2216096371

$$$$
[H]N=C(N([H])[H])N([H])C([H])([H])C([H])([H])C([H])([H])[C@@]([H])(C(=O)N([H])[C@]([H])(C(=O)O[H])C([H])([H])c1c([H])c([H])c([H])c([H])c1[H])N([H])C(=O)[C@@]([H])(N([H])C(=O)[C@@]([H])(N([H])C(=O)[C@@]([H])(N([H])C(=O)[C@@]([H])(N([H])C(=O)C([H])([H])[H])C([H])([H])C([H])([H])C([H])([H])N([H])C(=N[H])N([H])[H])C([H])([H])C([H])([H])C([H])([H])N([H])C(=N[H])N([H])[H])C([H])([H])C([H])([H])C([H])([H])N([H])C(=N[H])N([H])[H])C([H])([H])C([H])([H])C([H])([H])N([H])C(=N[H])N([H])[H]


 97 97  0  0  0  0  0  0  0  0999 V2000
  150.4096  134.4025  188.8000 C   0  0  0  0  0  0  0  0  0  0  0  0
  149.0418  134.9735  189.0305 C   0  0  0  0  0  0  0  0  0  0  0  0
  149.0069  135.9806  190.1415 O   0  0  0  0  0  0  0  0  0  0  0  0
  147.8880  134.5213  188.1852 N   0  0  0  0  0  0  0  0  0  0  0  0
  148.1021  133.4982  187.1095 H   0  0  0  0  0  0  0  0  0  0  0  0
  146.5203  135.0924  188.4158 C   0  0  0  0  0  0  0  0  0  0  0  0
  146.8753  136.2824  187.5746 C   0  0  0  0  0  0  0  0  0  0  0  0
  146.8536  137.5706  188.3428 O   0  0  0  0  0  0  0  0  0  0  0  0
  147.2039  136.1030  186.1221 N   0  0  0  0  0  0  0  0  0  0  0  0
  147.1773  134.7336  185.5107 H   0  0  0  0  0  0  0  0  0  0  0  0
  147.5589  137.2931  185.2809 C   0  0  0  0  0  0  0  0  0  0  0  0
  146.1027  137.5491  185.0283 C   0  0  0  0  0  0  0  0  0  0  0  0
  145.8037  138.5760  185.2559 O   0  0  0  0  0  0  0  0  0  0  0  0
  145.2252  136.4460  184.5155 N   0  0  0  0  0  0  0  0  0  0  0  0
  145.9639  135.1566  184.3111 H   0  0  0  0  0  0  0  0  0  0  0  0
  143.7689  136.7020  184.2630 C   0  0  0  0  0  0  0  0  0  0  0  0
  144.0728  137.0148  182.8278 C   0  0  0  0  0  0  0  0  0  0  0  0
  143.9623  138.4247  182.3279 O   0  0  0  0  0  0  0  0  0  0  0  0
  144.3825  136.3094  182.0518 O   0  0  0  0  0  0  0  0  0  0  0  0
  144.2662  138.7376  180.8927 H   0  0  0  0  0  0  0  0  0  0  0  0
  143.4650  136.3891  185.6982 C   0  0  0  0  0  0  0  0  0  0  0  0
  143.1611  136.0762  187.1334 C   0  0  0  0  0  0  0  0  0  0  0  0
  142.8205  134.6729  187.5392 C   0  0  0  0  0  0  0  0  0  0  0  0
  142.5166  134.3601  188.9744 C   0  0  0  0  0  0  0  0  0  0  0  0
  142.5534  135.4505  190.0038 C   0  0  0  0  0  0  0  0  0  0  0  0
  142.8940  136.8538  189.5979 C   0  0  0  0  0  0  0  0  0  0  0  0
  143.1979  137.1666  188.1628 C   0  0  0  0  0  0  0  0  0  0  0  0
  149.0152  137.0371  185.5334 C   0  0  0  0  0  0  0  0  0  0  0  0
  150.4715  136.7812  185.7859 C   0  0  0  0  0  0  0  0  0  0  0  0
  151.9277  136.5252  186.0385 C   0  0  0  0  0  0  0  0  0  0  0  0
  153.3840  136.2692  186.2910 N   0  0  0  0  0  0  0  0  0  0  0  0
  154.1162  135.2407  185.4811 H   0  0  0  0  0  0  0  0  0  0  0  0
  154.1081  137.0418  187.3535 C   0  0  0  0  0  0  0  0  0  0  0  0
  153.4402  137.3156  188.6684 N   0  0  0  0  0  0  0  0  0  0  0  0
  155.5000  137.5406  187.1010 N   0  0  0  0  0  0  0  0  0  0  0  0
  154.3039  138.0983  189.6126 H   0  0  0  0  0  0  0  0  0  0  0  0
  152.0483  136.8168  188.9209 H   0  0  0  0  0  0  0  0  0  0  0  0
  156.2241  138.3132  188.1635 H   0  0  0  0  0  0  0  0  0  0  0  0
  146.1652  133.9023  189.2570 C   0  0  0  0  0  0  0  0  0  0  0  0
  145.8101  132.7122  190.0982 C   0  0  0  0  0  0  0  0  0  0  0  0
  145.4550  131.5221  190.9394 C   0  0  0  0  0  0  0  0  0  0  0  0
  145.1000  130.3320  191.7806 N   0  0  0  0  0  0  0  0  0  0  0  0
  143.9659  129.4382  191.3747 H   0  0  0  0  0  0  0  0  0  0  0  0
  145.8791  130.0358  193.0277 C   0  0  0  0  0  0  0  0  0  0  0  0
  145.2432  129.2598  194.1428 N   0  0  0  0  0  0  0  0  0  0  0  0
  147.2941  130.5157  193.1598 N   0  0  0  0  0  0  0  0  0  0  0  0
  146.1608  129.0542  195.3114 H   0  0  0  0  0  0  0  0  0  0  0  0
  143.8281  128.7800  194.0107 H   0  0  0  0  0  0  0  0  0  0  0  0
  148.0732  130.2195  194.4068 H   0  0  0  0  0  0  0  0  0  0  0  0
  150.7161  133.7908  191.3064 C   0  0  0  0  0  0  0  0  0  0  0  0
  150.3785  132.7533  191.2327 O   0  0  0  0  0  0  0  0  0  0  0  0
  150.8069  134.7919  190.1930 N   0  0  0  0  0  0  0  0  0  0  0  0
  151.2951  136.1824  190.4727 H   0  0  0  0  0  0  0  0  0  0  0  0
  151.1134  134.1802  192.6994 C   0  0  0  0  0  0  0  0  0  0  0  0
  153.5531  134.4099  191.8362 C   0  0  0  0  0  0  0  0  0  0  0  0
  153.4750  135.4441  191.4896 O   0  0  0  0  0  0  0  0  0  0  0  0
  152.4737  133.5886  192.4768 N   0  0  0  0  0  0  0  0  0  0  0  0
  152.7546  132.1756  192.8947 H   0  0  0  0  0  0  0  0  0  0  0  0
  154.9134  133.8183  191.6136 C   0  0  0  0  0  0  0  0  0  0  0  0
  156.6102  137.2607  190.6032 C   0  0  0  0  0  0  0  0  0  0  0  0
  156.2175  136.0558  191.4056 C   0  0  0  0  0  0  0  0  0  0  0  0
  156.6597  136.0458  192.4057 O   0  0  0  0  0  0  0  0  0  0  0  0
  155.3061  135.0233  190.8112 N   0  0  0  0  0  0  0  0  0  0  0  0
  154.7874  135.1957  189.4142 H   0  0  0  0  0  0  0  0  0  0  0  0
  156.2737  133.2267  191.3909 C   0  0  0  0  0  0  0  0  0  0  0  0
  157.6340  132.6351  191.1683 C   0  0  0  0  0  0  0  0  0  0  0  0
  158.9943  132.0435  190.9456 C   0  0  0  0  0  0  0  0  0  0  0  0
  160.3546  131.4520  190.7230 N   0  0  0  0  0  0  0  0  0  0  0  0
  161.4579  131.7180  191.7038 H   0  0  0  0  0  0  0  0  0  0  0  0
  160.6117  130.5943  189.5194 C   0  0  0  0  0  0  0  0  0  0  0  0
  161.3560  129.3003  189.6657 N   0  0  0  0  0  0  0  0  0  0  0  0
  160.1243  131.0307  188.1696 N   0  0  0  0  0  0  0  0  0  0  0  0
  161.6131  128.4427  188.4622 H   0  0  0  0  0  0  0  0  0  0  0  0
  161.8434  128.8639  191.0155 H   0  0  0  0  0  0  0  0  0  0  0  0
  160.3813  130.1731  186.9661 H   0  0  0  0  0  0  0  0  0  0  0  0
  151.5108  134.5697  194.0924 C   0  0  0  0  0  0  0  0  0  0  0  0
  151.9082  134.9591  195.4854 C   0  0  0  0  0  0  0  0  0  0  0  0
  152.3055  135.3485  196.8784 C   0  0  0  0  0  0  0  0  0  0  0  0
  152.7029  135.7380  198.2715 N   0  0  0  0  0  0  0  0  0  0  0  0
  152.8498  137.1866  198.6322 H   0  0  0  0  0  0  0  0  0  0  0  0
  152.9534  134.6789  199.3037 C   0  0  0  0  0  0  0  0  0  0  0  0
  154.3288  134.4984  199.8747 N   0  0  0  0  0  0  0  0  0  0  0  0
  151.8286  133.8002  199.7650 N   0  0  0  0  0  0  0  0  0  0  0  0
  154.5792  133.4393  200.9069 H   0  0  0  0  0  0  0  0  0  0  0  0
  155.4535  135.3770  199.4134 H   0  0  0  0  0  0  0  0  0  0  0  0
  152.0792  132.7411  200.7973 H   0  0  0  0  0  0  0  0  0  0  0  0
  151.7773  133.8314  188.5695 C   0  0  0  0  0  0  0  0  0  0  0  0
  153.1451  133.2604  188.3390 C   0  0  0  0  0  0  0  0  0  0  0  0
  154.5129  132.6894  188.1084 C   0  0  0  0  0  0  0  0  0  0  0  0
  155.8806  132.1183  187.8779 N   0  0  0  0  0  0  0  0  0  0  0  0
  156.2835  130.8407  188.5527 H   0  0  0  0  0  0  0  0  0  0  0  0
  156.8456  132.8249  186.9726 C   0  0  0  0  0  0  0  0  0  0  0  0
  158.1493  133.3314  187.5147 N   0  0  0  0  0  0  0  0  0  0  0  0
  156.5068  133.0251  185.5251 N   0  0  0  0  0  0  0  0  0  0  0  0
  158.7632  133.8269  186.7576 H   0  0  0  0  0  0  0  0  0  0  0  0
  158.4880  133.1312  188.9622 H   0  0  0  0  0  0  0  0  0  0  0  0
  157.4718  133.7317  184.6198 H   0  0  0  0  0  0  0  0  0  0  0  0
 60 61  1  0  0  0
 61 62  2  0  0  0
 61 63  1  0  0  0
 63 59  1  0  0  0
 59 65  1  0  0  0
 65 66  1  0  0  0
 66 67  1  0  0  0
 67 68  1  0  0  0
 68 70  1  0  0  0
 70 71  1  0  0  0
 70 72  2  0  0  0
 59 55  1  0  0  0
 55 56  2  0  0  0
 55 57  1  0  0  0
 57 54  1  0  0  0
 54 76  1  0  0  0
 76 77  1  0  0  0
 77 78  1  0  0  0
 78 79  1  0  0  0
 79 81  1  0  0  0
 81 82  1  0  0  0
 81 83  2  0  0  0
 54 50  1  0  0  0
 50 51  2  0  0  0
 50 52  1  0  0  0
 52  1  1  0  0  0
  1 87  1  0  0  0
 87 88  1  0  0  0
 88 89  1  0  0  0
 89 90  1  0  0  0
 90 92  1  0  0  0
 92 93  1  0  0  0
 92 94  2  0  0  0
  1  2  1  0  0  0
  2  3  2  0  0  0
  2  4  1  0  0  0
  4  6  1  0  0  0
  6 39  1  0  0  0
 39 40  1  0  0  0
 40 41  1  0  0  0
 41 42  1  0  0  0
 42 44  1  0  0  0
 44 45  1  0  0  0
 44 46  2  0  0  0
  6  7  1  0  0  0
  7  8  2  0  0  0
  7  9  1  0  0  0
  9 11  1  0  0  0
 11 28  1  0  0  0
 28 29  1  0  0  0
 29 30  1  0  0  0
 30 31  1  0  0  0
 31 33  1  0  0  0
 33 34  1  0  0  0
 33 35  2  0  0  0
 11 12  1  0  0  0
 12 13  2  0  0  0
 12 14  1  0  0  0
 14 16  1  0  0  0
 16 21  1  0  0  0
 21 22  1  0  0  0
 22 23  2  0  0  0
 23 24  1  0  0  0
 24 25  2  0  0  0
 25 26  1  0  0  0
 26 27  2  0  0  0
 16 17  1  0  0  0
 17 18  1  0  0  0
 17 19  2  0  0  0
 27 22  1  0  0  0
 63 64  1  0  0  0
 68 69  1  0  0  0
 71 73  1  0  0  0
 71 74  1  0  0  0
 72 75  1  0  0  0
 57 58  1  0  0  0
 79 80  1  0  0  0
 82 84  1  0  0  0
 82 85  1  0  0  0
 83 86  1  0  0  0
 52 53  1  0  0  0
 90 91  1  0  0  0
 93 95  1  0  0  0
 93 96  1  0  0  0
 94 97  1  0  0  0
  4  5  1  0  0  0
 42 43  1  0  0  0
 45 47  1  0  0  0
 45 48  1  0  0  0
 46 49  1  0  0  0
  9 10  1  0  0  0
 31 32  1  0  0  0
 34 36  1  0  0  0
 34 37  1  0  0  0
 35 38  1  0  0  0
 14 15  1  0  0  0
 18 20  1  0  0  0
M  END
> <minimizedAffinity>
-4.15468

> <CNNscore>
0.3522910774

> <CNNaffinity>
7.8109560013

> <CNN_VS>
2.7517302036

> <CNNaffinity_variance>
0.2748623490

$$$$
[H]N=C(N([H])[H])N([H])C([H])([H])C([H])([H])C([H])([H])[C@@]([H])(C(=O)N([H])[C@]([H])(C(=O)O[H])C([H])([H])c1c([H])c([H])c([H])c([H])c1[H])N([H])C(=O)[C@@]([H])(N([H])C(=O)[C@@]([H])(N([H])C(=O)[C@@]([H])(N([H])C(=O)[C@@]([H])(N([H])C(=O)C([H])([H])[H])C([H])([H])C([H])([H])C([H])([H])N([H])C(=N[H])N([H])[H])C([H])([H])C([H])([H])C([H])([H])N([H])C(=N[H])N([H])[H])C([H])([H])C([H])([H])C([H])([H])N([H])C(=N[H])N([H])[H])C([H])([H])C([H])([H])C([H])([H])N([H])C(=N[H])N([H])[H]


 97 97  0  0  0  0  0  0  0  0999 V2000
  150.8284  133.0701  181.4585 C   0  0  0  0  0  0  0  0  0  0  0  0
  149.4862  133.4830  181.9858 C   0  0  0  0  0  0  0  0  0  0  0  0
  148.4273  132.4424  181.7722 O   0  0  0  0  0  0  0  0  0  0  0  0
  149.3180  134.8203  182.6442 N   0  0  0  0  0  0  0  0  0  0  0  0
  150.4920  135.7447  182.7753 H   0  0  0  0  0  0  0  0  0  0  0  0
  147.9758  135.2332  183.1715 C   0  0  0  0  0  0  0  0  0  0  0  0
  147.6626  135.8901  181.8599 C   0  0  0  0  0  0  0  0  0  0  0  0
  148.7104  136.8749  181.4328 O   0  0  0  0  0  0  0  0  0  0  0  0
  146.4052  135.5336  181.1238 N   0  0  0  0  0  0  0  0  0  0  0  0
  145.4611  134.5201  181.6994 H   0  0  0  0  0  0  0  0  0  0  0  0
  146.0921  136.1906  179.8122 C   0  0  0  0  0  0  0  0  0  0  0  0
  145.4188  137.3178  180.5376 C   0  0  0  0  0  0  0  0  0  0  0  0
  145.8703  138.2913  180.3272 O   0  0  0  0  0  0  0  0  0  0  0  0
  144.2522  137.0394  181.4383 N   0  0  0  0  0  0  0  0  0  0  0  0
  143.8920  135.5845  181.4980 H   0  0  0  0  0  0  0  0  0  0  0  0
  143.5789  138.1666  182.1637 C   0  0  0  0  0  0  0  0  0  0  0  0
  142.5834  138.2896  181.0484 C   0  0  0  0  0  0  0  0  0  0  0  0
  142.7299  139.3803  180.0292 O   0  0  0  0  0  0  0  0  0  0  0  0
  141.7134  137.6517  180.8695 O   0  0  0  0  0  0  0  0  0  0  0  0
  141.7343  139.5033  178.9140 H   0  0  0  0  0  0  0  0  0  0  0  0
  144.5745  138.0436  183.2789 C   0  0  0  0  0  0  0  0  0  0  0  0
  145.5701  137.9206  184.3941 C   0  0  0  0  0  0  0  0  0  0  0  0
  145.3583  136.9079  185.4802 C   0  0  0  0  0  0  0  0  0  0  0  0
  146.3539  136.7849  186.5954 C   0  0  0  0  0  0  0  0  0  0  0  0
  147.5612  137.6745  186.6245 C   0  0  0  0  0  0  0  0  0  0  0  0
  147.7730  138.6871  185.5384 C   0  0  0  0  0  0  0  0  0  0  0  0
  146.7774  138.8102  184.4232 C   0  0  0  0  0  0  0  0  0  0  0  0
  146.7653  135.0633  179.0868 C   0  0  0  0  0  0  0  0  0  0  0  0
  147.4386  133.9361  178.3615 C   0  0  0  0  0  0  0  0  0  0  0  0
  148.1118  132.8089  177.6361 C   0  0  0  0  0  0  0  0  0  0  0  0
  148.7850  131.6817  176.9108 N   0  0  0  0  0  0  0  0  0  0  0  0
  147.9653  130.5681  176.3295 H   0  0  0  0  0  0  0  0  0  0  0  0
  150.2781  131.6681  176.7667 C   0  0  0  0  0  0  0  0  0  0  0  0
  150.9327  130.6934  175.8333 N   0  0  0  0  0  0  0  0  0  0  0  0
  151.1165  132.6293  177.5562 N   0  0  0  0  0  0  0  0  0  0  0  0
  152.4275  130.8162  175.8116 H   0  0  0  0  0  0  0  0  0  0  0  0
  150.0943  129.7322  175.0438 H   0  0  0  0  0  0  0  0  0  0  0  0
  152.6095  132.6157  177.4122 H   0  0  0  0  0  0  0  0  0  0  0  0
  148.2890  134.5762  184.4831 C   0  0  0  0  0  0  0  0  0  0  0  0
  148.6022  133.9193  185.7947 C   0  0  0  0  0  0  0  0  0  0  0  0
  148.9154  133.2623  187.1063 C   0  0  0  0  0  0  0  0  0  0  0  0
  149.2286  132.6054  188.4179 N   0  0  0  0  0  0  0  0  0  0  0  0
  150.1756  131.4432  188.4674 H   0  0  0  0  0  0  0  0  0  0  0  0
  148.5948  133.1107  189.6801 C   0  0  0  0  0  0  0  0  0  0  0  0
  148.9508  132.4903  190.9986 N   0  0  0  0  0  0  0  0  0  0  0  0
  147.6050  134.2364  189.6237 N   0  0  0  0  0  0  0  0  0  0  0  0
  148.2269  133.1148  192.1545 H   0  0  0  0  0  0  0  0  0  0  0  0
  149.9405  131.3646  191.0550 H   0  0  0  0  0  0  0  0  0  0  0  0
  146.9712  134.7417  190.8858 H   0  0  0  0  0  0  0  0  0  0  0  0
  152.3254  134.7125  182.8046 C   0  0  0  0  0  0  0  0  0  0  0  0
  152.7332  133.9779  183.5045 O   0  0  0  0  0  0  0  0  0  0  0  0
  151.3482  134.4571  181.6955 N   0  0  0  0  0  0  0  0  0  0  0  0
  150.8907  135.5886  180.8236 H   0  0  0  0  0  0  0  0  0  0  0  0
  152.8452  136.0994  183.0416 C   0  0  0  0  0  0  0  0  0  0  0  0
  151.4482  136.5339  185.1886 C   0  0  0  0  0  0  0  0  0  0  0  0
  150.6590  137.1256  184.7166 O   0  0  0  0  0  0  0  0  0  0  0  0
  152.6425  135.9232  184.5173 N   0  0  0  0  0  0  0  0  0  0  0  0
  153.6343  135.1362  185.3218 H   0  0  0  0  0  0  0  0  0  0  0  0
  151.2456  136.3576  186.6644 C   0  0  0  0  0  0  0  0  0  0  0  0
  154.8124  137.9397  187.3885 C   0  0  0  0  0  0  0  0  0  0  0  0
  153.3332  137.8188  187.1710 C   0  0  0  0  0  0  0  0  0  0  0  0
  152.8103  138.7760  187.2487 O   0  0  0  0  0  0  0  0  0  0  0  0
  152.7248  136.4786  186.8819 N   0  0  0  0  0  0  0  0  0  0  0  0
  153.5956  135.2592  186.8104 H   0  0  0  0  0  0  0  0  0  0  0  0
  151.0429  136.1813  188.1401 C   0  0  0  0  0  0  0  0  0  0  0  0
  150.8403  136.0051  189.6159 C   0  0  0  0  0  0  0  0  0  0  0  0
  150.6377  135.8288  191.0916 C   0  0  0  0  0  0  0  0  0  0  0  0
  150.4350  135.6525  192.5674 N   0  0  0  0  0  0  0  0  0  0  0  0
  149.2672  134.8596  193.0746 H   0  0  0  0  0  0  0  0  0  0  0  0
  151.4003  136.2692  193.5359 C   0  0  0  0  0  0  0  0  0  0  0  0
  152.0615  137.5749  193.2072 N   0  0  0  0  0  0  0  0  0  0  0  0
  151.7044  135.5802  194.8331 N   0  0  0  0  0  0  0  0  0  0  0  0
  153.0267  138.1915  194.1757 H   0  0  0  0  0  0  0  0  0  0  0  0
  151.7574  138.2639  191.9100 H   0  0  0  0  0  0  0  0  0  0  0  0
  152.6696  136.1969  195.8017 H   0  0  0  0  0  0  0  0  0  0  0  0
  153.3649  137.4864  183.2786 C   0  0  0  0  0  0  0  0  0  0  0  0
  153.8847  138.8734  183.5156 C   0  0  0  0  0  0  0  0  0  0  0  0
  154.4044  140.2603  183.7527 C   0  0  0  0  0  0  0  0  0  0  0  0
  154.9242  141.6473  183.9897 N   0  0  0  0  0  0  0  0  0  0  0  0
  154.0652  142.6614  184.6853 H   0  0  0  0  0  0  0  0  0  0  0  0
  156.3028  142.0202  183.5311 C   0  0  0  0  0  0  0  0  0  0  0  0
  156.4893  142.7586  182.2388 N   0  0  0  0  0  0  0  0  0  0  0  0
  157.4950  141.6546  184.3648 N   0  0  0  0  0  0  0  0  0  0  0  0
  157.8679  143.1315  181.7803 H   0  0  0  0  0  0  0  0  0  0  0  0
  155.2971  143.1242  181.4052 H   0  0  0  0  0  0  0  0  0  0  0  0
  158.8737  142.0275  183.9062 H   0  0  0  0  0  0  0  0  0  0  0  0
  152.1706  132.6573  180.9312 C   0  0  0  0  0  0  0  0  0  0  0  0
  153.5128  132.2444  180.4039 C   0  0  0  0  0  0  0  0  0  0  0  0
  154.8550  131.8315  179.8766 C   0  0  0  0  0  0  0  0  0  0  0  0
  156.1972  131.4186  179.3493 N   0  0  0  0  0  0  0  0  0  0  0  0
  156.2899  130.5735  178.1135 H   0  0  0  0  0  0  0  0  0  0  0  0
  157.4466  131.8509  180.0578 C   0  0  0  0  0  0  0  0  0  0  0  0
  158.7902  131.5045  179.4876 N   0  0  0  0  0  0  0  0  0  0  0  0
  157.3527  132.6295  181.3364 N   0  0  0  0  0  0  0  0  0  0  0  0
  159.6204  131.8749  180.0951 H   0  0  0  0  0  0  0  0  0  0  0  0
  158.8842  130.7258  178.2090 H   0  0  0  0  0  0  0  0  0  0  0  0
  158.6022  133.0617  182.0449 H   0  0  0  0  0  0  0  0  0  0  0  0
 60 61  1  0  0  0
 61 62  2  0  0  0
 61 63  1  0  0  0
 63 59  1  0  0  0
 59 65  1  0  0  0
 65 66  1  0  0  0
 66 67  1  0  0  0
 67 68  1  0  0  0
 68 70  1  0  0  0
 70 71  1  0  0  0
 70 72  2  0  0  0
 59 55  1  0  0  0
 55 56  2  0  0  0
 55 57  1  0  0  0
 57 54  1  0  0  0
 54 76  1  0  0  0
 76 77  1  0  0  0
 77 78  1  0  0  0
 78 79  1  0  0  0
 79 81  1  0  0  0
 81 82  1  0  0  0
 81 83  2  0  0  0
 54 50  1  0  0  0
 50 51  2  0  0  0
 50 52  1  0  0  0
 52  1  1  0  0  0
  1 87  1  0  0  0
 87 88  1  0  0  0
 88 89  1  0  0  0
 89 90  1  0  0  0
 90 92  1  0  0  0
 92 93  1  0  0  0
 92 94  2  0  0  0
  1  2  1  0  0  0
  2  3  2  0  0  0
  2  4  1  0  0  0
  4  6  1  0  0  0
  6 39  1  0  0  0
 39 40  1  0  0  0
 40 41  1  0  0  0
 41 42  1  0  0  0
 42 44  1  0  0  0
 44 45  1  0  0  0
 44 46  2  0  0  0
  6  7  1  0  0  0
  7  8  2  0  0  0
  7  9  1  0  0  0
  9 11  1  0  0  0
 11 28  1  0  0  0
 28 29  1  0  0  0
 29 30  1  0  0  0
 30 31  1  0  0  0
 31 33  1  0  0  0
 33 34  1  0  0  0
 33 35  2  0  0  0
 11 12  1  0  0  0
 12 13  2  0  0  0
 12 14  1  0  0  0
 14 16  1  0  0  0
 16 21  1  0  0  0
 21 22  1  0  0  0
 22 23  2  0  0  0
 23 24  1  0  0  0
 24 25  2  0  0  0
 25 26  1  0  0  0
 26 27  2  0  0  0
 16 17  1  0  0  0
 17 18  1  0  0  0
 17 19  2  0  0  0
 27 22  1  0  0  0
 63 64  1  0  0  0
 68 69  1  0  0  0
 71 73  1  0  0  0
 71 74  1  0  0  0
 72 75  1  0  0  0
 57 58  1  0  0  0
 79 80  1  0  0  0
 82 84  1  0  0  0
 82 85  1  0  0  0
 83 86  1  0  0  0
 52 53  1  0  0  0
 90 91  1  0  0  0
 93 95  1  0  0  0
 93 96  1  0  0  0
 94 97  1  0  0  0
  4  5  1  0  0  0
 42 43  1  0  0  0
 45 47  1  0  0  0
 45 48  1  0  0  0
 46 49  1  0  0  0
  9 10  1  0  0  0
 31 32  1  0  0  0
 34 36  1  0  0  0
 34 37  1  0  0  0
 35 38  1  0  0  0
 14 15  1  0  0  0
 18 20  1  0  0  0
M  END
> <minimizedAffinity>
-3.79380

> <CNNscore>
0.3512216210

> <CNNaffinity>
8.1038274765

> <CNN_VS>
2.8462393284

> <CNNaffinity_variance>
0.1096121296

$$$$
[H]N=C(N([H])[H])N([H])C([H])([H])C([H])([H])C([H])([H])[C@@]([H])(C(=O)N([H])[C@]([H])(C(=O)O[H])C([H])([H])c1c([H])c([H])c([H])c([H])c1[H])N([H])C(=O)[C@@]([H])(N([H])C(=O)[C@@]([H])(N([H])C(=O)[C@@]([H])(N([H])C(=O)[C@@]([H])(N([H])C(=O)C([H])([H])[H])C([H])([H])C([H])([H])C([H])([H])N([H])C(=N[H])N([H])[H])C([H])([H])C([H])([H])C([H])([H])N([H])C(=N[H])N([H])[H])C([H])([H])C([H])([H])C([H])([H])N([H])C(=N[H])N([H])[H])C([H])([H])C([H])([H])C([H])([H])N([H])C(=N[H])N([H])[H]


 97 97  0  0  0  0  0  0  0  0999 V2000
  154.9721  136.4751  188.5051 C   0  0  0  0  0  0  0  0  0  0  0  0
  154.1596  137.3883  187.6357 C   0  0  0  0  0  0  0  0  0  0  0  0
  154.0010  138.7623  188.2160 O   0  0  0  0  0  0  0  0  0  0  0  0
  153.6039  136.8878  186.3354 N   0  0  0  0  0  0  0  0  0  0  0  0
  153.8607  135.4742  185.9046 H   0  0  0  0  0  0  0  0  0  0  0  0
  152.7914  137.8010  185.4660 C   0  0  0  0  0  0  0  0  0  0  0  0
  151.5348  137.1288  185.9342 C   0  0  0  0  0  0  0  0  0  0  0  0
  151.2012  137.4403  187.3631 O   0  0  0  0  0  0  0  0  0  0  0  0
  150.7587  136.2527  184.9963 N   0  0  0  0  0  0  0  0  0  0  0  0
  151.2390  136.0487  183.5900 H   0  0  0  0  0  0  0  0  0  0  0  0
  149.5021  135.5805  185.4646 C   0  0  0  0  0  0  0  0  0  0  0  0
  148.6834  136.6400  184.7885 C   0  0  0  0  0  0  0  0  0  0  0  0
  148.5064  137.5129  185.4229 O   0  0  0  0  0  0  0  0  0  0  0  0
  148.2015  136.4327  183.3832 N   0  0  0  0  0  0  0  0  0  0  0  0
  148.6273  135.1154  182.8060 H   0  0  0  0  0  0  0  0  0  0  0  0
  147.3827  137.4922  182.7071 C   0  0  0  0  0  0  0  0  0  0  0  0
  146.1388  136.9248  183.3242 C   0  0  0  0  0  0  0  0  0  0  0  0
  145.3408  137.7456  184.2933 O   0  0  0  0  0  0  0  0  0  0  0  0
  145.7115  135.9333  183.1508 O   0  0  0  0  0  0  0  0  0  0  0  0
  144.0969  137.1782  184.9104 H   0  0  0  0  0  0  0  0  0  0  0  0
  148.6266  138.0597  182.0900 C   0  0  0  0  0  0  0  0  0  0  0  0
  149.8705  138.6271  181.4730 C   0  0  0  0  0  0  0  0  0  0  0  0
  149.8170  139.2386  180.1043 C   0  0  0  0  0  0  0  0  0  0  0  0
  151.0609  139.8060  179.4872 C   0  0  0  0  0  0  0  0  0  0  0  0
  152.3582  139.7620  180.2388 C   0  0  0  0  0  0  0  0  0  0  0  0
  152.4117  139.1505  181.6074 C   0  0  0  0  0  0  0  0  0  0  0  0
  151.1678  138.5831  182.2245 C   0  0  0  0  0  0  0  0  0  0  0  0
  150.3208  134.5210  186.1407 C   0  0  0  0  0  0  0  0  0  0  0  0
  151.1396  133.4615  186.8168 C   0  0  0  0  0  0  0  0  0  0  0  0
  151.9583  132.4020  187.4929 C   0  0  0  0  0  0  0  0  0  0  0  0
  152.7771  131.3425  188.1690 N   0  0  0  0  0  0  0  0  0  0  0  0
  154.2302  131.5841  188.4518 H   0  0  0  0  0  0  0  0  0  0  0  0
  152.1426  130.0413  188.5622 C   0  0  0  0  0  0  0  0  0  0  0  0
  152.8716  129.0955  189.4699 N   0  0  0  0  0  0  0  0  0  0  0  0
  150.7791  129.6861  188.0478 N   0  0  0  0  0  0  0  0  0  0  0  0
  152.0946  127.8457  189.7601 H   0  0  0  0  0  0  0  0  0  0  0  0
  154.2352  129.4508  189.9843 H   0  0  0  0  0  0  0  0  0  0  0  0
  150.1446  128.3850  188.4410 H   0  0  0  0  0  0  0  0  0  0  0  0
  154.0479  138.4732  184.9977 C   0  0  0  0  0  0  0  0  0  0  0  0
  155.3045  139.1453  184.5294 C   0  0  0  0  0  0  0  0  0  0  0  0
  156.5610  139.8175  184.0611 C   0  0  0  0  0  0  0  0  0  0  0  0
  157.8176  140.4897  183.5928 N   0  0  0  0  0  0  0  0  0  0  0  0
  159.1374  139.7897  183.7270 H   0  0  0  0  0  0  0  0  0  0  0  0
  157.7543  141.8619  182.9902 C   0  0  0  0  0  0  0  0  0  0  0  0
  156.5604  142.7355  183.2382 N   0  0  0  0  0  0  0  0  0  0  0  0
  158.8848  142.3605  182.1398 N   0  0  0  0  0  0  0  0  0  0  0  0
  156.6613  144.0711  182.5628 H   0  0  0  0  0  0  0  0  0  0  0  0
  155.4299  142.2370  184.0887 H   0  0  0  0  0  0  0  0  0  0  0  0
  158.8215  143.7326  181.5372 H   0  0  0  0  0  0  0  0  0  0  0  0
  152.9895  136.2303  190.1663 C   0  0  0  0  0  0  0  0  0  0  0  0
  153.2661  137.0569  190.8267 O   0  0  0  0  0  0  0  0  0  0  0  0
  153.7194  135.7729  188.9382 N   0  0  0  0  0  0  0  0  0  0  0  0
  153.1966  134.6132  188.1433 H   0  0  0  0  0  0  0  0  0  0  0  0
  151.7368  135.5280  190.5993 C   0  0  0  0  0  0  0  0  0  0  0  0
  153.1664  133.8781  192.0079 C   0  0  0  0  0  0  0  0  0  0  0  0
  153.1721  134.4624  192.9322 O   0  0  0  0  0  0  0  0  0  0  0  0
  152.4983  134.2409  190.7149 N   0  0  0  0  0  0  0  0  0  0  0  0
  152.5917  133.3164  189.5372 H   0  0  0  0  0  0  0  0  0  0  0  0
  153.9279  132.5910  192.1234 C   0  0  0  0  0  0  0  0  0  0  0  0
  150.5155  130.5651  192.0901 C   0  0  0  0  0  0  0  0  0  0  0  0
  151.7120  131.3180  192.5916 C   0  0  0  0  0  0  0  0  0  0  0  0
  151.7265  131.4210  193.6801 O   0  0  0  0  0  0  0  0  0  0  0  0
  152.7314  131.8381  191.6219 N   0  0  0  0  0  0  0  0  0  0  0  0
  152.5542  131.6054  190.1507 H   0  0  0  0  0  0  0  0  0  0  0  0
  154.6894  131.3038  192.2389 C   0  0  0  0  0  0  0  0  0  0  0  0
  155.4509  130.0167  192.3544 C   0  0  0  0  0  0  0  0  0  0  0  0
  156.2124  128.7295  192.4699 C   0  0  0  0  0  0  0  0  0  0  0  0
  156.9739  127.4424  192.5854 N   0  0  0  0  0  0  0  0  0  0  0  0
  157.1231  126.7765  193.9212 H   0  0  0  0  0  0  0  0  0  0  0  0
  157.5862  126.8211  191.3651 C   0  0  0  0  0  0  0  0  0  0  0  0
  158.5575  127.6038  190.5321 N   0  0  0  0  0  0  0  0  0  0  0  0
  157.2272  125.4171  190.9778 N   0  0  0  0  0  0  0  0  0  0  0  0
  159.1698  126.9825  189.3118 H   0  0  0  0  0  0  0  0  0  0  0  0
  158.9165  129.0078  190.9194 H   0  0  0  0  0  0  0  0  0  0  0  0
  157.8395  124.7959  189.7576 H   0  0  0  0  0  0  0  0  0  0  0  0
  150.4841  134.8258  191.0324 C   0  0  0  0  0  0  0  0  0  0  0  0
  149.2314  134.1235  191.4655 C   0  0  0  0  0  0  0  0  0  0  0  0
  147.9787  133.4212  191.8986 C   0  0  0  0  0  0  0  0  0  0  0  0
  146.7260  132.7189  192.3316 N   0  0  0  0  0  0  0  0  0  0  0  0
  146.8071  131.3578  192.9567 H   0  0  0  0  0  0  0  0  0  0  0  0
  145.3922  133.3778  192.1397 C   0  0  0  0  0  0  0  0  0  0  0  0
  144.5178  133.6607  193.3252 N   0  0  0  0  0  0  0  0  0  0  0  0
  144.9327  133.7537  190.7621 N   0  0  0  0  0  0  0  0  0  0  0  0
  143.1840  134.3196  193.1333 H   0  0  0  0  0  0  0  0  0  0  0  0
  144.9773  133.2848  194.7027 H   0  0  0  0  0  0  0  0  0  0  0  0
  143.5988  134.4126  190.5702 H   0  0  0  0  0  0  0  0  0  0  0  0
  155.7846  135.5620  189.3746 C   0  0  0  0  0  0  0  0  0  0  0  0
  156.5971  134.6488  190.2440 C   0  0  0  0  0  0  0  0  0  0  0  0
  157.4097  133.7356  191.1134 C   0  0  0  0  0  0  0  0  0  0  0  0
  158.2222  132.8224  191.9829 N   0  0  0  0  0  0  0  0  0  0  0  0
  158.5734  133.2347  193.3817 H   0  0  0  0  0  0  0  0  0  0  0  0
  158.6834  131.4969  191.4535 C   0  0  0  0  0  0  0  0  0  0  0  0
  159.4235  130.5480  192.3491 N   0  0  0  0  0  0  0  0  0  0  0  0
  158.4047  131.1202  190.0286 N   0  0  0  0  0  0  0  0  0  0  0  0
  159.7050  129.6183  191.8471 H   0  0  0  0  0  0  0  0  0  0  0  0
  159.7022  130.9247  193.7741 H   0  0  0  0  0  0  0  0  0  0  0  0
  158.8660  129.7946  189.4993 H   0  0  0  0  0  0  0  0  0  0  0  0
 60 61  1  0  0  0
 61 62  2  0  0  0
 61 63  1  0  0  0
 63 59  1  0  0  0
 59 65  1  0  0  0
 65 66  1  0  0  0
 66 67  1  0  0  0
 67 68  1  0  0  0
 68 70  1  0  0  0
 70 71  1  0  0  0
 70 72  2  0  0  0
 59 55  1  0  0  0
 55 56  2  0  0  0
 55 57  1  0  0  0
 57 54  1  0  0  0
 54 76  1  0  0  0
 76 77  1  0  0  0
 77 78  1  0  0  0
 78 79  1  0  0  0
 79 81  1  0  0  0
 81 82  1  0  0  0
 81 83  2  0  0  0
 54 50  1  0  0  0
 50 51  2  0  0  0
 50 52  1  0  0  0
 52  1  1  0  0  0
  1 87  1  0  0  0
 87 88  1  0  0  0
 88 89  1  0  0  0
 89 90  1  0  0  0
 90 92  1  0  0  0
 92 93  1  0  0  0
 92 94  2  0  0  0
  1  2  1  0  0  0
  2  3  2  0  0  0
  2  4  1  0  0  0
  4  6  1  0  0  0
  6 39  1  0  0  0
 39 40  1  0  0  0
 40 41  1  0  0  0
 41 42  1  0  0  0
 42 44  1  0  0  0
 44 45  1  0  0  0
 44 46  2  0  0  0
  6  7  1  0  0  0
  7  8  2  0  0  0
  7  9  1  0  0  0
  9 11  1  0  0  0
 11 28  1  0  0  0
 28 29  1  0  0  0
 29 30  1  0  0  0
 30 31  1  0  0  0
 31 33  1  0  0  0
 33 34  1  0  0  0
 33 35  2  0  0  0
 11 12  1  0  0  0
 12 13  2  0  0  0
 12 14  1  0  0  0
 14 16  1  0  0  0
 16 21  1  0  0  0
 21 22  1  0  0  0
 22 23  2  0  0  0
 23 24  1  0  0  0
 24 25  2  0  0  0
 25 26  1  0  0  0
 26 27  2  0  0  0
 16 17  1  0  0  0
 17 18  1  0  0  0
 17 19  2  0  0  0
 27 22  1  0  0  0
 63 64  1  0  0  0
 68 69  1  0  0  0
 71 73  1  0  0  0
 71 74  1  0  0  0
 72 75  1  0  0  0
 57 58  1  0  0  0
 79 80  1  0  0  0
 82 84  1  0  0  0
 82 85  1  0  0  0
 83 86  1  0  0  0
 52 53  1  0  0  0
 90 91  1  0  0  0
 93 95  1  0  0  0
 93 96  1  0  0  0
 94 97  1  0  0  0
  4  5  1  0  0  0
 42 43  1  0  0  0
 45 47  1  0  0  0
 45 48  1  0  0  0
 46 49  1  0  0  0
  9 10  1  0  0  0
 31 32  1  0  0  0
 34 36  1  0  0  0
 34 37  1  0  0  0
 35 38  1  0  0  0
 14 15  1  0  0  0
 18 20  1  0  0  0
M  END
> <minimizedAffinity>
-3.83111

> <CNNscore>
0.3481808007

> <CNNaffinity>
8.0253658295

> <CNN_VS>
2.7942783833

> <CNNaffinity_variance>
0.7494955659

$$$$
[H]OC(=O)[C@@]([H])(N([H])C(=O)[C@@]([H])(N([H])C(=O)[C@@]1([H])N(C(=O)[C@@]([H])(N([H])C(=O)[C@@]([H])(N([H])C(=O)[C@@]([H])(N([H])C(=O)c2c(O[H])c3c([H])c([H])c([H])c([H])c3n2[H])C([H])([H])c2c([H])c([H])c([H])c([H])c2[H])C([H])([H])C([H])(C([H])([H])[H])C([H])([H])[H])C([H])([H])c2c([H])c([H])c([H])c([H])c2[H])C([H])([H])C([H])([H])C1([H])[H])[C@]([H])(O[H])C([H])([H])[H])C([H])([H])c1c([H])c([H])c([H])c([H])c1[H]


 77 82  0  0  0  0  0  0  0  0999 V2000
  153.9815  137.5185  186.5143 C   0  0  0  0  0  0  0  0  0  0  0  0
  153.2559  136.2648  186.6068 C   0  0  0  0  0  0  0  0  0  0  0  0
  152.2940  136.2545  187.4859 O   0  0  0  0  0  0  0  0  0  0  0  0
  153.4555  135.0760  185.8702 N   0  0  0  0  0  0  0  0  0  0  0  0
  154.4991  134.8829  184.8964 C   0  0  0  0  0  0  0  0  0  0  0  0
  154.0135  133.8231  183.9360 C   0  0  0  0  0  0  0  0  0  0  0  0
  152.9926  133.0662  184.7151 C   0  0  0  0  0  0  0  0  0  0  0  0
  152.6516  133.9020  185.9286 C   0  0  0  0  0  0  0  0  0  0  0  0
  152.7683  133.0672  187.1116 C   0  0  0  0  0  0  0  0  0  0  0  0
  152.6213  131.8313  187.1581 O   0  0  0  0  0  0  0  0  0  0  0  0
  153.0832  133.6998  188.3628 N   0  0  0  0  0  0  0  0  0  0  0  0
  153.2214  134.7263  188.4226 H   0  0  0  0  0  0  0  0  0  0  0  0
  153.2125  132.9075  189.5837 C   0  0  0  0  0  0  0  0  0  0  0  0
  151.9781  132.8779  190.3582 C   0  0  0  0  0  0  0  0  0  0  0  0
  151.9196  132.0479  191.3292 O   0  0  0  0  0  0  0  0  0  0  0  0
  150.8335  133.6636  190.1596 N   0  0  0  0  0  0  0  0  0  0  0  0
  150.7972  134.3711  189.4115 H   0  0  0  0  0  0  0  0  0  0  0  0
  149.6172  133.5450  191.0000 C   0  0  0  0  0  0  0  0  0  0  0  0
  148.5568  132.8974  190.2587 C   0  0  0  0  0  0  0  0  0  0  0  0
  147.3817  132.4871  190.8144 O   0  0  0  0  0  0  0  0  0  0  0  0
  148.7151  132.6851  189.0059 O   0  0  0  0  0  0  0  0  0  0  0  0
  147.0685  131.5286  190.8580 H   0  0  0  0  0  0  0  0  0  0  0  0
  149.2503  134.8755  191.5441 C   0  0  0  0  0  0  0  0  0  0  0  0
  150.2962  135.4933  192.3624 C   0  0  0  0  0  0  0  0  0  0  0  0
  150.7635  136.7675  192.0398 C   0  0  0  0  0  0  0  0  0  0  0  0
  151.7369  137.3132  192.8358 C   0  0  0  0  0  0  0  0  0  0  0  0
  152.2482  136.6352  193.9263 C   0  0  0  0  0  0  0  0  0  0  0  0
  151.7867  135.3736  194.2477 C   0  0  0  0  0  0  0  0  0  0  0  0
  150.8140  134.8101  193.4647 C   0  0  0  0  0  0  0  0  0  0  0  0
  154.3956  133.4488  190.4012 C   0  0  0  0  0  0  0  0  0  0  0  0
  154.0450  134.8027  190.9834 C   0  0  0  0  0  0  0  0  0  0  0  0
  154.6546  132.5648  191.4348 O   0  0  0  0  0  0  0  0  0  0  0  0
  155.6157  132.3593  191.4467 H   0  0  0  0  0  0  0  0  0  0  0  0
  154.5880  139.0309  184.5462 C   0  0  0  0  0  0  0  0  0  0  0  0
  155.7937  139.2011  184.8601 O   0  0  0  0  0  0  0  0  0  0  0  0
  153.7185  138.2533  185.3037 N   0  0  0  0  0  0  0  0  0  0  0  0
  152.7123  138.1823  184.9492 H   0  0  0  0  0  0  0  0  0  0  0  0
  154.1282  139.7321  183.2820 C   0  0  0  0  0  0  0  0  0  0  0  0
  152.9274  139.2321  182.7582 N   0  0  0  0  0  0  0  0  0  0  0  0
  152.2852  139.2941  181.5278 C   0  0  0  0  0  0  0  0  0  0  0  0
  152.8507  139.9457  180.5814 O   0  0  0  0  0  0  0  0  0  0  0  0
  152.3376  138.6627  183.4940 H   0  0  0  0  0  0  0  0  0  0  0  0
  150.9966  138.6758  181.2041 C   0  0  0  0  0  0  0  0  0  0  0  0
  150.2239  138.4107  182.3867 N   0  0  0  0  0  0  0  0  0  0  0  0
  150.3800  137.2778  183.2157 C   0  0  0  0  0  0  0  0  0  0  0  0
  151.2465  136.4230  182.9305 O   0  0  0  0  0  0  0  0  0  0  0  0
  149.5009  139.1092  182.6397 H   0  0  0  0  0  0  0  0  0  0  0  0
  149.5578  137.0694  184.3991 C   0  0  0  0  0  0  0  0  0  0  0  0
  150.0225  136.6260  185.6106 N   0  0  0  0  0  0  0  0  0  0  0  0
  148.9993  136.5415  186.4898 C   0  0  0  0  0  0  0  0  0  0  0  0
  148.9174  136.1610  187.8175 C   0  0  0  0  0  0  0  0  0  0  0  0
  147.7144  136.1750  188.4774 C   0  0  0  0  0  0  0  0  0  0  0  0
  146.5341  136.5686  187.8486 C   0  0  0  0  0  0  0  0  0  0  0  0
  146.6204  136.9444  186.5348 C   0  0  0  0  0  0  0  0  0  0  0  0
  147.8315  136.9290  185.8754 C   0  0  0  0  0  0  0  0  0  0  0  0
  148.2169  137.2530  184.5680 C   0  0  0  0  0  0  0  0  0  0  0  0
  147.2780  137.6925  183.6477 O   0  0  0  0  0  0  0  0  0  0  0  0
  151.0286  136.3939  185.7977 H   0  0  0  0  0  0  0  0  0  0  0  0
  147.4989  137.9360  182.7220 H   0  0  0  0  0  0  0  0  0  0  0  0
  150.2178  139.1802  180.0613 C   0  0  0  0  0  0  0  0  0  0  0  0
  148.8402  138.7962  179.8764 C   0  0  0  0  0  0  0  0  0  0  0  0
  148.4728  137.9476  178.8613 C   0  0  0  0  0  0  0  0  0  0  0  0
  147.1791  137.5784  178.6081 C   0  0  0  0  0  0  0  0  0  0  0  0
  146.1614  138.0646  179.3956 C   0  0  0  0  0  0  0  0  0  0  0  0
  146.4907  138.9197  180.4257 C   0  0  0  0  0  0  0  0  0  0  0  0
  147.8178  139.2814  180.6633 C   0  0  0  0  0  0  0  0  0  0  0  0
  154.3415  141.1859  183.5253 C   0  0  0  0  0  0  0  0  0  0  0  0
  154.4104  143.4845  182.6741 C   0  0  0  0  0  0  0  0  0  0  0  0
  154.8739  142.0497  182.4650 C   0  0  0  0  0  0  0  0  0  0  0  0
  156.2515  141.9138  181.9746 C   0  0  0  0  0  0  0  0  0  0  0  0
  153.7198  138.4781  187.6497 C   0  0  0  0  0  0  0  0  0  0  0  0
  154.5881  138.3336  188.8161 C   0  0  0  0  0  0  0  0  0  0  0  0
  155.9123  137.8962  188.6850 C   0  0  0  0  0  0  0  0  0  0  0  0
  156.7466  137.7399  189.7664 C   0  0  0  0  0  0  0  0  0  0  0  0
  156.2612  138.0228  191.0199 C   0  0  0  0  0  0  0  0  0  0  0  0
  154.9464  138.4598  191.1833 C   0  0  0  0  0  0  0  0  0  0  0  0
  154.1419  138.6039  190.0742 C   0  0  0  0  0  0  0  0  0  0  0  0
 68 69  1  0  0  0
 69 70  1  0  0  0
 69 67  1  0  0  0
 67 38  1  0  0  0
 38 39  1  0  0  0
 39 40  1  0  0  0
 40 41  2  0  0  0
 40 43  1  0  0  0
 43 60  1  0  0  0
 60 61  1  0  0  0
 61 62  2  0  0  0
 62 63  1  0  0  0
 63 64  2  0  0  0
 64 65  1  0  0  0
 65 66  2  0  0  0
 43 44  1  0  0  0
 44 45  1  0  0  0
 45 46  2  0  0  0
 45 48  1  0  0  0
 48 49  1  0  0  0
 49 50  1  0  0  0
 50 51  2  0  0  0
 51 52  1  0  0  0
 52 53  2  0  0  0
 53 54  1  0  0  0
 54 55  2  0  0  0
 55 56  1  0  0  0
 56 57  1  0  0  0
 38 34  1  0  0  0
 34 35  2  0  0  0
 34 36  1  0  0  0
 36  1  1  0  0  0
  1 71  1  0  0  0
 71 72  1  0  0  0
 72 73  2  0  0  0
 73 74  1  0  0  0
 74 75  2  0  0  0
 75 76  1  0  0  0
 76 77  2  0  0  0
  1  2  1  0  0  0
  2  3  2  0  0  0
  2  4  1  0  0  0
  4  5  1  0  0  0
  5  6  1  0  0  0
  6  7  1  0  0  0
  7  8  1  0  0  0
  8  9  1  0  0  0
  9 10  2  0  0  0
  9 11  1  0  0  0
 11 13  1  0  0  0
 13 30  1  0  0  0
 30 31  1  0  0  0
 30 32  1  0  0  0
 13 14  1  0  0  0
 14 15  2  0  0  0
 14 16  1  0  0  0
 16 18  1  0  0  0
 18 23  1  0  0  0
 23 24  1  0  0  0
 24 25  2  0  0  0
 25 26  1  0  0  0
 26 27  2  0  0  0
 27 28  1  0  0  0
 28 29  2  0  0  0
 18 19  1  0  0  0
 19 20  1  0  0  0
 19 21  2  0  0  0
 66 61  1  0  0  0
 56 48  2  0  0  0
 77 72  1  0  0  0
  8  4  1  0  0  0
 29 24  1  0  0  0
 55 50  1  0  0  0
 39 42  1  0  0  0
 44 47  1  0  0  0
 49 58  1  0  0  0
 57 59  1  0  0  0
 36 37  1  0  0  0
 11 12  1  0  0  0
 32 33  1  0  0  0
 16 17  1  0  0  0
 20 22  1  0  0  0
M  END
> <minimizedAffinity>
-8.44245

> <CNNscore>
0.3189334273

> <CNNaffinity>
7.0707368851

> <CNN_VS>
2.2550942898

> <CNNaffinity_variance>
1.5243039131

$$$$
[H]OC(=O)[C@@]([H])(N([H])C(=O)[C@@]([H])(N([H])C(=O)[C@@]1([H])N(C(=O)[C@@]([H])(N([H])C(=O)[C@@]([H])(N([H])C(=O)[C@@]([H])(N([H])C(=O)c2c(O[H])c3c([H])c([H])c([H])c([H])c3n2[H])C([H])([H])c2c([H])c([H])c([H])c([H])c2[H])C([H])([H])C([H])(C([H])([H])[H])C([H])([H])[H])C([H])([H])c2c([H])c([H])c([H])c([H])c2[H])C([H])([H])C([H])([H])C1([H])[H])[C@]([H])(O[H])C([H])([H])[H])C([H])([H])c1c([H])c([H])c([H])c([H])c1[H]


 77 82  0  0  0  0  0  0  0  0999 V2000
  152.2361  137.5506  184.8794 C   0  0  0  0  0  0  0  0  0  0  0  0
  151.1239  136.6915  184.5167 C   0  0  0  0  0  0  0  0  0  0  0  0
  150.3614  137.1570  183.5679 O   0  0  0  0  0  0  0  0  0  0  0  0
  150.7744  135.4314  185.0513 N   0  0  0  0  0  0  0  0  0  0  0  0
  151.4653  134.7834  186.1363 C   0  0  0  0  0  0  0  0  0  0  0  0
  151.2301  133.2993  185.9831 C   0  0  0  0  0  0  0  0  0  0  0  0
  149.9762  133.2103  185.1820 C   0  0  0  0  0  0  0  0  0  0  0  0
  149.7283  134.5809  184.5927 C   0  0  0  0  0  0  0  0  0  0  0  0
  148.3630  134.9736  184.8957 C   0  0  0  0  0  0  0  0  0  0  0  0
  147.6030  134.4230  185.7146 O   0  0  0  0  0  0  0  0  0  0  0  0
  147.8089  136.1022  184.1999 N   0  0  0  0  0  0  0  0  0  0  0  0
  148.3667  136.6228  183.4970 H   0  0  0  0  0  0  0  0  0  0  0  0
  146.4406  136.5401  184.4662 C   0  0  0  0  0  0  0  0  0  0  0  0
  145.7220  136.8853  183.2460 C   0  0  0  0  0  0  0  0  0  0  0  0
  144.4773  137.1556  183.3599 O   0  0  0  0  0  0  0  0  0  0  0  0
  146.2436  136.9563  181.9461 N   0  0  0  0  0  0  0  0  0  0  0  0
  147.2404  136.7713  181.7621 H   0  0  0  0  0  0  0  0  0  0  0  0
  145.4195  137.3053  180.7635 C   0  0  0  0  0  0  0  0  0  0  0  0
  145.4544  136.2322  179.7937 C   0  0  0  0  0  0  0  0  0  0  0  0
  145.2097  136.4015  178.4634 O   0  0  0  0  0  0  0  0  0  0  0  0
  145.7257  135.0453  180.1904 O   0  0  0  0  0  0  0  0  0  0  0  0
  144.4468  135.9747  177.9589 H   0  0  0  0  0  0  0  0  0  0  0  0
  145.8435  138.6213  180.2258 C   0  0  0  0  0  0  0  0  0  0  0  0
  147.2960  138.7961  180.1559 C   0  0  0  0  0  0  0  0  0  0  0  0
  147.9945  138.3344  179.0401 C   0  0  0  0  0  0  0  0  0  0  0  0
  149.3516  138.5250  179.0101 C   0  0  0  0  0  0  0  0  0  0  0  0
  150.0199  139.1529  180.0441 C   0  0  0  0  0  0  0  0  0  0  0  0
  149.3302  139.6112  181.1497 C   0  0  0  0  0  0  0  0  0  0  0  0
  147.9731  139.4304  181.1993 C   0  0  0  0  0  0  0  0  0  0  0  0
  146.4807  137.7078  185.4641 C   0  0  0  0  0  0  0  0  0  0  0  0
  147.1234  138.9179  184.8178 C   0  0  0  0  0  0  0  0  0  0  0  0
  145.1809  138.0226  185.8223 O   0  0  0  0  0  0  0  0  0  0  0  0
  145.1227  138.0742  186.8021 H   0  0  0  0  0  0  0  0  0  0  0  0
  153.2581  137.8488  187.2021 C   0  0  0  0  0  0  0  0  0  0  0  0
  152.9509  139.0602  187.3415 O   0  0  0  0  0  0  0  0  0  0  0  0
  152.9401  137.1211  186.0603 N   0  0  0  0  0  0  0  0  0  0  0  0
  153.2558  136.0997  186.0439 H   0  0  0  0  0  0  0  0  0  0  0  0
  154.0067  137.2187  188.3614 C   0  0  0  0  0  0  0  0  0  0  0  0
  154.6031  135.9877  188.0522 N   0  0  0  0  0  0  0  0  0  0  0  0
  155.8356  135.5854  187.5531 C   0  0  0  0  0  0  0  0  0  0  0  0
  156.7016  136.4877  187.2777 O   0  0  0  0  0  0  0  0  0  0  0  0
  153.9393  135.1274  188.2323 H   0  0  0  0  0  0  0  0  0  0  0  0
  156.2463  134.2008  187.3044 C   0  0  0  0  0  0  0  0  0  0  0  0
  156.8082  133.5951  188.4805 N   0  0  0  0  0  0  0  0  0  0  0  0
  158.0837  132.9920  188.5468 C   0  0  0  0  0  0  0  0  0  0  0  0
  158.8049  132.9672  187.5260 O   0  0  0  0  0  0  0  0  0  0  0  0
  156.2247  133.6069  189.3373 H   0  0  0  0  0  0  0  0  0  0  0  0
  158.5896  132.3917  189.7730 C   0  0  0  0  0  0  0  0  0  0  0  0
  159.7809  131.7221  189.8866 N   0  0  0  0  0  0  0  0  0  0  0  0
  159.9439  131.2913  191.1574 C   0  0  0  0  0  0  0  0  0  0  0  0
  160.9450  130.5836  191.7988 C   0  0  0  0  0  0  0  0  0  0  0  0
  160.8432  130.2793  193.1329 C   0  0  0  0  0  0  0  0  0  0  0  0
  159.7408  130.6644  193.8942 C   0  0  0  0  0  0  0  0  0  0  0  0
  158.7529  131.3647  193.2549 C   0  0  0  0  0  0  0  0  0  0  0  0
  158.8593  131.6685  191.9139 C   0  0  0  0  0  0  0  0  0  0  0  0
  158.0309  132.3554  191.0167 C   0  0  0  0  0  0  0  0  0  0  0  0
  156.8240  132.8882  191.4422 O   0  0  0  0  0  0  0  0  0  0  0  0
  160.4465  131.5803  189.0879 H   0  0  0  0  0  0  0  0  0  0  0  0
  156.2115  133.3814  190.8535 H   0  0  0  0  0  0  0  0  0  0  0  0
  155.3728  133.3168  186.5153 C   0  0  0  0  0  0  0  0  0  0  0  0
  155.3727  133.3697  185.0742 C   0  0  0  0  0  0  0  0  0  0  0  0
  156.2613  132.6242  184.3392 C   0  0  0  0  0  0  0  0  0  0  0  0
  156.3392  132.6615  182.9729 C   0  0  0  0  0  0  0  0  0  0  0  0
  155.4939  133.4803  182.2608 C   0  0  0  0  0  0  0  0  0  0  0  0
  154.5870  134.2446  182.9637 C   0  0  0  0  0  0  0  0  0  0  0  0
  154.5275  134.1890  184.3571 C   0  0  0  0  0  0  0  0  0  0  0  0
  154.7662  138.3275  189.0031 C   0  0  0  0  0  0  0  0  0  0  0  0
  156.6938  137.8793  190.4509 C   0  0  0  0  0  0  0  0  0  0  0  0
  155.2108  138.2182  190.3974 C   0  0  0  0  0  0  0  0  0  0  0  0
  154.7573  139.1584  191.4305 C   0  0  0  0  0  0  0  0  0  0  0  0
  153.2832  137.7064  183.8033 C   0  0  0  0  0  0  0  0  0  0  0  0
  153.5218  139.0725  183.3427 C   0  0  0  0  0  0  0  0  0  0  0  0
  152.9009  139.5681  182.1891 C   0  0  0  0  0  0  0  0  0  0  0  0
  153.1172  140.8447  181.7270 C   0  0  0  0  0  0  0  0  0  0  0  0
  153.9743  141.6615  182.4234 C   0  0  0  0  0  0  0  0  0  0  0  0
  154.6086  141.1968  183.5759 C   0  0  0  0  0  0  0  0  0  0  0  0
  154.3653  139.9109  184.0065 C   0  0  0  0  0  0  0  0  0  0  0  0
 68 69  1  0  0  0
 69 70  1  0  0  0
 69 67  1  0  0  0
 67 38  1  0  0  0
 38 39  1  0  0  0
 39 40  1  0  0  0
 40 41  2  0  0  0
 40 43  1  0  0  0
 43 60  1  0  0  0
 60 61  1  0  0  0
 61 62  2  0  0  0
 62 63  1  0  0  0
 63 64  2  0  0  0
 64 65  1  0  0  0
 65 66  2  0  0  0
 43 44  1  0  0  0
 44 45  1  0  0  0
 45 46  2  0  0  0
 45 48  1  0  0  0
 48 49  1  0  0  0
 49 50  1  0  0  0
 50 51  2  0  0  0
 51 52  1  0  0  0
 52 53  2  0  0  0
 53 54  1  0  0  0
 54 55  2  0  0  0
 55 56  1  0  0  0
 56 57  1  0  0  0
 38 34  1  0  0  0
 34 35  2  0  0  0
 34 36  1  0  0  0
 36  1  1  0  0  0
  1 71  1  0  0  0
 71 72  1  0  0  0
 72 73  2  0  0  0
 73 74  1  0  0  0
 74 75  2  0  0  0
 75 76  1  0  0  0
 76 77  2  0  0  0
  1  2  1  0  0  0
  2  3  2  0  0  0
  2  4  1  0  0  0
  4  5  1  0  0  0
  5  6  1  0  0  0
  6  7  1  0  0  0
  7  8  1  0  0  0
  8  9  1  0  0  0
  9 10  2  0  0  0
  9 11  1  0  0  0
 11 13  1  0  0  0
 13 30  1  0  0  0
 30 31  1  0  0  0
 30 32  1  0  0  0
 13 14  1  0  0  0
 14 15  2  0  0  0
 14 16  1  0  0  0
 16 18  1  0  0  0
 18 23  1  0  0  0
 23 24  1  0  0  0
 24 25  2  0  0  0
 25 26  1  0  0  0
 26 27  2  0  0  0
 27 28  1  0  0  0
 28 29  2  0  0  0
 18 19  1  0  0  0
 19 20  1  0  0  0
 19 21  2  0  0  0
 66 61  1  0  0  0
 56 48  2  0  0  0
 77 72  1  0  0  0
  8  4  1  0  0  0
 29 24  1  0  0  0
 55 50  1  0  0  0
 39 42  1  0  0  0
 44 47  1  0  0  0
 49 58  1  0  0  0
 57 59  1  0  0  0
 36 37  1  0  0  0
 11 12  1  0  0  0
 32 33  1  0  0  0
 16 17  1  0  0  0
 20 22  1  0  0  0
M  END
> <minimizedAffinity>
-8.32402

> <CNNscore>
0.2465861291

> <CNNaffinity>
6.5692720413

> <CNN_VS>
1.6198914051

> <CNNaffinity_variance>
1.1370556355

$$$$
[H]OC(=O)[C@@]([H])(N([H])C(=O)[C@@]([H])(N([H])C(=O)[C@@]1([H])N(C(=O)[C@@]([H])(N([H])C(=O)[C@@]([H])(N([H])C(=O)[C@@]([H])(N([H])C(=O)c2c(O[H])c3c([H])c([H])c([H])c([H])c3n2[H])C([H])([H])c2c([H])c([H])c([H])c([H])c2[H])C([H])([H])C([H])(C([H])([H])[H])C([H])([H])[H])C([H])([H])c2c([H])c([H])c([H])c([H])c2[H])C([H])([H])C([H])([H])C1([H])[H])[C@]([H])(O[H])C([H])([H])[H])C([H])([H])c1c([H])c([H])c([H])c([H])c1[H]


 77 82  0  0  0  0  0  0  0  0999 V2000
  154.0241  137.0150  185.8122 C   0  0  0  0  0  0  0  0  0  0  0  0
  154.0391  136.5227  187.1776 C   0  0  0  0  0  0  0  0  0  0  0  0
  153.2152  135.5408  187.4128 O   0  0  0  0  0  0  0  0  0  0  0  0
  154.8271  136.9641  188.2637 N   0  0  0  0  0  0  0  0  0  0  0  0
  155.7521  138.0669  188.2079 C   0  0  0  0  0  0  0  0  0  0  0  0
  156.7934  137.8214  189.2742 C   0  0  0  0  0  0  0  0  0  0  0  0
  156.1129  136.9198  190.2468 C   0  0  0  0  0  0  0  0  0  0  0  0
  154.8761  136.3820  189.5624 C   0  0  0  0  0  0  0  0  0  0  0  0
  153.7354  136.5948  190.4363 C   0  0  0  0  0  0  0  0  0  0  0  0
  153.5403  137.5868  191.1638 O   0  0  0  0  0  0  0  0  0  0  0  0
  152.7182  135.5812  190.4870 N   0  0  0  0  0  0  0  0  0  0  0  0
  152.7956  134.7177  189.9173 H   0  0  0  0  0  0  0  0  0  0  0  0
  151.5496  135.7443  191.3490 C   0  0  0  0  0  0  0  0  0  0  0  0
  151.7191  135.0921  192.6414 C   0  0  0  0  0  0  0  0  0  0  0  0
  152.9124  134.7938  192.9911 O   0  0  0  0  0  0  0  0  0  0  0  0
  150.7133  134.7499  193.5568 N   0  0  0  0  0  0  0  0  0  0  0  0
  149.7244  134.9676  193.3665 H   0  0  0  0  0  0  0  0  0  0  0  0
  150.9918  134.0715  194.8459 C   0  0  0  0  0  0  0  0  0  0  0  0
  150.9905  132.6357  194.6675 C   0  0  0  0  0  0  0  0  0  0  0  0
  151.9897  131.9457  194.0482 O   0  0  0  0  0  0  0  0  0  0  0  0
  149.9984  131.9563  195.1077 O   0  0  0  0  0  0  0  0  0  0  0  0
  151.8800  131.4100  193.1997 H   0  0  0  0  0  0  0  0  0  0  0  0
  150.0462  134.5536  195.8825 C   0  0  0  0  0  0  0  0  0  0  0  0
  150.6844  134.9072  197.1525 C   0  0  0  0  0  0  0  0  0  0  0  0
  151.9728  135.4417  197.1530 C   0  0  0  0  0  0  0  0  0  0  0  0
  152.5309  135.7669  198.3621 C   0  0  0  0  0  0  0  0  0  0  0  0
  151.8509  135.5774  199.5503 C   0  0  0  0  0  0  0  0  0  0  0  0
  150.5749  135.0486  199.5521 C   0  0  0  0  0  0  0  0  0  0  0  0
  149.9991  134.7167  198.3541 C   0  0  0  0  0  0  0  0  0  0  0  0
  150.3086  135.2329  190.6011 C   0  0  0  0  0  0  0  0  0  0  0  0
  150.3640  135.6670  189.1507 C   0  0  0  0  0  0  0  0  0  0  0  0
  150.3012  133.8496  190.6598 O   0  0  0  0  0  0  0  0  0  0  0  0
  149.4138  133.5468  190.9546 H   0  0  0  0  0  0  0  0  0  0  0  0
  153.3472  135.4159  183.9379 C   0  0  0  0  0  0  0  0  0  0  0  0
  154.5119  135.0685  183.6158 O   0  0  0  0  0  0  0  0  0  0  0  0
  153.0913  136.3269  184.9573 N   0  0  0  0  0  0  0  0  0  0  0  0
  152.0637  136.5567  185.1430 H   0  0  0  0  0  0  0  0  0  0  0  0
  152.2232  134.7811  183.1409 C   0  0  0  0  0  0  0  0  0  0  0  0
  151.3262  135.7053  182.5861 N   0  0  0  0  0  0  0  0  0  0  0  0
  151.4440  136.9258  181.9331 C   0  0  0  0  0  0  0  0  0  0  0  0
  152.6179  137.4037  181.7491 O   0  0  0  0  0  0  0  0  0  0  0  0
  150.2718  135.4083  182.7013 H   0  0  0  0  0  0  0  0  0  0  0  0
  150.3321  137.7356  181.4278 C   0  0  0  0  0  0  0  0  0  0  0  0
  149.3945  136.9418  180.6817 N   0  0  0  0  0  0  0  0  0  0  0  0
  148.7142  137.3741  179.5218 C   0  0  0  0  0  0  0  0  0  0  0  0
  148.9207  138.5261  179.0824 O   0  0  0  0  0  0  0  0  0  0  0  0
  149.2111  135.9830  181.0307 H   0  0  0  0  0  0  0  0  0  0  0  0
  147.7718  136.5172  178.8165 C   0  0  0  0  0  0  0  0  0  0  0  0
  146.8756  136.9458  177.8713 N   0  0  0  0  0  0  0  0  0  0  0  0
  146.1519  135.8977  177.4188 C   0  0  0  0  0  0  0  0  0  0  0  0
  145.1397  135.7762  176.4834 C   0  0  0  0  0  0  0  0  0  0  0  0
  144.5743  134.5544  176.2177 C   0  0  0  0  0  0  0  0  0  0  0  0
  144.9885  133.3938  176.8695 C   0  0  0  0  0  0  0  0  0  0  0  0
  145.9905  133.5193  177.7942 C   0  0  0  0  0  0  0  0  0  0  0  0
  146.5561  134.7491  178.0580 C   0  0  0  0  0  0  0  0  0  0  0  0
  147.5712  135.1726  178.9259 C   0  0  0  0  0  0  0  0  0  0  0  0
  148.2208  134.2615  179.7442 O   0  0  0  0  0  0  0  0  0  0  0  0
  146.7870  137.9456  177.5653 H   0  0  0  0  0  0  0  0  0  0  0  0
  148.9410  134.5079  180.3652 H   0  0  0  0  0  0  0  0  0  0  0  0
  149.7203  138.7510  182.3005 C   0  0  0  0  0  0  0  0  0  0  0  0
  148.5730  138.4340  183.1146 C   0  0  0  0  0  0  0  0  0  0  0  0
  148.7034  137.6896  184.2611 C   0  0  0  0  0  0  0  0  0  0  0  0
  147.6498  137.3207  185.0535 C   0  0  0  0  0  0  0  0  0  0  0  0
  146.3719  137.7001  184.7142 C   0  0  0  0  0  0  0  0  0  0  0  0
  146.2002  138.4489  183.5693 C   0  0  0  0  0  0  0  0  0  0  0  0
  147.2910  138.8121  182.7778 C   0  0  0  0  0  0  0  0  0  0  0  0
  152.8600  133.7088  182.3268 C   0  0  0  0  0  0  0  0  0  0  0  0
  154.1808  133.9456  180.2744 C   0  0  0  0  0  0  0  0  0  0  0  0
  152.7908  133.7440  180.8613 C   0  0  0  0  0  0  0  0  0  0  0  0
  151.9313  132.8245  180.1046 C   0  0  0  0  0  0  0  0  0  0  0  0
  153.7045  138.4844  185.6805 C   0  0  0  0  0  0  0  0  0  0  0  0
  154.5498  139.2377  184.7567 C   0  0  0  0  0  0  0  0  0  0  0  0
  155.9465  139.2001  184.8564 C   0  0  0  0  0  0  0  0  0  0  0  0
  156.7646  139.9084  184.0085 C   0  0  0  0  0  0  0  0  0  0  0  0
  156.1888  140.6808  183.0294 C   0  0  0  0  0  0  0  0  0  0  0  0
  154.8005  140.7396  182.9048 C   0  0  0  0  0  0  0  0  0  0  0  0
  154.0151  140.0147  183.7742 C   0  0  0  0  0  0  0  0  0  0  0  0
 68 69  1  0  0  0
 69 70  1  0  0  0
 69 67  1  0  0  0
 67 38  1  0  0  0
 38 39  1  0  0  0
 39 40  1  0  0  0
 40 41  2  0  0  0
 40 43  1  0  0  0
 43 60  1  0  0  0
 60 61  1  0  0  0
 61 62  2  0  0  0
 62 63  1  0  0  0
 63 64  2  0  0  0
 64 65  1  0  0  0
 65 66  2  0  0  0
 43 44  1  0  0  0
 44 45  1  0  0  0
 45 46  2  0  0  0
 45 48  1  0  0  0
 48 49  1  0  0  0
 49 50  1  0  0  0
 50 51  2  0  0  0
 51 52  1  0  0  0
 52 53  2  0  0  0
 53 54  1  0  0  0
 54 55  2  0  0  0
 55 56  1  0  0  0
 56 57  1  0  0  0
 38 34  1  0  0  0
 34 35  2  0  0  0
 34 36  1  0  0  0
 36  1  1  0  0  0
  1 71  1  0  0  0
 71 72  1  0  0  0
 72 73  2  0  0  0
 73 74  1  0  0  0
 74 75  2  0  0  0
 75 76  1  0  0  0
 76 77  2  0  0  0
  1  2  1  0  0  0
  2  3  2  0  0  0
  2  4  1  0  0  0
  4  5  1  0  0  0
  5  6  1  0  0  0
  6  7  1  0  0  0
  7  8  1  0  0  0
  8  9  1  0  0  0
  9 10  2  0  0  0
  9 11  1  0  0  0
 11 13  1  0  0  0
 13 30  1  0  0  0
 30 31  1  0  0  0
 30 32  1  0  0  0
 13 14  1  0  0  0
 14 15  2  0  0  0
 14 16  1  0  0  0
 16 18  1  0  0  0
 18 23  1  0  0  0
 23 24  1  0  0  0
 24 25  2  0  0  0
 25 26  1  0  0  0
 26 27  2  0  0  0
 27 28  1  0  0  0
 28 29  2  0  0  0
 18 19  1  0  0  0
 19 20  1  0  0  0
 19 21  2  0  0  0
 66 61  1  0  0  0
 56 48  2  0  0  0
 77 72  1  0  0  0
  8  4  1  0  0  0
 29 24  1  0  0  0
 55 50  1  0  0  0
 39 42  1  0  0  0
 44 47  1  0  0  0
 49 58  1  0  0  0
 57 59  1  0  0  0
 36 37  1  0  0  0
 11 12  1  0  0  0
 32 33  1  0  0  0
 16 17  1  0  0  0
 20 22  1  0  0  0
M  END
> <minimizedAffinity>
-7.92697

> <CNNscore>
0.2435449809

> <CNNaffinity>
6.4338517189

> <CNN_VS>
1.5669323206

> <CNNaffinity_variance>
0.5968191624

$$$$
[H]OC(=O)[C@@]([H])(N([H])C(=O)[C@@]([H])(N([H])C(=O)[C@@]1([H])N(C(=O)[C@@]([H])(N([H])C(=O)[C@@]([H])(N([H])C(=O)[C@@]([H])(N([H])C(=O)c2c(O[H])c3c([H])c([H])c([H])c([H])c3n2[H])C([H])([H])c2c([H])c([H])c([H])c([H])c2[H])C([H])([H])C([H])(C([H])([H])[H])C([H])([H])[H])C([H])([H])c2c([H])c([H])c([H])c([H])c2[H])C([H])([H])C([H])([H])C1([H])[H])[C@]([H])(O[H])C([H])([H])[H])C([H])([H])c1c([H])c([H])c([H])c([H])c1[H]


 77 82  0  0  0  0  0  0  0  0999 V2000
  153.7232  136.6558  185.9991 C   0  0  0  0  0  0  0  0  0  0  0  0
  153.7865  136.0866  187.3328 C   0  0  0  0  0  0  0  0  0  0  0  0
  152.6426  135.6821  187.8084 O   0  0  0  0  0  0  0  0  0  0  0  0
  154.9161  135.9138  188.1633 N   0  0  0  0  0  0  0  0  0  0  0  0
  156.2494  136.3455  187.8304 C   0  0  0  0  0  0  0  0  0  0  0  0
  157.2023  135.4644  188.6030 C   0  0  0  0  0  0  0  0  0  0  0  0
  156.3907  134.9694  189.7511 C   0  0  0  0  0  0  0  0  0  0  0  0
  154.9420  135.2586  189.4273 C   0  0  0  0  0  0  0  0  0  0  0  0
  154.3466  135.9536  190.5555 C   0  0  0  0  0  0  0  0  0  0  0  0
  154.8800  136.8548  191.2297 O   0  0  0  0  0  0  0  0  0  0  0  0
  153.0156  135.5882  190.9547 N   0  0  0  0  0  0  0  0  0  0  0  0
  152.4924  134.8456  190.4536 H   0  0  0  0  0  0  0  0  0  0  0  0
  152.3691  136.2553  192.0827 C   0  0  0  0  0  0  0  0  0  0  0  0
  152.2916  135.4011  193.2611 C   0  0  0  0  0  0  0  0  0  0  0  0
  153.3146  135.3722  194.0278 O   0  0  0  0  0  0  0  0  0  0  0  0
  151.2122  134.5976  193.6564 N   0  0  0  0  0  0  0  0  0  0  0  0
  150.3399  134.5715  193.1087 H   0  0  0  0  0  0  0  0  0  0  0  0
  151.2399  133.7498  194.8729 C   0  0  0  0  0  0  0  0  0  0  0  0
  151.0773  132.3568  194.5171 C   0  0  0  0  0  0  0  0  0  0  0  0
  151.4752  131.8247  193.3269 O   0  0  0  0  0  0  0  0  0  0  0  0
  150.5252  131.5622  195.3558 O   0  0  0  0  0  0  0  0  0  0  0  0
  150.8568  131.4101  192.6455 H   0  0  0  0  0  0  0  0  0  0  0  0
  150.2428  134.2445  195.8536 C   0  0  0  0  0  0  0  0  0  0  0  0
  150.8254  134.6944  197.1199 C   0  0  0  0  0  0  0  0  0  0  0  0
  150.0455  134.6981  198.2765 C   0  0  0  0  0  0  0  0  0  0  0  0
  150.6311  135.1186  199.4424 C   0  0  0  0  0  0  0  0  0  0  0  0
  151.9505  135.5280  199.4861 C   0  0  0  0  0  0  0  0  0  0  0  0
  152.7246  135.5247  198.3421 C   0  0  0  0  0  0  0  0  0  0  0  0
  152.1582  135.1082  197.1663 C   0  0  0  0  0  0  0  0  0  0  0  0
  150.9854  136.7520  191.6361 C   0  0  0  0  0  0  0  0  0  0  0  0
  150.3672  135.7610  190.6713 C   0  0  0  0  0  0  0  0  0  0  0  0
  150.1767  136.8596  192.7547 O   0  0  0  0  0  0  0  0  0  0  0  0
  149.7456  137.7428  192.7540 H   0  0  0  0  0  0  0  0  0  0  0  0
  152.7386  135.8122  183.7974 C   0  0  0  0  0  0  0  0  0  0  0  0
  153.7294  136.0960  183.0771 O   0  0  0  0  0  0  0  0  0  0  0  0
  152.7077  136.0670  185.1644 N   0  0  0  0  0  0  0  0  0  0  0  0
  151.8120  135.7920  185.6794 H   0  0  0  0  0  0  0  0  0  0  0  0
  151.5633  135.1718  183.0832 C   0  0  0  0  0  0  0  0  0  0  0  0
  150.3810  135.9232  183.1457 N   0  0  0  0  0  0  0  0  0  0  0  0
  149.4446  136.2104  184.1310 C   0  0  0  0  0  0  0  0  0  0  0  0
  149.6191  135.7103  185.2969 O   0  0  0  0  0  0  0  0  0  0  0  0
  150.1145  136.3922  182.1854 H   0  0  0  0  0  0  0  0  0  0  0  0
  148.2521  137.0447  183.9595 C   0  0  0  0  0  0  0  0  0  0  0  0
  147.3667  136.9419  185.0871 N   0  0  0  0  0  0  0  0  0  0  0  0
  145.9570  136.9074  185.0059 C   0  0  0  0  0  0  0  0  0  0  0  0
  145.4049  136.9665  183.8858 O   0  0  0  0  0  0  0  0  0  0  0  0
  147.8066  136.8910  186.0245 H   0  0  0  0  0  0  0  0  0  0  0  0
  145.1188  136.8067  186.1922 C   0  0  0  0  0  0  0  0  0  0  0  0
  145.2096  135.8168  187.1367 N   0  0  0  0  0  0  0  0  0  0  0  0
  144.2861  136.0203  188.1025 C   0  0  0  0  0  0  0  0  0  0  0  0
  143.9569  135.3377  189.2601 C   0  0  0  0  0  0  0  0  0  0  0  0
  142.9482  135.7863  190.0751 C   0  0  0  0  0  0  0  0  0  0  0  0
  142.2179  136.9361  189.7784 C   0  0  0  0  0  0  0  0  0  0  0  0
  142.5476  137.6080  188.6318 C   0  0  0  0  0  0  0  0  0  0  0  0
  143.5622  137.1538  187.8156 C   0  0  0  0  0  0  0  0  0  0  0  0
  144.1093  137.6213  186.6135 C   0  0  0  0  0  0  0  0  0  0  0  0
  143.6145  138.7705  186.0169 O   0  0  0  0  0  0  0  0  0  0  0  0
  145.9028  135.0304  187.0899 H   0  0  0  0  0  0  0  0  0  0  0  0
  143.9669  139.1407  185.1779 H   0  0  0  0  0  0  0  0  0  0  0  0
  148.3912  138.4029  183.4090 C   0  0  0  0  0  0  0  0  0  0  0  0
  148.8071  138.6098  182.0439 C   0  0  0  0  0  0  0  0  0  0  0  0
  147.9880  138.2692  180.9957 C   0  0  0  0  0  0  0  0  0  0  0  0
  148.3404  138.4021  179.6796 C   0  0  0  0  0  0  0  0  0  0  0  0
  149.5780  138.9033  179.3491 C   0  0  0  0  0  0  0  0  0  0  0  0
  150.4291  139.2570  180.3744 C   0  0  0  0  0  0  0  0  0  0  0  0
  150.0464  139.1115  181.7088 C   0  0  0  0  0  0  0  0  0  0  0  0
  152.1053  134.6539  181.7963 C   0  0  0  0  0  0  0  0  0  0  0  0
  150.3639  133.1686  180.9166 C   0  0  0  0  0  0  0  0  0  0  0  0
  151.8149  133.2824  181.3624 C   0  0  0  0  0  0  0  0  0  0  0  0
  152.7679  132.5067  180.5581 C   0  0  0  0  0  0  0  0  0  0  0  0
  153.4787  138.1450  185.9654 C   0  0  0  0  0  0  0  0  0  0  0  0
  154.3412  138.9098  185.0674 C   0  0  0  0  0  0  0  0  0  0  0  0
  153.8162  139.5879  183.9599 C   0  0  0  0  0  0  0  0  0  0  0  0
  154.6063  140.3043  183.0925 C   0  0  0  0  0  0  0  0  0  0  0  0
  155.9596  140.3547  183.3222 C   0  0  0  0  0  0  0  0  0  0  0  0
  156.5131  139.6893  184.4164 C   0  0  0  0  0  0  0  0  0  0  0  0
  155.6872  138.9821  185.2626 C   0  0  0  0  0  0  0  0  0  0  0  0
 68 69  1  0  0  0
 69 70  1  0  0  0
 69 67  1  0  0  0
 67 38  1  0  0  0
 38 39  1  0  0  0
 39 40  1  0  0  0
 40 41  2  0  0  0
 40 43  1  0  0  0
 43 60  1  0  0  0
 60 61  1  0  0  0
 61 62  2  0  0  0
 62 63  1  0  0  0
 63 64  2  0  0  0
 64 65  1  0  0  0
 65 66  2  0  0  0
 43 44  1  0  0  0
 44 45  1  0  0  0
 45 46  2  0  0  0
 45 48  1  0  0  0
 48 49  1  0  0  0
 49 50  1  0  0  0
 50 51  2  0  0  0
 51 52  1  0  0  0
 52 53  2  0  0  0
 53 54  1  0  0  0
 54 55  2  0  0  0
 55 56  1  0  0  0
 56 57  1  0  0  0
 38 34  1  0  0  0
 34 35  2  0  0  0
 34 36  1  0  0  0
 36  1  1  0  0  0
  1 71  1  0  0  0
 71 72  1  0  0  0
 72 73  2  0  0  0
 73 74  1  0  0  0
 74 75  2  0  0  0
 75 76  1  0  0  0
 76 77  2  0  0  0
  1  2  1  0  0  0
  2  3  2  0  0  0
  2  4  1  0  0  0
  4  5  1  0  0  0
  5  6  1  0  0  0
  6  7  1  0  0  0
  7  8  1  0  0  0
  8  9  1  0  0  0
  9 10  2  0  0  0
  9 11  1  0  0  0
 11 13  1  0  0  0
 13 30  1  0  0  0
 30 31  1  0  0  0
 30 32  1  0  0  0
 13 14  1  0  0  0
 14 15  2  0  0  0
 14 16  1  0  0  0
 16 18  1  0  0  0
 18 23  1  0  0  0
 23 24  1  0  0  0
 24 25  2  0  0  0
 25 26  1  0  0  0
 26 27  2  0  0  0
 27 28  1  0  0  0
 28 29  2  0  0  0
 18 19  1  0  0  0
 19 20  1  0  0  0
 19 21  2  0  0  0
 66 61  1  0  0  0
 56 48  2  0  0  0
 77 72  1  0  0  0
  8  4  1  0  0  0
 29 24  1  0  0  0
 55 50  1  0  0  0
 39 42  1  0  0  0
 44 47  1  0  0  0
 49 58  1  0  0  0
 57 59  1  0  0  0
 36 37  1  0  0  0
 11 12  1  0  0  0
 32 33  1  0  0  0
 16 17  1  0  0  0
 20 22  1  0  0  0
M  END
> <minimizedAffinity>
-8.84304

> <CNNscore>
0.2176932991

> <CNNaffinity>
6.9116106033

> <CNN_VS>
1.5046113729

> <CNNaffinity_variance>
0.6225234866

$$$$
[H]OC(=O)[C@@]([H])(N([H])C(=O)[C@@]([H])(N([H])C(=O)[C@@]1([H])N(C(=O)[C@@]([H])(N([H])C(=O)[C@@]([H])(N([H])C(=O)[C@@]([H])(N([H])C(=O)c2c(O[H])c3c([H])c([H])c([H])c([H])c3n2[H])C([H])([H])c2c([H])c([H])c([H])c([H])c2[H])C([H])([H])C([H])(C([H])([H])[H])C([H])([H])[H])C([H])([H])c2c([H])c([H])c([H])c([H])c2[H])C([H])([H])C([H])([H])C1([H])[H])[C@]([H])(O[H])C([H])([H])[H])C([H])([H])c1c([H])c([H])c([H])c([H])c1[H]


 77 82  0  0  0  0  0  0  0  0999 V2000
  156.0008  134.8031  187.5697 C   0  0  0  0  0  0  0  0  0  0  0  0
  154.9779  135.5106  186.8214 C   0  0  0  0  0  0  0  0  0  0  0  0
  154.4566  134.8349  185.8366 O   0  0  0  0  0  0  0  0  0  0  0  0
  154.4811  136.8168  187.0282 N   0  0  0  0  0  0  0  0  0  0  0  0
  154.9701  137.7283  188.0305 C   0  0  0  0  0  0  0  0  0  0  0  0
  153.8413  138.6810  188.3463 C   0  0  0  0  0  0  0  0  0  0  0  0
  152.9788  138.6389  187.1313 C   0  0  0  0  0  0  0  0  0  0  0  0
  153.4051  137.4313  186.3266 C   0  0  0  0  0  0  0  0  0  0  0  0
  153.6498  137.8516  184.9578 C   0  0  0  0  0  0  0  0  0  0  0  0
  153.3409  137.2226  183.9281 O   0  0  0  0  0  0  0  0  0  0  0  0
  154.3095  139.1093  184.7395 N   0  0  0  0  0  0  0  0  0  0  0  0
  154.6067  139.7023  185.5373 H   0  0  0  0  0  0  0  0  0  0  0  0
  154.5804  139.5802  183.3830 C   0  0  0  0  0  0  0  0  0  0  0  0
  155.7839  140.3992  183.3109 C   0  0  0  0  0  0  0  0  0  0  0  0
  155.8755  141.3735  184.1341 O   0  0  0  0  0  0  0  0  0  0  0  0
  156.8661  140.2406  182.4330 N   0  0  0  0  0  0  0  0  0  0  0  0
  156.8863  139.4721  181.7470 H   0  0  0  0  0  0  0  0  0  0  0  0
  158.0435  141.1424  182.4319 C   0  0  0  0  0  0  0  0  0  0  0  0
  158.3046  141.6245  181.0929 C   0  0  0  0  0  0  0  0  0  0  0  0
  159.3727  142.4033  180.7601 O   0  0  0  0  0  0  0  0  0  0  0  0
  157.4931  141.3146  180.1522 O   0  0  0  0  0  0  0  0  0  0  0  0
  159.3099  143.3437  180.3989 H   0  0  0  0  0  0  0  0  0  0  0  0
  159.1989  140.4616  183.0663 C   0  0  0  0  0  0  0  0  0  0  0  0
  159.7965  141.2104  184.1741 C   0  0  0  0  0  0  0  0  0  0  0  0
  159.0606  141.4245  185.3397 C   0  0  0  0  0  0  0  0  0  0  0  0
  159.6594  142.1228  186.3560 C   0  0  0  0  0  0  0  0  0  0  0  0
  160.9499  142.6049  186.2441 C   0  0  0  0  0  0  0  0  0  0  0  0
  161.6805  142.3937  185.0910 C   0  0  0  0  0  0  0  0  0  0  0  0
  161.1002  141.6981  184.0633 C   0  0  0  0  0  0  0  0  0  0  0  0
  153.3416  140.3250  182.8619 C   0  0  0  0  0  0  0  0  0  0  0  0
  153.7632  141.4289  181.9139 C   0  0  0  0  0  0  0  0  0  0  0  0
  152.5430  139.4229  182.1797 O   0  0  0  0  0  0  0  0  0  0  0  0
  151.6191  139.5040  182.5049 H   0  0  0  0  0  0  0  0  0  0  0  0
  155.5145  134.5324  190.0634 C   0  0  0  0  0  0  0  0  0  0  0  0
  156.0125  135.6278  190.4282 O   0  0  0  0  0  0  0  0  0  0  0  0
  155.4998  134.1207  188.7350 N   0  0  0  0  0  0  0  0  0  0  0  0
  155.0577  133.1674  188.5373 H   0  0  0  0  0  0  0  0  0  0  0  0
  154.9267  133.6729  191.1667 C   0  0  0  0  0  0  0  0  0  0  0  0
  153.5600  133.8916  191.3917 N   0  0  0  0  0  0  0  0  0  0  0  0
  152.5482  134.5781  190.7322 C   0  0  0  0  0  0  0  0  0  0  0  0
  152.8404  135.1924  189.6472 O   0  0  0  0  0  0  0  0  0  0  0  0
  153.1926  133.4213  192.3176 H   0  0  0  0  0  0  0  0  0  0  0  0
  151.1525  134.6706  191.1692 C   0  0  0  0  0  0  0  0  0  0  0  0
  151.0389  134.5945  192.6001 N   0  0  0  0  0  0  0  0  0  0  0  0
  151.6036  135.5204  193.5049 C   0  0  0  0  0  0  0  0  0  0  0  0
  152.2553  136.4914  193.0629 O   0  0  0  0  0  0  0  0  0  0  0  0
  150.5012  133.7961  192.9851 H   0  0  0  0  0  0  0  0  0  0  0  0
  151.4530  135.3796  194.9462 C   0  0  0  0  0  0  0  0  0  0  0  0
  152.3723  135.7923  195.8763 N   0  0  0  0  0  0  0  0  0  0  0  0
  151.9230  135.5103  197.1196 C   0  0  0  0  0  0  0  0  0  0  0  0
  152.4439  135.7115  198.3855 C   0  0  0  0  0  0  0  0  0  0  0  0
  151.7487  135.3150  199.5002 C   0  0  0  0  0  0  0  0  0  0  0  0
  150.5013  134.6993  199.4099 C   0  0  0  0  0  0  0  0  0  0  0  0
  149.9902  134.5025  198.1550 C   0  0  0  0  0  0  0  0  0  0  0  0
  150.6921  134.9027  197.0373 C   0  0  0  0  0  0  0  0  0  0  0  0
  150.4277  134.8365  195.6630 C   0  0  0  0  0  0  0  0  0  0  0  0
  149.2484  134.2730  195.2012 O   0  0  0  0  0  0  0  0  0  0  0  0
  153.2813  136.2549  195.6297 H   0  0  0  0  0  0  0  0  0  0  0  0
  149.0151  134.2076  194.2492 H   0  0  0  0  0  0  0  0  0  0  0  0
  150.2576  135.6511  190.5329 C   0  0  0  0  0  0  0  0  0  0  0  0
  149.0023  135.2415  189.9533 C   0  0  0  0  0  0  0  0  0  0  0  0
  148.3800  136.0089  188.9997 C   0  0  0  0  0  0  0  0  0  0  0  0
  147.1695  135.6965  188.4418 C   0  0  0  0  0  0  0  0  0  0  0  0
  146.5089  134.5552  188.8335 C   0  0  0  0  0  0  0  0  0  0  0  0
  147.1023  133.7583  189.7893 C   0  0  0  0  0  0  0  0  0  0  0  0
  148.3374  134.0989  190.3433 C   0  0  0  0  0  0  0  0  0  0  0  0
  155.4866  132.3086  190.9585 C   0  0  0  0  0  0  0  0  0  0  0  0
  156.9284  130.3901  191.4620 C   0  0  0  0  0  0  0  0  0  0  0  0
  156.6895  131.8776  191.6803 C   0  0  0  0  0  0  0  0  0  0  0  0
  157.9075  132.6975  191.7140 C   0  0  0  0  0  0  0  0  0  0  0  0
  156.7555  133.7672  186.7723 C   0  0  0  0  0  0  0  0  0  0  0  0
  157.8572  133.1078  187.4699 C   0  0  0  0  0  0  0  0  0  0  0  0
  157.8290  131.7325  187.7342 C   0  0  0  0  0  0  0  0  0  0  0  0
  158.8460  131.0894  188.3991 C   0  0  0  0  0  0  0  0  0  0  0  0
  159.9274  131.8247  188.8192 C   0  0  0  0  0  0  0  0  0  0  0  0
  159.9848  133.1965  188.5717 C   0  0  0  0  0  0  0  0  0  0  0  0
  158.9453  133.8040  187.9019 C   0  0  0  0  0  0  0  0  0  0  0  0
 68 69  1  0  0  0
 69 70  1  0  0  0
 69 67  1  0  0  0
 67 38  1  0  0  0
 38 39  1  0  0  0
 39 40  1  0  0  0
 40 41  2  0  0  0
 40 43  1  0  0  0
 43 60  1  0  0  0
 60 61  1  0  0  0
 61 62  2  0  0  0
 62 63  1  0  0  0
 63 64  2  0  0  0
 64 65  1  0  0  0
 65 66  2  0  0  0
 43 44  1  0  0  0
 44 45  1  0  0  0
 45 46  2  0  0  0
 45 48  1  0  0  0
 48 49  1  0  0  0
 49 50  1  0  0  0
 50 51  2  0  0  0
 51 52  1  0  0  0
 52 53  2  0  0  0
 53 54  1  0  0  0
 54 55  2  0  0  0
 55 56  1  0  0  0
 56 57  1  0  0  0
 38 34  1  0  0  0
 34 35  2  0  0  0
 34 36  1  0  0  0
 36  1  1  0  0  0
  1 71  1  0  0  0
 71 72  1  0  0  0
 72 73  2  0  0  0
 73 74  1  0  0  0
 74 75  2  0  0  0
 75 76  1  0  0  0
 76 77  2  0  0  0
  1  2  1  0  0  0
  2  3  2  0  0  0
  2  4  1  0  0  0
  4  5  1  0  0  0
  5  6  1  0  0  0
  6  7  1  0  0  0
  7  8  1  0  0  0
  8  9  1  0  0  0
  9 10  2  0  0  0
  9 11  1  0  0  0
 11 13  1  0  0  0
 13 30  1  0  0  0
 30 31  1  0  0  0
 30 32  1  0  0  0
 13 14  1  0  0  0
 14 15  2  0  0  0
 14 16  1  0  0  0
 16 18  1  0  0  0
 18 23  1  0  0  0
 23 24  1  0  0  0
 24 25  2  0  0  0
 25 26  1  0  0  0
 26 27  2  0  0  0
 27 28  1  0  0  0
 28 29  2  0  0  0
 18 19  1  0  0  0
 19 20  1  0  0  0
 19 21  2  0  0  0
 66 61  1  0  0  0
 56 48  2  0  0  0
 77 72  1  0  0  0
  8  4  1  0  0  0
 29 24  1  0  0  0
 55 50  1  0  0  0
 39 42  1  0  0  0
 44 47  1  0  0  0
 49 58  1  0  0  0
 57 59  1  0  0  0
 36 37  1  0  0  0
 11 12  1  0  0  0
 32 33  1  0  0  0
 16 17  1  0  0  0
 20 22  1  0  0  0
M  END
> <minimizedAffinity>
-9.85927

> <CNNscore>
0.2168417126

> <CNNaffinity>
7.1495971680

> <CNN_VS>
1.5503308773

> <CNNaffinity_variance>
0.7079162598

$$$$
[H]OC(=O)[C@@]([H])(N([H])C(=O)[C@@]([H])(N([H])C(=O)[C@@]1([H])N(C(=O)[C@@]([H])(N([H])C(=O)[C@@]([H])(N([H])C(=O)[C@@]([H])(N([H])C(=O)c2c(O[H])c3c([H])c([H])c([H])c([H])c3n2[H])C([H])([H])c2c([H])c([H])c([H])c([H])c2[H])C([H])([H])C([H])(C([H])([H])[H])C([H])([H])[H])C([H])([H])c2c([H])c([H])c([H])c([H])c2[H])C([H])([H])C([H])([H])C1([H])[H])[C@]([H])(O[H])C([H])([H])[H])C([H])([H])c1c([H])c([H])c([H])c([H])c1[H]


 77 82  0  0  0  0  0  0  0  0999 V2000
  153.9194  137.1877  186.3531 C   0  0  0  0  0  0  0  0  0  0  0  0
  153.2891  135.8815  186.2943 C   0  0  0  0  0  0  0  0  0  0  0  0
  152.4976  135.6119  187.2938 O   0  0  0  0  0  0  0  0  0  0  0  0
  153.4201  134.8850  185.3016 N   0  0  0  0  0  0  0  0  0  0  0  0
  154.2862  134.9821  184.1548 C   0  0  0  0  0  0  0  0  0  0  0  0
  153.6974  134.0955  183.0831 C   0  0  0  0  0  0  0  0  0  0  0  0
  152.8703  133.1119  183.8383 C   0  0  0  0  0  0  0  0  0  0  0  0
  152.7026  133.6566  185.2392 C   0  0  0  0  0  0  0  0  0  0  0  0
  153.0686  132.6171  186.1855 C   0  0  0  0  0  0  0  0  0  0  0  0
  152.3832  131.6220  186.4878 O   0  0  0  0  0  0  0  0  0  0  0  0
  154.3374  132.7195  186.8522 N   0  0  0  0  0  0  0  0  0  0  0  0
  154.9760  133.5158  186.6660 H   0  0  0  0  0  0  0  0  0  0  0  0
  154.7556  131.7016  187.8135 C   0  0  0  0  0  0  0  0  0  0  0  0
  155.0303  132.2629  189.1303 C   0  0  0  0  0  0  0  0  0  0  0  0
  154.7850  131.5208  190.1424 O   0  0  0  0  0  0  0  0  0  0  0  0
  155.5388  133.5376  189.4194 N   0  0  0  0  0  0  0  0  0  0  0  0
  155.7815  134.1969  188.6658 H   0  0  0  0  0  0  0  0  0  0  0  0
  155.7701  134.0197  190.8027 C   0  0  0  0  0  0  0  0  0  0  0  0
  154.7386  134.9596  191.1852 C   0  0  0  0  0  0  0  0  0  0  0  0
  154.7269  135.6354  192.3689 O   0  0  0  0  0  0  0  0  0  0  0  0
  153.7691  135.1797  190.3783 O   0  0  0  0  0  0  0  0  0  0  0  0
  154.0140  135.5442  193.0775 H   0  0  0  0  0  0  0  0  0  0  0  0
  157.1495  134.5515  190.9259 C   0  0  0  0  0  0  0  0  0  0  0  0
  158.0938  133.9872  189.9589 C   0  0  0  0  0  0  0  0  0  0  0  0
  158.3437  134.6609  188.7633 C   0  0  0  0  0  0  0  0  0  0  0  0
  159.2404  134.1033  187.8891 C   0  0  0  0  0  0  0  0  0  0  0  0
  159.8840  132.9128  188.1698 C   0  0  0  0  0  0  0  0  0  0  0  0
  159.6383  132.2442  189.3533 C   0  0  0  0  0  0  0  0  0  0  0  0
  158.7454  132.7847  190.2406 C   0  0  0  0  0  0  0  0  0  0  0  0
  155.9667  130.9490  187.2411 C   0  0  0  0  0  0  0  0  0  0  0  0
  156.7157  131.8382  186.2698 C   0  0  0  0  0  0  0  0  0  0  0  0
  156.8079  130.6126  188.2880 O   0  0  0  0  0  0  0  0  0  0  0  0
  157.0384  129.6596  188.2195 H   0  0  0  0  0  0  0  0  0  0  0  0
  154.5286  138.8654  184.5248 C   0  0  0  0  0  0  0  0  0  0  0  0
  155.7212  139.0425  184.8818 O   0  0  0  0  0  0  0  0  0  0  0  0
  153.6640  138.0079  185.1970 N   0  0  0  0  0  0  0  0  0  0  0  0
  152.6689  137.9381  184.8123 H   0  0  0  0  0  0  0  0  0  0  0  0
  154.0788  139.6511  183.3075 C   0  0  0  0  0  0  0  0  0  0  0  0
  152.8365  139.2480  182.7969 N   0  0  0  0  0  0  0  0  0  0  0  0
  152.2251  139.2774  181.5498 C   0  0  0  0  0  0  0  0  0  0  0  0
  152.8767  139.7773  180.5671 O   0  0  0  0  0  0  0  0  0  0  0  0
  152.1736  138.8143  183.5622 H   0  0  0  0  0  0  0  0  0  0  0  0
  150.8789  138.7844  181.2461 C   0  0  0  0  0  0  0  0  0  0  0  0
  150.1414  138.4851  182.4429 N   0  0  0  0  0  0  0  0  0  0  0  0
  150.3215  137.3289  183.2340 C   0  0  0  0  0  0  0  0  0  0  0  0
  151.1787  136.4829  182.8987 O   0  0  0  0  0  0  0  0  0  0  0  0
  149.4266  139.1758  182.7372 H   0  0  0  0  0  0  0  0  0  0  0  0
  149.5346  137.0862  184.4348 C   0  0  0  0  0  0  0  0  0  0  0  0
  150.0321  136.5942  185.6140 N   0  0  0  0  0  0  0  0  0  0  0  0
  149.0361  136.4886  186.5218 C   0  0  0  0  0  0  0  0  0  0  0  0
  148.9917  136.0608  187.8368 C   0  0  0  0  0  0  0  0  0  0  0  0
  147.8103  136.0634  188.5349 C   0  0  0  0  0  0  0  0  0  0  0  0
  146.6155  136.4921  187.9587 C   0  0  0  0  0  0  0  0  0  0  0  0
  146.6647  136.9145  186.6572 C   0  0  0  0  0  0  0  0  0  0  0  0
  147.8542  136.9104  185.9594 C   0  0  0  0  0  0  0  0  0  0  0  0
  148.2019  137.2776  184.6528 C   0  0  0  0  0  0  0  0  0  0  0  0
  147.2397  137.7602  183.7794 O   0  0  0  0  0  0  0  0  0  0  0  0
  151.0408  136.3448  185.7604 H   0  0  0  0  0  0  0  0  0  0  0  0
  147.4341  138.0349  182.8565 H   0  0  0  0  0  0  0  0  0  0  0  0
  150.0916  139.4341  180.1853 C   0  0  0  0  0  0  0  0  0  0  0  0
  148.7665  138.9700  179.8565 C   0  0  0  0  0  0  0  0  0  0  0  0
  147.6878  139.2974  180.6406 C   0  0  0  0  0  0  0  0  0  0  0  0
  146.4136  138.8553  180.4058 C   0  0  0  0  0  0  0  0  0  0  0  0
  146.1604  138.0349  179.3312 C   0  0  0  0  0  0  0  0  0  0  0  0
  147.2184  137.6839  178.5199 C   0  0  0  0  0  0  0  0  0  0  0  0
  148.5088  138.1478  178.7807 C   0  0  0  0  0  0  0  0  0  0  0  0
  154.3859  141.0767  183.6100 C   0  0  0  0  0  0  0  0  0  0  0  0
  154.0707  143.3550  182.7599 C   0  0  0  0  0  0  0  0  0  0  0  0
  154.7423  142.0079  182.5332 C   0  0  0  0  0  0  0  0  0  0  0  0
  156.1068  142.0839  181.9955 C   0  0  0  0  0  0  0  0  0  0  0  0
  153.5251  138.0193  187.5496 C   0  0  0  0  0  0  0  0  0  0  0  0
  154.5236  138.1164  188.6121 C   0  0  0  0  0  0  0  0  0  0  0  0
  155.8442  137.6965  188.4074 C   0  0  0  0  0  0  0  0  0  0  0  0
  156.8000  137.7654  189.3931 C   0  0  0  0  0  0  0  0  0  0  0  0
  156.4442  138.2636  190.6227 C   0  0  0  0  0  0  0  0  0  0  0  0
  155.1366  138.6894  190.8580 C   0  0  0  0  0  0  0  0  0  0  0  0
  154.2079  138.6042  189.8439 C   0  0  0  0  0  0  0  0  0  0  0  0
 68 69  1  0  0  0
 69 70  1  0  0  0
 69 67  1  0  0  0
 67 38  1  0  0  0
 38 39  1  0  0  0
 39 40  1  0  0  0
 40 41  2  0  0  0
 40 43  1  0  0  0
 43 60  1  0  0  0
 60 61  1  0  0  0
 61 62  2  0  0  0
 62 63  1  0  0  0
 63 64  2  0  0  0
 64 65  1  0  0  0
 65 66  2  0  0  0
 43 44  1  0  0  0
 44 45  1  0  0  0
 45 46  2  0  0  0
 45 48  1  0  0  0
 48 49  1  0  0  0
 49 50  1  0  0  0
 50 51  2  0  0  0
 51 52  1  0  0  0
 52 53  2  0  0  0
 53 54  1  0  0  0
 54 55  2  0  0  0
 55 56  1  0  0  0
 56 57  1  0  0  0
 38 34  1  0  0  0
 34 35  2  0  0  0
 34 36  1  0  0  0
 36  1  1  0  0  0
  1 71  1  0  0  0
 71 72  1  0  0  0
 72 73  2  0  0  0
 73 74  1  0  0  0
 74 75  2  0  0  0
 75 76  1  0  0  0
 76 77  2  0  0  0
  1  2  1  0  0  0
  2  3  2  0  0  0
  2  4  1  0  0  0
  4  5  1  0  0  0
  5  6  1  0  0  0
  6  7  1  0  0  0
  7  8  1  0  0  0
  8  9  1  0  0  0
  9 10  2  0  0  0
  9 11  1  0  0  0
 11 13  1  0  0  0
 13 30  1  0  0  0
 30 31  1  0  0  0
 30 32  1  0  0  0
 13 14  1  0  0  0
 14 15  2  0  0  0
 14 16  1  0  0  0
 16 18  1  0  0  0
 18 23  1  0  0  0
 23 24  1  0  0  0
 24 25  2  0  0  0
 25 26  1  0  0  0
 26 27  2  0  0  0
 27 28  1  0  0  0
 28 29  2  0  0  0
 18 19  1  0  0  0
 19 20  1  0  0  0
 19 21  2  0  0  0
 66 61  1  0  0  0
 56 48  2  0  0  0
 77 72  1  0  0  0
  8  4  1  0  0  0
 29 24  1  0  0  0
 55 50  1  0  0  0
 39 42  1  0  0  0
 44 47  1  0  0  0
 49 58  1  0  0  0
 57 59  1  0  0  0
 36 37  1  0  0  0
 11 12  1  0  0  0
 32 33  1  0  0  0
 16 17  1  0  0  0
 20 22  1  0  0  0
M  END
> <minimizedAffinity>
-8.51612

> <CNNscore>
0.2153208405

> <CNNaffinity>
6.6764364243

> <CNN_VS>
1.4375759363

> <CNNaffinity_variance>
2.2020168304

$$$$
[H]OC(=O)[C@@]([H])(N([H])C(=O)[C@@]([H])(N([H])C(=O)[C@@]1([H])N(C(=O)[C@@]([H])(N([H])C(=O)[C@@]([H])(N([H])C(=O)[C@@]([H])(N([H])C(=O)c2c(O[H])c3c([H])c([H])c([H])c([H])c3n2[H])C([H])([H])c2c([H])c([H])c([H])c([H])c2[H])C([H])([H])C([H])(C([H])([H])[H])C([H])([H])[H])C([H])([H])c2c([H])c([H])c([H])c([H])c2[H])C([H])([H])C([H])([H])C1([H])[H])[C@]([H])(O[H])C([H])([H])[H])C([H])([H])c1c([H])c([H])c([H])c([H])c1[H]


 77 82  0  0  0  0  0  0  0  0999 V2000
  154.6665  134.1518  185.2829 C   0  0  0  0  0  0  0  0  0  0  0  0
  154.0910  135.4282  184.9003 C   0  0  0  0  0  0  0  0  0  0  0  0
  153.4188  135.4112  183.7840 O   0  0  0  0  0  0  0  0  0  0  0  0
  154.1626  136.6649  185.5794 N   0  0  0  0  0  0  0  0  0  0  0  0
  154.9014  136.8883  186.7956 C   0  0  0  0  0  0  0  0  0  0  0  0
  154.2449  138.0513  187.5012 C   0  0  0  0  0  0  0  0  0  0  0  0
  153.5433  138.7887  186.4122 C   0  0  0  0  0  0  0  0  0  0  0  0
  153.4967  137.8690  185.2125 C   0  0  0  0  0  0  0  0  0  0  0  0
  154.0031  138.5904  184.0577 C   0  0  0  0  0  0  0  0  0  0  0  0
  153.5991  138.4789  182.8848 O   0  0  0  0  0  0  0  0  0  0  0  0
  155.0720  139.5298  184.2569 N   0  0  0  0  0  0  0  0  0  0  0  0
  155.4752  139.6883  185.1996 H   0  0  0  0  0  0  0  0  0  0  0  0
  155.6188  140.2824  183.1301 C   0  0  0  0  0  0  0  0  0  0  0  0
  156.7512  141.1145  183.5170 C   0  0  0  0  0  0  0  0  0  0  0  0
  156.9488  141.2834  184.7691 O   0  0  0  0  0  0  0  0  0  0  0  0
  157.6600  141.7589  182.6652 N   0  0  0  0  0  0  0  0  0  0  0  0
  157.5883  141.6649  181.6417 H   0  0  0  0  0  0  0  0  0  0  0  0
  158.7762  142.5993  183.1628 C   0  0  0  0  0  0  0  0  0  0  0  0
  159.0046  143.7117  182.2662 C   0  0  0  0  0  0  0  0  0  0  0  0
  158.9279  143.6218  180.9082 O   0  0  0  0  0  0  0  0  0  0  0  0
  159.3015  144.8556  182.7592 O   0  0  0  0  0  0  0  0  0  0  0  0
  159.6980  143.7814  180.2757 H   0  0  0  0  0  0  0  0  0  0  0  0
  159.9738  141.7563  183.3990 C   0  0  0  0  0  0  0  0  0  0  0  0
  160.7301  142.1192  184.5997 C   0  0  0  0  0  0  0  0  0  0  0  0
  160.0490  142.4648  185.7670 C   0  0  0  0  0  0  0  0  0  0  0  0
  160.7940  142.7899  186.8708 C   0  0  0  0  0  0  0  0  0  0  0  0
  162.1757  142.7795  186.8432 C   0  0  0  0  0  0  0  0  0  0  0  0
  162.8522  142.4373  185.6886 C   0  0  0  0  0  0  0  0  0  0  0  0
  162.1261  142.1092  184.5741 C   0  0  0  0  0  0  0  0  0  0  0  0
  154.4892  141.1039  182.4897 C   0  0  0  0  0  0  0  0  0  0  0  0
  154.2351  142.3558  183.3041 C   0  0  0  0  0  0  0  0  0  0  0  0
  154.8814  141.4665  181.2124 O   0  0  0  0  0  0  0  0  0  0  0  0
  154.1610  141.2448  180.5816 H   0  0  0  0  0  0  0  0  0  0  0  0
  154.7980  132.8151  187.4565 C   0  0  0  0  0  0  0  0  0  0  0  0
  155.9659  132.3803  187.2891 O   0  0  0  0  0  0  0  0  0  0  0  0
  154.1656  133.6407  186.5329 N   0  0  0  0  0  0  0  0  0  0  0  0
  153.1692  133.9463  186.7719 H   0  0  0  0  0  0  0  0  0  0  0  0
  154.1074  132.3810  188.7356 C   0  0  0  0  0  0  0  0  0  0  0  0
  153.4557  133.4220  189.4123 N   0  0  0  0  0  0  0  0  0  0  0  0
  153.1570  133.7021  190.7398 C   0  0  0  0  0  0  0  0  0  0  0  0
  153.5252  132.8624  191.6339 O   0  0  0  0  0  0  0  0  0  0  0  0
  153.0736  134.2047  188.7379 H   0  0  0  0  0  0  0  0  0  0  0  0
  152.4447  134.8878  191.2238 C   0  0  0  0  0  0  0  0  0  0  0  0
  152.3983  134.9289  192.6598 N   0  0  0  0  0  0  0  0  0  0  0  0
  151.2262  134.7813  193.4340 C   0  0  0  0  0  0  0  0  0  0  0  0
  150.1307  134.5978  192.8605 O   0  0  0  0  0  0  0  0  0  0  0  0
  153.2977  135.0794  193.1530 H   0  0  0  0  0  0  0  0  0  0  0  0
  151.2510  134.8384  194.8887 C   0  0  0  0  0  0  0  0  0  0  0  0
  152.2453  135.4164  195.6355 N   0  0  0  0  0  0  0  0  0  0  0  0
  151.9594  135.2932  196.9509 C   0  0  0  0  0  0  0  0  0  0  0  0
  152.6097  135.6924  198.1051 C   0  0  0  0  0  0  0  0  0  0  0  0
  152.0720  135.4275  199.3394 C   0  0  0  0  0  0  0  0  0  0  0  0
  150.8609  134.7528  199.4858 C   0  0  0  0  0  0  0  0  0  0  0  0
  150.2212  134.3601  198.3406 C   0  0  0  0  0  0  0  0  0  0  0  0
  150.7651  134.6285  197.1021 C   0  0  0  0  0  0  0  0  0  0  0  0
  150.3487  134.3585  195.7919 C   0  0  0  0  0  0  0  0  0  0  0  0
  149.1593  133.6862  195.5575 O   0  0  0  0  0  0  0  0  0  0  0  0
  153.0910  135.8777  195.2198 H   0  0  0  0  0  0  0  0  0  0  0  0
  148.8224  133.4777  194.6586 H   0  0  0  0  0  0  0  0  0  0  0  0
  152.6831  136.1895  190.5790 C   0  0  0  0  0  0  0  0  0  0  0  0
  153.9495  136.8648  190.7195 C   0  0  0  0  0  0  0  0  0  0  0  0
  154.0126  138.1667  191.1517 C   0  0  0  0  0  0  0  0  0  0  0  0
  155.1782  138.8754  191.2663 C   0  0  0  0  0  0  0  0  0  0  0  0
  156.3755  138.2820  190.9398 C   0  0  0  0  0  0  0  0  0  0  0  0
  156.3532  136.9749  190.5018 C   0  0  0  0  0  0  0  0  0  0  0  0
  155.1512  136.2737  190.3932 C   0  0  0  0  0  0  0  0  0  0  0  0
  153.4248  131.0976  188.4114 C   0  0  0  0  0  0  0  0  0  0  0  0
  151.3360  130.6797  189.6259 C   0  0  0  0  0  0  0  0  0  0  0  0
  151.9637  131.0404  188.2868 C   0  0  0  0  0  0  0  0  0  0  0  0
  151.2141  132.0309  187.5033 C   0  0  0  0  0  0  0  0  0  0  0  0
  154.4688  133.0482  184.2721 C   0  0  0  0  0  0  0  0  0  0  0  0
  155.6292  132.7323  183.4421 C   0  0  0  0  0  0  0  0  0  0  0  0
  155.6928  133.1328  182.1013 C   0  0  0  0  0  0  0  0  0  0  0  0
  156.7666  132.8384  181.2950 C   0  0  0  0  0  0  0  0  0  0  0  0
  157.8135  132.1248  181.8257 C   0  0  0  0  0  0  0  0  0  0  0  0
  157.7796  131.7110  183.1577 C   0  0  0  0  0  0  0  0  0  0  0  0
  156.6853  132.0262  183.9331 C   0  0  0  0  0  0  0  0  0  0  0  0
 68 69  1  0  0  0
 69 70  1  0  0  0
 69 67  1  0  0  0
 67 38  1  0  0  0
 38 39  1  0  0  0
 39 40  1  0  0  0
 40 41  2  0  0  0
 40 43  1  0  0  0
 43 60  1  0  0  0
 60 61  1  0  0  0
 61 62  2  0  0  0
 62 63  1  0  0  0
 63 64  2  0  0  0
 64 65  1  0  0  0
 65 66  2  0  0  0
 43 44  1  0  0  0
 44 45  1  0  0  0
 45 46  2  0  0  0
 45 48  1  0  0  0
 48 49  1  0  0  0
 49 50  1  0  0  0
 50 51  2  0  0  0
 51 52  1  0  0  0
 52 53  2  0  0  0
 53 54  1  0  0  0
 54 55  2  0  0  0
 55 56  1  0  0  0
 56 57  1  0  0  0
 38 34  1  0  0  0
 34 35  2  0  0  0
 34 36  1  0  0  0
 36  1  1  0  0  0
  1 71  1  0  0  0
 71 72  1  0  0  0
 72 73  2  0  0  0
 73 74  1  0  0  0
 74 75  2  0  0  0
 75 76  1  0  0  0
 76 77  2  0  0  0
  1  2  1  0  0  0
  2  3  2  0  0  0
  2  4  1  0  0  0
  4  5  1  0  0  0
  5  6  1  0  0  0
  6  7  1  0  0  0
  7  8  1  0  0  0
  8  9  1  0  0  0
  9 10  2  0  0  0
  9 11  1  0  0  0
 11 13  1  0  0  0
 13 30  1  0  0  0
 30 31  1  0  0  0
 30 32  1  0  0  0
 13 14  1  0  0  0
 14 15  2  0  0  0
 14 16  1  0  0  0
 16 18  1  0  0  0
 18 23  1  0  0  0
 23 24  1  0  0  0
 24 25  2  0  0  0
 25 26  1  0  0  0
 26 27  2  0  0  0
 27 28  1  0  0  0
 28 29  2  0  0  0
 18 19  1  0  0  0
 19 20  1  0  0  0
 19 21  2  0  0  0
 66 61  1  0  0  0
 56 48  2  0  0  0
 77 72  1  0  0  0
  8  4  1  0  0  0
 29 24  1  0  0  0
 55 50  1  0  0  0
 39 42  1  0  0  0
 44 47  1  0  0  0
 49 58  1  0  0  0
 57 59  1  0  0  0
 36 37  1  0  0  0
 11 12  1  0  0  0
 32 33  1  0  0  0
 16 17  1  0  0  0
 20 22  1  0  0  0
M  END
> <minimizedAffinity>
-9.73257

> <CNNscore>
0.2107451409

> <CNNaffinity>
7.2796339989

> <CNN_VS>
1.5341475010

> <CNNaffinity_variance>
0.6742414236

$$$$
[H]OC(=O)[C@@]([H])(N([H])C(=O)[C@@]([H])(N([H])C(=O)[C@@]1([H])N(C(=O)[C@@]([H])(N([H])C(=O)[C@@]([H])(N([H])C(=O)[C@@]([H])(N([H])C(=O)c2c(O[H])c3c([H])c([H])c([H])c([H])c3n2[H])C([H])([H])c2c([H])c([H])c([H])c([H])c2[H])C([H])([H])C([H])(C([H])([H])[H])C([H])([H])[H])C([H])([H])c2c([H])c([H])c([H])c([H])c2[H])C([H])([H])C([H])([H])C1([H])[H])[C@]([H])(O[H])C([H])([H])[H])C([H])([H])c1c([H])c([H])c([H])c([H])c1[H]


 77 82  0  0  0  0  0  0  0  0999 V2000
  152.8447  136.1441  187.6102 C   0  0  0  0  0  0  0  0  0  0  0  0
  151.5459  135.6386  188.0156 C   0  0  0  0  0  0  0  0  0  0  0  0
  150.6710  136.5576  188.3127 O   0  0  0  0  0  0  0  0  0  0  0  0
  151.1175  134.2966  188.1207 N   0  0  0  0  0  0  0  0  0  0  0  0
  151.9563  133.1496  187.8847 C   0  0  0  0  0  0  0  0  0  0  0  0
  151.0454  132.0150  187.4794 C   0  0  0  0  0  0  0  0  0  0  0  0
  149.7198  132.3916  188.0476 C   0  0  0  0  0  0  0  0  0  0  0  0
  149.7999  133.8530  188.4288 C   0  0  0  0  0  0  0  0  0  0  0  0
  149.3473  133.9974  189.8016 C   0  0  0  0  0  0  0  0  0  0  0  0
  148.8771  135.0292  190.3171 O   0  0  0  0  0  0  0  0  0  0  0  0
  149.4382  132.8577  190.6718 N   0  0  0  0  0  0  0  0  0  0  0  0
  149.8194  131.9547  190.3316 H   0  0  0  0  0  0  0  0  0  0  0  0
  148.9971  132.9477  192.0620 C   0  0  0  0  0  0  0  0  0  0  0  0
  150.1106  132.8952  193.0010 C   0  0  0  0  0  0  0  0  0  0  0  0
  151.1609  132.2704  192.6246 O   0  0  0  0  0  0  0  0  0  0  0  0
  150.1643  133.4574  194.2848 N   0  0  0  0  0  0  0  0  0  0  0  0
  149.3705  133.9933  194.6644 H   0  0  0  0  0  0  0  0  0  0  0  0
  151.3470  133.3340  195.1712 C   0  0  0  0  0  0  0  0  0  0  0  0
  150.9989  132.6085  196.3736 C   0  0  0  0  0  0  0  0  0  0  0  0
  151.3411  133.0108  197.6302 O   0  0  0  0  0  0  0  0  0  0  0  0
  150.3333  131.5195  196.2709 O   0  0  0  0  0  0  0  0  0  0  0  0
  151.9399  132.4945  198.2576 H   0  0  0  0  0  0  0  0  0  0  0  0
  151.9304  134.6750  195.4207 C   0  0  0  0  0  0  0  0  0  0  0  0
  152.1620  135.4592  194.2056 C   0  0  0  0  0  0  0  0  0  0  0  0
  153.1676  135.0767  193.3176 C   0  0  0  0  0  0  0  0  0  0  0  0
  153.3462  135.8327  192.1881 C   0  0  0  0  0  0  0  0  0  0  0  0
  152.5628  136.9402  191.9240 C   0  0  0  0  0  0  0  0  0  0  0  0
  151.5663  137.3205  192.8017 C   0  0  0  0  0  0  0  0  0  0  0  0
  151.3715  136.5784  193.9366 C   0  0  0  0  0  0  0  0  0  0  0  0
  147.9651  131.8402  192.3257 C   0  0  0  0  0  0  0  0  0  0  0  0
  147.9033  130.8987  191.1405 C   0  0  0  0  0  0  0  0  0  0  0  0
  148.3607  131.1311  193.4471 O   0  0  0  0  0  0  0  0  0  0  0  0
  147.5979  131.0533  194.0620 H   0  0  0  0  0  0  0  0  0  0  0  0
  152.1604  136.7454  185.2231 C   0  0  0  0  0  0  0  0  0  0  0  0
  151.0452  137.2482  185.5140 O   0  0  0  0  0  0  0  0  0  0  0  0
  153.0187  136.2185  186.1824 N   0  0  0  0  0  0  0  0  0  0  0  0
  153.9390  135.8092  185.8238 H   0  0  0  0  0  0  0  0  0  0  0  0
  152.5204  136.7424  183.7493 C   0  0  0  0  0  0  0  0  0  0  0  0
  152.3251  137.9766  183.1130 N   0  0  0  0  0  0  0  0  0  0  0  0
  152.3614  138.4268  181.7992 C   0  0  0  0  0  0  0  0  0  0  0  0
  152.6326  137.5813  180.8763 O   0  0  0  0  0  0  0  0  0  0  0  0
  152.1010  138.7953  183.8150 H   0  0  0  0  0  0  0  0  0  0  0  0
  152.1172  139.8035  181.3604 C   0  0  0  0  0  0  0  0  0  0  0  0
  153.3445  140.5335  181.1974 N   0  0  0  0  0  0  0  0  0  0  0  0
  154.1221  141.0517  182.2566 C   0  0  0  0  0  0  0  0  0  0  0  0
  153.7455  140.8794  183.4362 O   0  0  0  0  0  0  0  0  0  0  0  0
  153.6732  140.6856  180.2261 H   0  0  0  0  0  0  0  0  0  0  0  0
  155.3558  141.7875  182.0189 C   0  0  0  0  0  0  0  0  0  0  0  0
  156.3344  141.4153  181.1334 N   0  0  0  0  0  0  0  0  0  0  0  0
  157.3421  142.3158  181.1605 C   0  0  0  0  0  0  0  0  0  0  0  0
  158.5425  142.4179  180.4801 C   0  0  0  0  0  0  0  0  0  0  0  0
  159.3931  143.4690  180.7139 C   0  0  0  0  0  0  0  0  0  0  0  0
  159.0908  144.4700  181.6358 C   0  0  0  0  0  0  0  0  0  0  0  0
  157.9017  144.3645  182.3065 C   0  0  0  0  0  0  0  0  0  0  0  0
  157.0497  143.3065  182.0684 C   0  0  0  0  0  0  0  0  0  0  0  0
  155.7995  142.9452  182.5873 C   0  0  0  0  0  0  0  0  0  0  0  0
  155.1840  143.7323  183.5482 O   0  0  0  0  0  0  0  0  0  0  0  0
  156.2816  140.5536  180.5370 H   0  0  0  0  0  0  0  0  0  0  0  0
  154.3070  143.5243  183.9389 H   0  0  0  0  0  0  0  0  0  0  0  0
  151.1045  140.0648  180.3245 C   0  0  0  0  0  0  0  0  0  0  0  0
  149.8212  139.4078  180.3606 C   0  0  0  0  0  0  0  0  0  0  0  0
  148.9068  139.6958  181.3436 C   0  0  0  0  0  0  0  0  0  0  0  0
  147.6904  139.0781  181.4567 C   0  0  0  0  0  0  0  0  0  0  0  0
  147.3278  138.1084  180.5510 C   0  0  0  0  0  0  0  0  0  0  0  0
  148.2197  137.7914  179.5486 C   0  0  0  0  0  0  0  0  0  0  0  0
  149.4544  138.4356  179.4550 C   0  0  0  0  0  0  0  0  0  0  0  0
  153.8038  135.9935  183.6479 C   0  0  0  0  0  0  0  0  0  0  0  0
  152.5418  134.3703  182.3119 C   0  0  0  0  0  0  0  0  0  0  0  0
  153.8396  134.6510  183.0563 C   0  0  0  0  0  0  0  0  0  0  0  0
  155.0468  134.1226  182.4081 C   0  0  0  0  0  0  0  0  0  0  0  0
  153.1756  137.5173  188.1426 C   0  0  0  0  0  0  0  0  0  0  0  0
  154.3759  137.6046  188.9715 C   0  0  0  0  0  0  0  0  0  0  0  0
  154.5199  138.6098  189.9363 C   0  0  0  0  0  0  0  0  0  0  0  0
  155.6433  138.7221  190.7207 C   0  0  0  0  0  0  0  0  0  0  0  0
  156.6603  137.8149  190.5494 C   0  0  0  0  0  0  0  0  0  0  0  0
  156.5473  136.8024  189.5962 C   0  0  0  0  0  0  0  0  0  0  0  0
  155.4050  136.7236  188.8298 C   0  0  0  0  0  0  0  0  0  0  0  0
 68 69  1  0  0  0
 69 70  1  0  0  0
 69 67  1  0  0  0
 67 38  1  0  0  0
 38 39  1  0  0  0
 39 40  1  0  0  0
 40 41  2  0  0  0
 40 43  1  0  0  0
 43 60  1  0  0  0
 60 61  1  0  0  0
 61 62  2  0  0  0
 62 63  1  0  0  0
 63 64  2  0  0  0
 64 65  1  0  0  0
 65 66  2  0  0  0
 43 44  1  0  0  0
 44 45  1  0  0  0
 45 46  2  0  0  0
 45 48  1  0  0  0
 48 49  1  0  0  0
 49 50  1  0  0  0
 50 51  2  0  0  0
 51 52  1  0  0  0
 52 53  2  0  0  0
 53 54  1  0  0  0
 54 55  2  0  0  0
 55 56  1  0  0  0
 56 57  1  0  0  0
 38 34  1  0  0  0
 34 35  2  0  0  0
 34 36  1  0  0  0
 36  1  1  0  0  0
  1 71  1  0  0  0
 71 72  1  0  0  0
 72 73  2  0  0  0
 73 74  1  0  0  0
 74 75  2  0  0  0
 75 76  1  0  0  0
 76 77  2  0  0  0
  1  2  1  0  0  0
  2  3  2  0  0  0
  2  4  1  0  0  0
  4  5  1  0  0  0
  5  6  1  0  0  0
  6  7  1  0  0  0
  7  8  1  0  0  0
  8  9  1  0  0  0
  9 10  2  0  0  0
  9 11  1  0  0  0
 11 13  1  0  0  0
 13 30  1  0  0  0
 30 31  1  0  0  0
 30 32  1  0  0  0
 13 14  1  0  0  0
 14 15  2  0  0  0
 14 16  1  0  0  0
 16 18  1  0  0  0
 18 23  1  0  0  0
 23 24  1  0  0  0
 24 25  2  0  0  0
 25 26  1  0  0  0
 26 27  2  0  0  0
 27 28  1  0  0  0
 28 29  2  0  0  0
 18 19  1  0  0  0
 19 20  1  0  0  0
 19 21  2  0  0  0
 66 61  1  0  0  0
 56 48  2  0  0  0
 77 72  1  0  0  0
  8  4  1  0  0  0
 29 24  1  0  0  0
 55 50  1  0  0  0
 39 42  1  0  0  0
 44 47  1  0  0  0
 49 58  1  0  0  0
 57 59  1  0  0  0
 36 37  1  0  0  0
 11 12  1  0  0  0
 32 33  1  0  0  0
 16 17  1  0  0  0
 20 22  1  0  0  0
M  END
> <minimizedAffinity>
-8.83598

> <CNNscore>
0.2063037604

> <CNNaffinity>
6.9190621376

> <CNN_VS>
1.4274284840

> <CNNaffinity_variance>
0.6404426694

$$$$
[H]OC(=O)[C@@]([H])(N([H])C(=O)[C@@]([H])(N([H])C(=O)[C@@]1([H])N(C(=O)[C@@]([H])(N([H])C(=O)[C@@]([H])(N([H])C(=O)[C@@]([H])(N([H])C(=O)c2c(O[H])c3c([H])c([H])c([H])c([H])c3n2[H])C([H])([H])c2c([H])c([H])c([H])c([H])c2[H])C([H])([H])C([H])(C([H])([H])[H])C([H])([H])[H])C([H])([H])c2c([H])c([H])c([H])c([H])c2[H])C([H])([H])C([H])([H])C1([H])[H])[C@]([H])(O[H])C([H])([H])[H])C([H])([H])c1c([H])c([H])c([H])c([H])c1[H]


 77 82  0  0  0  0  0  0  0  0999 V2000
  156.6231  135.3447  188.1541 C   0  0  0  0  0  0  0  0  0  0  0  0
  155.5814  135.7984  187.2509 C   0  0  0  0  0  0  0  0  0  0  0  0
  155.3030  134.9741  186.2807 O   0  0  0  0  0  0  0  0  0  0  0  0
  154.8397  136.9999  187.2955 N   0  0  0  0  0  0  0  0  0  0  0  0
  155.0423  138.0505  188.2598 C   0  0  0  0  0  0  0  0  0  0  0  0
  153.7336  138.7949  188.3803 C   0  0  0  0  0  0  0  0  0  0  0  0
  153.0348  138.5130  187.0941 C   0  0  0  0  0  0  0  0  0  0  0  0
  153.7573  137.3557  186.4414 C   0  0  0  0  0  0  0  0  0  0  0  0
  154.0757  137.7233  185.0726 C   0  0  0  0  0  0  0  0  0  0  0  0
  154.0775  136.9615  184.0871 O   0  0  0  0  0  0  0  0  0  0  0  0
  154.4256  139.0897  184.7984 N   0  0  0  0  0  0  0  0  0  0  0  0
  154.4534  139.7966  185.5573 H   0  0  0  0  0  0  0  0  0  0  0  0
  154.7549  139.5137  183.4394 C   0  0  0  0  0  0  0  0  0  0  0  0
  155.9468  140.3513  183.3938 C   0  0  0  0  0  0  0  0  0  0  0  0
  155.9812  141.3585  184.1809 O   0  0  0  0  0  0  0  0  0  0  0  0
  157.0738  140.1786  182.5771 N   0  0  0  0  0  0  0  0  0  0  0  0
  157.1409  139.3844  181.9242 H   0  0  0  0  0  0  0  0  0  0  0  0
  158.2348  141.1012  182.5979 C   0  0  0  0  0  0  0  0  0  0  0  0
  158.5588  141.5296  181.2544 C   0  0  0  0  0  0  0  0  0  0  0  0
  158.0599  140.9448  180.1288 O   0  0  0  0  0  0  0  0  0  0  0  0
  159.3634  142.5126  181.0934 O   0  0  0  0  0  0  0  0  0  0  0  0
  158.6153  140.4764  179.4281 H   0  0  0  0  0  0  0  0  0  0  0  0
  159.3658  140.4701  183.3214 C   0  0  0  0  0  0  0  0  0  0  0  0
  159.9119  141.2909  184.4046 C   0  0  0  0  0  0  0  0  0  0  0  0
  161.1879  141.8405  184.2790 C   0  0  0  0  0  0  0  0  0  0  0  0
  161.6586  142.6093  185.3117 C   0  0  0  0  0  0  0  0  0  0  0  0
  160.9046  142.8416  186.4465 C   0  0  0  0  0  0  0  0  0  0  0  0
  159.6408  142.2988  186.5727 C   0  0  0  0  0  0  0  0  0  0  0  0
  159.1518  141.5271  185.5519 C   0  0  0  0  0  0  0  0  0  0  0  0
  153.5310  140.2152  182.8304 C   0  0  0  0  0  0  0  0  0  0  0  0
  153.9801  141.2838  181.8550 C   0  0  0  0  0  0  0  0  0  0  0  0
  152.7774  139.2717  182.1531 O   0  0  0  0  0  0  0  0  0  0  0  0
  151.8384  139.3519  182.4321 H   0  0  0  0  0  0  0  0  0  0  0  0
  155.5212  134.6050  190.3375 C   0  0  0  0  0  0  0  0  0  0  0  0
  155.2423  135.7571  190.7569 O   0  0  0  0  0  0  0  0  0  0  0  0
  156.1698  134.3842  189.1270 N   0  0  0  0  0  0  0  0  0  0  0  0
  156.3646  133.3646  188.8708 H   0  0  0  0  0  0  0  0  0  0  0  0
  155.1090  133.4555  191.2376 C   0  0  0  0  0  0  0  0  0  0  0  0
  153.8957  133.6648  191.9089 N   0  0  0  0  0  0  0  0  0  0  0  0
  153.1511  132.9592  192.8457 C   0  0  0  0  0  0  0  0  0  0  0  0
  153.6020  131.8321  193.2536 O   0  0  0  0  0  0  0  0  0  0  0  0
  153.3991  134.6055  191.6228 H   0  0  0  0  0  0  0  0  0  0  0  0
  151.8732  133.3882  193.4206 C   0  0  0  0  0  0  0  0  0  0  0  0
  150.8680  133.5618  192.4080 N   0  0  0  0  0  0  0  0  0  0  0  0
  150.3792  134.8094  191.9614 C   0  0  0  0  0  0  0  0  0  0  0  0
  150.8339  135.8614  192.4609 O   0  0  0  0  0  0  0  0  0  0  0  0
  150.4797  132.7003  191.9816 H   0  0  0  0  0  0  0  0  0  0  0  0
  149.3541  134.9122  190.9326 C   0  0  0  0  0  0  0  0  0  0  0  0
  149.1910  135.9817  190.0900 N   0  0  0  0  0  0  0  0  0  0  0  0
  148.1483  135.7552  189.2602 C   0  0  0  0  0  0  0  0  0  0  0  0
  147.5692  136.4901  188.2410 C   0  0  0  0  0  0  0  0  0  0  0  0
  146.4919  135.9984  187.5476 C   0  0  0  0  0  0  0  0  0  0  0  0
  145.9384  134.7515  187.8342 C   0  0  0  0  0  0  0  0  0  0  0  0
  146.5152  134.0281  188.8436 C   0  0  0  0  0  0  0  0  0  0  0  0
  147.5978  134.5259  189.5378 C   0  0  0  0  0  0  0  0  0  0  0  0
  148.3766  134.0252  190.5894 C   0  0  0  0  0  0  0  0  0  0  0  0
  148.1028  132.7807  191.1351 O   0  0  0  0  0  0  0  0  0  0  0  0
  149.8001  136.8359  190.1103 H   0  0  0  0  0  0  0  0  0  0  0  0
  148.6218  132.3845  191.8691 H   0  0  0  0  0  0  0  0  0  0  0  0
  151.3920  132.7635  194.6637 C   0  0  0  0  0  0  0  0  0  0  0  0
  151.2501  133.5350  195.8737 C   0  0  0  0  0  0  0  0  0  0  0  0
  151.9342  134.7132  196.0455 C   0  0  0  0  0  0  0  0  0  0  0  0
  151.8744  135.4692  197.1852 C   0  0  0  0  0  0  0  0  0  0  0  0
  151.0934  135.0575  198.2401 C   0  0  0  0  0  0  0  0  0  0  0  0
  150.3907  133.8791  198.1053 C   0  0  0  0  0  0  0  0  0  0  0  0
  150.4687  133.1257  196.9329 C   0  0  0  0  0  0  0  0  0  0  0  0
  155.3795  132.2149  190.4591 C   0  0  0  0  0  0  0  0  0  0  0  0
  155.9967  129.8639  190.1358 C   0  0  0  0  0  0  0  0  0  0  0  0
  155.9224  131.0226  191.1203 C   0  0  0  0  0  0  0  0  0  0  0  0
  157.0477  131.1036  192.0606 C   0  0  0  0  0  0  0  0  0  0  0  0
  157.8133  134.7160  187.4709 C   0  0  0  0  0  0  0  0  0  0  0  0
  158.3696  133.5338  188.1253 C   0  0  0  0  0  0  0  0  0  0  0  0
  159.0953  133.6390  189.3188 C   0  0  0  0  0  0  0  0  0  0  0  0
  159.6396  132.5450  189.9485 C   0  0  0  0  0  0  0  0  0  0  0  0
  159.4647  131.3049  189.3843 C   0  0  0  0  0  0  0  0  0  0  0  0
  158.7474  131.1672  188.1957 C   0  0  0  0  0  0  0  0  0  0  0  0
  158.2173  132.2884  187.5954 C   0  0  0  0  0  0  0  0  0  0  0  0
 68 69  1  0  0  0
 69 70  1  0  0  0
 69 67  1  0  0  0
 67 38  1  0  0  0
 38 39  1  0  0  0
 39 40  1  0  0  0
 40 41  2  0  0  0
 40 43  1  0  0  0
 43 60  1  0  0  0
 60 61  1  0  0  0
 61 62  2  0  0  0
 62 63  1  0  0  0
 63 64  2  0  0  0
 64 65  1  0  0  0
 65 66  2  0  0  0
 43 44  1  0  0  0
 44 45  1  0  0  0
 45 46  2  0  0  0
 45 48  1  0  0  0
 48 49  1  0  0  0
 49 50  1  0  0  0
 50 51  2  0  0  0
 51 52  1  0  0  0
 52 53  2  0  0  0
 53 54  1  0  0  0
 54 55  2  0  0  0
 55 56  1  0  0  0
 56 57  1  0  0  0
 38 34  1  0  0  0
 34 35  2  0  0  0
 34 36  1  0  0  0
 36  1  1  0  0  0
  1 71  1  0  0  0
 71 72  1  0  0  0
 72 73  2  0  0  0
 73 74  1  0  0  0
 74 75  2  0  0  0
 75 76  1  0  0  0
 76 77  2  0  0  0
  1  2  1  0  0  0
  2  3  2  0  0  0
  2  4  1  0  0  0
  4  5  1  0  0  0
  5  6  1  0  0  0
  6  7  1  0  0  0
  7  8  1  0  0  0
  8  9  1  0  0  0
  9 10  2  0  0  0
  9 11  1  0  0  0
 11 13  1  0  0  0
 13 30  1  0  0  0
 30 31  1  0  0  0
 30 32  1  0  0  0
 13 14  1  0  0  0
 14 15  2  0  0  0
 14 16  1  0  0  0
 16 18  1  0  0  0
 18 23  1  0  0  0
 23 24  1  0  0  0
 24 25  2  0  0  0
 25 26  1  0  0  0
 26 27  2  0  0  0
 27 28  1  0  0  0
 28 29  2  0  0  0
 18 19  1  0  0  0
 19 20  1  0  0  0
 19 21  2  0  0  0
 66 61  1  0  0  0
 56 48  2  0  0  0
 77 72  1  0  0  0
  8  4  1  0  0  0
 29 24  1  0  0  0
 55 50  1  0  0  0
 39 42  1  0  0  0
 44 47  1  0  0  0
 49 58  1  0  0  0
 57 59  1  0  0  0
 36 37  1  0  0  0
 11 12  1  0  0  0
 32 33  1  0  0  0
 16 17  1  0  0  0
 20 22  1  0  0  0
M  END
> <minimizedAffinity>
-9.38734

> <CNNscore>
0.1718474030

> <CNNaffinity>
6.9533386230

> <CNN_VS>
1.1949131489

> <CNNaffinity_variance>
0.8951613307

$$$$
[H]c1c([H])c([H])c(C([H])([H])OC(=O)N(C([H])([H])[H])[C@]2([H])C([H])([H])[C@@]3([H])O[C@](C([H])([H])[H])(n4c5c([H])c([H])c([H])c([H])c5c5c6c(c7c8c([H])c([H])c([H])c([H])c8n3c7c54)C(=O)N([H])C6([H])[H])[C@]2([H])OC([H])([H])[H])c([H])c1[H]


 46 54  0  0  0  0  0  0  0  0999 V2000
  149.6558  135.9775  184.0419 C   0  0  0  0  0  0  0  0  0  0  0  0
  149.9489  134.9115  185.0964 C   0  0  0  0  0  0  0  0  0  0  0  0
  151.1824  135.3956  185.7999 C   0  0  0  0  0  0  0  0  0  0  0  0
  152.2548  135.4008  184.7496 C   0  0  0  0  0  0  0  0  0  0  0  0
  151.8413  135.1019  183.5006 O   0  0  0  0  0  0  0  0  0  0  0  0
  150.7434  135.7358  182.9607 C   0  0  0  0  0  0  0  0  0  0  0  0
  150.1036  134.6852  182.0871 C   0  0  0  0  0  0  0  0  0  0  0  0
  151.1346  136.9641  182.3653 N   0  0  0  0  0  0  0  0  0  0  0  0
  150.5821  137.5869  181.2706 C   0  0  0  0  0  0  0  0  0  0  0  0
  149.5290  137.2363  180.4519 C   0  0  0  0  0  0  0  0  0  0  0  0
  149.2061  138.1042  179.4179 C   0  0  0  0  0  0  0  0  0  0  0  0
  149.9138  139.2656  179.2267 C   0  0  0  0  0  0  0  0  0  0  0  0
  150.9662  139.6368  180.0301 C   0  0  0  0  0  0  0  0  0  0  0  0
  151.2791  138.7637  181.0573 C   0  0  0  0  0  0  0  0  0  0  0  0
  152.2474  138.8387  182.0312 C   0  0  0  0  0  0  0  0  0  0  0  0
  153.2260  139.8049  182.3254 C   0  0  0  0  0  0  0  0  0  0  0  0
  153.5156  141.0338  181.6075 C   0  0  0  0  0  0  0  0  0  0  0  0
  154.5490  141.6817  182.3145 N   0  0  0  0  0  0  0  0  0  0  0  0
  154.9423  140.8560  183.4024 C   0  0  0  0  0  0  0  0  0  0  0  0
  155.8674  141.2037  184.1546 O   0  0  0  0  0  0  0  0  0  0  0  0
  154.0924  139.6811  183.3865 C   0  0  0  0  0  0  0  0  0  0  0  0
  154.0054  138.5631  184.2002 C   0  0  0  0  0  0  0  0  0  0  0  0
  154.6672  138.1010  185.3018 C   0  0  0  0  0  0  0  0  0  0  0  0
  155.7061  138.6203  186.0275 C   0  0  0  0  0  0  0  0  0  0  0  0
  156.1613  137.8763  187.1281 C   0  0  0  0  0  0  0  0  0  0  0  0
  155.5993  136.6705  187.4806 C   0  0  0  0  0  0  0  0  0  0  0  0
  154.5560  136.1927  186.7166 C   0  0  0  0  0  0  0  0  0  0  0  0
  154.0782  136.8968  185.6231 C   0  0  0  0  0  0  0  0  0  0  0  0
  153.0906  136.6064  184.7684 N   0  0  0  0  0  0  0  0  0  0  0  0
  153.0401  137.6257  183.8948 C   0  0  0  0  0  0  0  0  0  0  0  0
  152.1596  137.7346  182.8342 C   0  0  0  0  0  0  0  0  0  0  0  0
  154.9397  142.6332  182.0426 H   0  0  0  0  0  0  0  0  0  0  0  0
  148.8670  134.4993  185.8967 N   0  0  0  0  0  0  0  0  0  0  0  0
  147.5106  134.7395  185.3315 C   0  0  0  0  0  0  0  0  0  0  0  0
  148.8691  133.8874  187.1674 C   0  0  0  0  0  0  0  0  0  0  0  0
  149.9003  133.5497  187.8026 O   0  0  0  0  0  0  0  0  0  0  0  0
  147.6612  133.6121  187.8175 O   0  0  0  0  0  0  0  0  0  0  0  0
  147.1401  134.5137  188.8057 C   0  0  0  0  0  0  0  0  0  0  0  0
  147.4986  133.8845  190.1259 C   0  0  0  0  0  0  0  0  0  0  0  0
  146.8115  132.8130  190.6373 C   0  0  0  0  0  0  0  0  0  0  0  0
  147.1788  132.2690  191.8554 C   0  0  0  0  0  0  0  0  0  0  0  0
  148.2462  132.7858  192.5936 C   0  0  0  0  0  0  0  0  0  0  0  0
  148.9283  133.8514  192.0834 C   0  0  0  0  0  0  0  0  0  0  0  0
  148.5481  134.3845  190.8627 C   0  0  0  0  0  0  0  0  0  0  0  0
  148.3958  137.9297  184.2434 C   0  0  0  0  0  0  0  0  0  0  0  0
  149.5946  137.2513  184.4520 O   0  0  0  0  0  0  0  0  0  0  0  0
 45 46  1  0  0  0
 46  1  1  0  0  0
  1  2  1  0  0  0
  2  3  1  0  0  0
  3  4  1  0  0  0
  4  5  1  0  0  0
  5  6  1  0  0  0
  6  7  1  0  0  0
  6  8  1  0  0  0
  8  9  1  0  0  0
  9 10  2  0  0  0
 10 11  1  0  0  0
 11 12  2  0  0  0
 12 13  1  0  0  0
 13 14  2  0  0  0
 14 15  1  0  0  0
 15 16  2  0  0  0
 16 17  1  0  0  0
 17 18  1  0  0  0
 18 19  1  0  0  0
 19 20  2  0  0  0
 19 21  1  0  0  0
 21 22  2  0  0  0
 22 23  1  0  0  0
 23 24  2  0  0  0
 24 25  1  0  0  0
 25 26  2  0  0  0
 26 27  1  0  0  0
 27 28  2  0  0  0
 28 29  1  0  0  0
 29 30  1  0  0  0
 30 31  2  0  0  0
  2 33  1  0  0  0
 33 34  1  0  0  0
 33 35  1  0  0  0
 35 36  2  0  0  0
 35 37  1  0  0  0
 37 38  1  0  0  0
 38 39  1  0  0  0
 39 40  2  0  0  0
 40 41  1  0  0  0
 41 42  2  0  0  0
 42 43  1  0  0  0
 43 44  2  0  0  0
  6  1  1  0  0  0
 31  8  1  0  0  0
 44 39  1  0  0  0
 29  4  1  0  0  0
 14  9  1  0  0  0
 31 15  1  0  0  0
 21 16  1  0  0  0
 30 22  1  0  0  0
 28 23  1  0  0  0
 18 32  1  0  0  0
M  END
> <minimizedAffinity>
-8.07818

> <CNNscore>
0.3592632711

> <CNNaffinity>
6.1743326187

> <CNN_VS>
2.2182109356

> <CNNaffinity_variance>
0.2481717765

$$$$
[H]c1c([H])c([H])c(C([H])([H])OC(=O)N(C([H])([H])[H])[C@]2([H])C([H])([H])[C@@]3([H])O[C@](C([H])([H])[H])(n4c5c([H])c([H])c([H])c([H])c5c5c6c(c7c8c([H])c([H])c([H])c([H])c8n3c7c54)C(=O)N([H])C6([H])[H])[C@]2([H])OC([H])([H])[H])c([H])c1[H]


 46 54  0  0  0  0  0  0  0  0999 V2000
  154.8539  137.0510  186.6982 C   0  0  0  0  0  0  0  0  0  0  0  0
  154.0463  137.4127  185.4526 C   0  0  0  0  0  0  0  0  0  0  0  0
  152.6160  137.4011  185.9051 C   0  0  0  0  0  0  0  0  0  0  0  0
  152.3454  135.9812  186.3096 C   0  0  0  0  0  0  0  0  0  0  0  0
  153.4137  135.1578  186.2769 O   0  0  0  0  0  0  0  0  0  0  0  0
  154.5977  135.5301  186.8753 C   0  0  0  0  0  0  0  0  0  0  0  0
  155.6623  134.9183  185.9985 C   0  0  0  0  0  0  0  0  0  0  0  0
  154.5760  135.1864  188.2528 N   0  0  0  0  0  0  0  0  0  0  0  0
  155.6348  134.8167  189.0488 C   0  0  0  0  0  0  0  0  0  0  0  0
  156.9794  134.6738  188.7766 C   0  0  0  0  0  0  0  0  0  0  0  0
  157.8067  134.2902  189.8229 C   0  0  0  0  0  0  0  0  0  0  0  0
  157.2962  134.0649  191.0779 C   0  0  0  0  0  0  0  0  0  0  0  0
  155.9603  134.2018  191.3736 C   0  0  0  0  0  0  0  0  0  0  0  0
  155.1452  134.5843  190.3226 C   0  0  0  0  0  0  0  0  0  0  0  0
  153.7907  134.8195  190.2808 C   0  0  0  0  0  0  0  0  0  0  0  0
  152.7865  134.7659  191.2638 C   0  0  0  0  0  0  0  0  0  0  0  0
  152.9183  134.3840  192.6590 C   0  0  0  0  0  0  0  0  0  0  0  0
  151.6432  134.5332  193.2416 N   0  0  0  0  0  0  0  0  0  0  0  0
  150.7258  134.9309  192.2317 C   0  0  0  0  0  0  0  0  0  0  0  0
  149.5241  135.0930  192.5008 O   0  0  0  0  0  0  0  0  0  0  0  0
  151.4722  135.0711  190.9963 C   0  0  0  0  0  0  0  0  0  0  0  0
  151.1158  135.4445  189.7106 C   0  0  0  0  0  0  0  0  0  0  0  0
  149.9578  135.8026  189.0815 C   0  0  0  0  0  0  0  0  0  0  0  0
  148.6722  135.9276  189.5368 C   0  0  0  0  0  0  0  0  0  0  0  0
  147.6938  136.3231  188.6102 C   0  0  0  0  0  0  0  0  0  0  0  0
  147.9941  136.5798  187.2919 C   0  0  0  0  0  0  0  0  0  0  0  0
  149.3039  136.4389  186.8853 C   0  0  0  0  0  0  0  0  0  0  0  0
  150.2980  136.0507  187.7688 C   0  0  0  0  0  0  0  0  0  0  0  0
  151.6076  135.8597  187.5718 N   0  0  0  0  0  0  0  0  0  0  0  0
  152.1145  135.4898  188.7597 C   0  0  0  0  0  0  0  0  0  0  0  0
  153.4405  135.1887  189.0109 C   0  0  0  0  0  0  0  0  0  0  0  0
  151.4457  134.3651  194.2735 H   0  0  0  0  0  0  0  0  0  0  0  0
  154.4839  138.5305  184.7178 N   0  0  0  0  0  0  0  0  0  0  0  0
  153.5005  139.1042  183.7583 C   0  0  0  0  0  0  0  0  0  0  0  0
  155.7255  139.1986  184.7495 C   0  0  0  0  0  0  0  0  0  0  0  0
  156.6775  138.9137  185.5198 O   0  0  0  0  0  0  0  0  0  0  0  0
  155.9719  140.2666  183.8800 O   0  0  0  0  0  0  0  0  0  0  0  0
  156.9582  141.2591  184.2013 C   0  0  0  0  0  0  0  0  0  0  0  0
  157.5817  141.6220  182.8796 C   0  0  0  0  0  0  0  0  0  0  0  0
  157.8182  140.6905  181.9008 C   0  0  0  0  0  0  0  0  0  0  0  0
  158.3937  141.0727  180.7020 C   0  0  0  0  0  0  0  0  0  0  0  0
  158.7476  142.4009  180.4528 C   0  0  0  0  0  0  0  0  0  0  0  0
  158.5116  143.3259  181.4273 C   0  0  0  0  0  0  0  0  0  0  0  0
  157.9348  142.9271  182.6219 C   0  0  0  0  0  0  0  0  0  0  0  0
  155.7302  138.2074  188.5242 C   0  0  0  0  0  0  0  0  0  0  0  0
  154.6204  137.7578  187.8119 O   0  0  0  0  0  0  0  0  0  0  0  0
 45 46  1  0  0  0
 46  1  1  0  0  0
  1  2  1  0  0  0
  2  3  1  0  0  0
  3  4  1  0  0  0
  4  5  1  0  0  0
  5  6  1  0  0  0
  6  7  1  0  0  0
  6  8  1  0  0  0
  8  9  1  0  0  0
  9 10  2  0  0  0
 10 11  1  0  0  0
 11 12  2  0  0  0
 12 13  1  0  0  0
 13 14  2  0  0  0
 14 15  1  0  0  0
 15 16  2  0  0  0
 16 17  1  0  0  0
 17 18  1  0  0  0
 18 19  1  0  0  0
 19 20  2  0  0  0
 19 21  1  0  0  0
 21 22  2  0  0  0
 22 23  1  0  0  0
 23 24  2  0  0  0
 24 25  1  0  0  0
 25 26  2  0  0  0
 26 27  1  0  0  0
 27 28  2  0  0  0
 28 29  1  0  0  0
 29 30  1  0  0  0
 30 31  2  0  0  0
  2 33  1  0  0  0
 33 34  1  0  0  0
 33 35  1  0  0  0
 35 36  2  0  0  0
 35 37  1  0  0  0
 37 38  1  0  0  0
 38 39  1  0  0  0
 39 40  2  0  0  0
 40 41  1  0  0  0
 41 42  2  0  0  0
 42 43  1  0  0  0
 43 44  2  0  0  0
  6  1  1  0  0  0
 31  8  1  0  0  0
 44 39  1  0  0  0
 29  4  1  0  0  0
 14  9  1  0  0  0
 31 15  1  0  0  0
 21 16  1  0  0  0
 30 22  1  0  0  0
 28 23  1  0  0  0
 18 32  1  0  0  0
M  END
> <minimizedAffinity>
-8.15204

> <CNNscore>
0.3488935828

> <CNNaffinity>
6.4090452194

> <CNN_VS>
2.2360746861

> <CNNaffinity_variance>
0.0616915524

$$$$
[H]c1c([H])c([H])c(C([H])([H])OC(=O)N(C([H])([H])[H])[C@]2([H])C([H])([H])[C@@]3([H])O[C@](C([H])([H])[H])(n4c5c([H])c([H])c([H])c([H])c5c5c6c(c7c8c([H])c([H])c([H])c([H])c8n3c7c54)C(=O)N([H])C6([H])[H])[C@]2([H])OC([H])([H])[H])c([H])c1[H]


 46 54  0  0  0  0  0  0  0  0999 V2000
  152.9331  136.6818  186.2783 C   0  0  0  0  0  0  0  0  0  0  0  0
  152.1764  135.8486  185.2451 C   0  0  0  0  0  0  0  0  0  0  0  0
  150.9909  135.3029  185.9850 C   0  0  0  0  0  0  0  0  0  0  0  0
  151.5686  134.4166  187.0498 C   0  0  0  0  0  0  0  0  0  0  0  0
  152.9147  134.4253  187.1406 O   0  0  0  0  0  0  0  0  0  0  0  0
  153.6011  135.6190  187.1918 C   0  0  0  0  0  0  0  0  0  0  0  0
  154.8923  135.3335  186.4656 C   0  0  0  0  0  0  0  0  0  0  0  0
  153.6672  136.0854  188.5313 N   0  0  0  0  0  0  0  0  0  0  0  0
  154.6696  136.8176  189.1233 C   0  0  0  0  0  0  0  0  0  0  0  0
  155.8608  137.3065  188.6292 C   0  0  0  0  0  0  0  0  0  0  0  0
  156.6634  138.0334  189.4976 C   0  0  0  0  0  0  0  0  0  0  0  0
  156.2764  138.2525  190.7970 C   0  0  0  0  0  0  0  0  0  0  0  0
  155.0936  137.7764  191.3118 C   0  0  0  0  0  0  0  0  0  0  0  0
  154.3020  137.0529  190.4369 C   0  0  0  0  0  0  0  0  0  0  0  0
  153.0755  136.4590  190.6228 C   0  0  0  0  0  0  0  0  0  0  0  0
  152.2130  136.3873  191.7313 C   0  0  0  0  0  0  0  0  0  0  0  0
  152.4237  136.9199  193.0661 C   0  0  0  0  0  0  0  0  0  0  0  0
  151.2583  136.6320  193.8053 N   0  0  0  0  0  0  0  0  0  0  0  0
  150.3718  135.8848  192.9835 C   0  0  0  0  0  0  0  0  0  0  0  0
  149.2848  135.4840  193.4312 O   0  0  0  0  0  0  0  0  0  0  0  0
  150.9972  135.7459  191.6825 C   0  0  0  0  0  0  0  0  0  0  0  0
  150.6009  135.1428  190.4998 C   0  0  0  0  0  0  0  0  0  0  0  0
  149.5110  134.4351  190.0799 C   0  0  0  0  0  0  0  0  0  0  0  0
  148.3621  134.0601  190.7241 C   0  0  0  0  0  0  0  0  0  0  0  0
  147.4206  133.3214  189.9893 C   0  0  0  0  0  0  0  0  0  0  0  0
  147.6250  132.9774  188.6725 C   0  0  0  0  0  0  0  0  0  0  0  0
  148.7986  133.3798  188.0712 C   0  0  0  0  0  0  0  0  0  0  0  0
  149.7522  134.1098  188.7622 C   0  0  0  0  0  0  0  0  0  0  0  0
  150.9370  134.5864  188.3630 N   0  0  0  0  0  0  0  0  0  0  0  0
  151.4610  135.2225  189.4239 C   0  0  0  0  0  0  0  0  0  0  0  0
  152.6853  135.8647  189.4540 C   0  0  0  0  0  0  0  0  0  0  0  0
  151.1094  136.9434  194.8117 H   0  0  0  0  0  0  0  0  0  0  0  0
  151.9381  136.4534  183.9967 N   0  0  0  0  0  0  0  0  0  0  0  0
  150.6966  136.0279  183.2937 C   0  0  0  0  0  0  0  0  0  0  0  0
  152.7038  137.4111  183.2998 C   0  0  0  0  0  0  0  0  0  0  0  0
  153.7581  137.9432  183.7313 O   0  0  0  0  0  0  0  0  0  0  0  0
  152.3072  137.8382  182.0279 O   0  0  0  0  0  0  0  0  0  0  0  0
  151.8483  139.1822  181.8175 C   0  0  0  0  0  0  0  0  0  0  0  0
  150.5067  139.0292  181.1511 C   0  0  0  0  0  0  0  0  0  0  0  0
  149.3276  139.1505  181.8416 C   0  0  0  0  0  0  0  0  0  0  0  0
  148.1189  139.0014  181.1849 C   0  0  0  0  0  0  0  0  0  0  0  0
  148.0607  138.7263  179.8166 C   0  0  0  0  0  0  0  0  0  0  0  0
  149.2343  138.6060  179.1315 C   0  0  0  0  0  0  0  0  0  0  0  0
  150.4359  138.7581  179.8036 C   0  0  0  0  0  0  0  0  0  0  0  0
  152.7410  138.8988  186.9765 C   0  0  0  0  0  0  0  0  0  0  0  0
  152.2365  137.6002  186.9607 O   0  0  0  0  0  0  0  0  0  0  0  0
 45 46  1  0  0  0
 46  1  1  0  0  0
  1  2  1  0  0  0
  2  3  1  0  0  0
  3  4  1  0  0  0
  4  5  1  0  0  0
  5  6  1  0  0  0
  6  7  1  0  0  0
  6  8  1  0  0  0
  8  9  1  0  0  0
  9 10  2  0  0  0
 10 11  1  0  0  0
 11 12  2  0  0  0
 12 13  1  0  0  0
 13 14  2  0  0  0
 14 15  1  0  0  0
 15 16  2  0  0  0
 16 17  1  0  0  0
 17 18  1  0  0  0
 18 19  1  0  0  0
 19 20  2  0  0  0
 19 21  1  0  0  0
 21 22  2  0  0  0
 22 23  1  0  0  0
 23 24  2  0  0  0
 24 25  1  0  0  0
 25 26  2  0  0  0
 26 27  1  0  0  0
 27 28  2  0  0  0
 28 29  1  0  0  0
 29 30  1  0  0  0
 30 31  2  0  0  0
  2 33  1  0  0  0
 33 34  1  0  0  0
 33 35  1  0  0  0
 35 36  2  0  0  0
 35 37  1  0  0  0
 37 38  1  0  0  0
 38 39  1  0  0  0
 39 40  2  0  0  0
 40 41  1  0  0  0
 41 42  2  0  0  0
 42 43  1  0  0  0
 43 44  2  0  0  0
  6  1  1  0  0  0
 31  8  1  0  0  0
 44 39  1  0  0  0
 29  4  1  0  0  0
 14  9  1  0  0  0
 31 15  1  0  0  0
 21 16  1  0  0  0
 30 22  1  0  0  0
 28 23  1  0  0  0
 18 32  1  0  0  0
M  END
> <minimizedAffinity>
-8.69432

> <CNNscore>
0.3397442102

> <CNNaffinity>
6.1362752914

> <CNN_VS>
2.0847640038

> <CNNaffinity_variance>
0.3956817687

$$$$
[H]c1c([H])c([H])c(C([H])([H])OC(=O)N(C([H])([H])[H])[C@]2([H])C([H])([H])[C@@]3([H])O[C@](C([H])([H])[H])(n4c5c([H])c([H])c([H])c([H])c5c5c6c(c7c8c([H])c([H])c([H])c([H])c8n3c7c54)C(=O)N([H])C6([H])[H])[C@]2([H])OC([H])([H])[H])c([H])c1[H]


 46 54  0  0  0  0  0  0  0  0999 V2000
  154.8889  136.0193  189.0266 C   0  0  0  0  0  0  0  0  0  0  0  0
  154.7765  135.6596  190.5073 C   0  0  0  0  0  0  0  0  0  0  0  0
  153.3936  135.0990  190.6628 C   0  0  0  0  0  0  0  0  0  0  0  0
  152.4714  136.2353  190.3293 C   0  0  0  0  0  0  0  0  0  0  0  0
  153.0751  137.3598  189.8922 O   0  0  0  0  0  0  0  0  0  0  0  0
  154.0195  137.2984  188.8906 C   0  0  0  0  0  0  0  0  0  0  0  0
  154.9976  138.3931  189.2384 C   0  0  0  0  0  0  0  0  0  0  0  0
  153.3854  137.3361  187.6208 N   0  0  0  0  0  0  0  0  0  0  0  0
  153.8663  137.8765  186.4511 C   0  0  0  0  0  0  0  0  0  0  0  0
  155.0531  138.5148  186.1572 C   0  0  0  0  0  0  0  0  0  0  0  0
  155.2437  138.9408  184.8499 C   0  0  0  0  0  0  0  0  0  0  0  0
  154.2814  138.7289  183.8931 C   0  0  0  0  0  0  0  0  0  0  0  0
  153.0915  138.0943  184.1619 C   0  0  0  0  0  0  0  0  0  0  0  0
  152.9126  137.6744  185.4684 C   0  0  0  0  0  0  0  0  0  0  0  0
  151.8631  137.0096  186.0586 C   0  0  0  0  0  0  0  0  0  0  0  0
  150.6416  136.5268  185.5562 C   0  0  0  0  0  0  0  0  0  0  0  0
  150.1174  136.6479  184.2070 C   0  0  0  0  0  0  0  0  0  0  0  0
  148.8836  135.9660  184.1895 N   0  0  0  0  0  0  0  0  0  0  0  0
  148.6090  135.4896  185.4999 C   0  0  0  0  0  0  0  0  0  0  0  0
  147.5526  134.8822  185.7408 O   0  0  0  0  0  0  0  0  0  0  0  0
  149.7326  135.8555  186.3405 C   0  0  0  0  0  0  0  0  0  0  0  0
  150.0235  135.6449  187.6786 C   0  0  0  0  0  0  0  0  0  0  0  0
  149.3949  135.0488  188.7343 C   0  0  0  0  0  0  0  0  0  0  0  0
  148.1875  134.4107  188.8363 C   0  0  0  0  0  0  0  0  0  0  0  0
  147.8308  133.8993  190.0946 C   0  0  0  0  0  0  0  0  0  0  0  0
  148.6481  134.0239  191.1949 C   0  0  0  0  0  0  0  0  0  0  0  0
  149.8530  134.6753  191.0379 C   0  0  0  0  0  0  0  0  0  0  0  0
  150.2410  135.1937  189.8130 C   0  0  0  0  0  0  0  0  0  0  0  0
  151.3529  135.8498  189.4616 N   0  0  0  0  0  0  0  0  0  0  0  0
  151.2259  136.1272  188.1533 C   0  0  0  0  0  0  0  0  0  0  0  0
  152.1523  136.8018  187.3795 C   0  0  0  0  0  0  0  0  0  0  0  0
  148.2887  135.8509  183.3149 H   0  0  0  0  0  0  0  0  0  0  0  0
  155.8399  134.9227  191.0615 N   0  0  0  0  0  0  0  0  0  0  0  0
  156.7710  135.6835  191.9396 C   0  0  0  0  0  0  0  0  0  0  0  0
  156.1643  133.5585  190.9109 C   0  0  0  0  0  0  0  0  0  0  0  0
  155.4870  132.7247  190.2574 O   0  0  0  0  0  0  0  0  0  0  0  0
  157.3158  133.0388  191.5123 O   0  0  0  0  0  0  0  0  0  0  0  0
  158.0092  131.9268  190.9259 C   0  0  0  0  0  0  0  0  0  0  0  0
  158.7452  132.5112  189.7495 C   0  0  0  0  0  0  0  0  0  0  0  0
  159.0383  133.8483  189.6593 C   0  0  0  0  0  0  0  0  0  0  0  0
  159.7171  134.3384  188.5577 C   0  0  0  0  0  0  0  0  0  0  0  0
  160.1203  133.4995  187.5161 C   0  0  0  0  0  0  0  0  0  0  0  0
  159.8280  132.1701  187.6074 C   0  0  0  0  0  0  0  0  0  0  0  0
  159.1478  131.6952  188.7168 C   0  0  0  0  0  0  0  0  0  0  0  0
  155.5905  134.6246  187.2940 C   0  0  0  0  0  0  0  0  0  0  0  0
  154.5733  135.0706  188.1351 O   0  0  0  0  0  0  0  0  0  0  0  0
 45 46  1  0  0  0
 46  1  1  0  0  0
  1  2  1  0  0  0
  2  3  1  0  0  0
  3  4  1  0  0  0
  4  5  1  0  0  0
  5  6  1  0  0  0
  6  7  1  0  0  0
  6  8  1  0  0  0
  8  9  1  0  0  0
  9 10  2  0  0  0
 10 11  1  0  0  0
 11 12  2  0  0  0
 12 13  1  0  0  0
 13 14  2  0  0  0
 14 15  1  0  0  0
 15 16  2  0  0  0
 16 17  1  0  0  0
 17 18  1  0  0  0
 18 19  1  0  0  0
 19 20  2  0  0  0
 19 21  1  0  0  0
 21 22  2  0  0  0
 22 23  1  0  0  0
 23 24  2  0  0  0
 24 25  1  0  0  0
 25 26  2  0  0  0
 26 27  1  0  0  0
 27 28  2  0  0  0
 28 29  1  0  0  0
 29 30  1  0  0  0
 30 31  2  0  0  0
  2 33  1  0  0  0
 33 34  1  0  0  0
 33 35  1  0  0  0
 35 36  2  0  0  0
 35 37  1  0  0  0
 37 38  1  0  0  0
 38 39  1  0  0  0
 39 40  2  0  0  0
 40 41  1  0  0  0
 41 42  2  0  0  0
 42 43  1  0  0  0
 43 44  2  0  0  0
  6  1  1  0  0  0
 31  8  1  0  0  0
 44 39  1  0  0  0
 29  4  1  0  0  0
 14  9  1  0  0  0
 31 15  1  0  0  0
 21 16  1  0  0  0
 30 22  1  0  0  0
 28 23  1  0  0  0
 18 32  1  0  0  0
M  END
> <minimizedAffinity>
-7.77575

> <CNNscore>
0.3044396937

> <CNNaffinity>
6.1156420708

> <CNN_VS>
1.8618441820

> <CNNaffinity_variance>
0.3950900435

$$$$
[H]c1c([H])c([H])c(C([H])([H])OC(=O)N(C([H])([H])[H])[C@]2([H])C([H])([H])[C@@]3([H])O[C@](C([H])([H])[H])(n4c5c([H])c([H])c([H])c([H])c5c5c6c(c7c8c([H])c([H])c([H])c([H])c8n3c7c54)C(=O)N([H])C6([H])[H])[C@]2([H])OC([H])([H])[H])c([H])c1[H]


 46 54  0  0  0  0  0  0  0  0999 V2000
  153.7064  135.0547  186.7280 C   0  0  0  0  0  0  0  0  0  0  0  0
  153.1510  133.8424  185.9823 C   0  0  0  0  0  0  0  0  0  0  0  0
  151.9480  133.4221  186.7739 C   0  0  0  0  0  0  0  0  0  0  0  0
  152.4856  133.0107  188.1135 C   0  0  0  0  0  0  0  0  0  0  0  0
  153.8064  133.2180  188.2941 O   0  0  0  0  0  0  0  0  0  0  0  0
  154.3667  134.4400  187.9915 C   0  0  0  0  0  0  0  0  0  0  0  0
  155.7516  134.0991  187.4996 C   0  0  0  0  0  0  0  0  0  0  0  0
  154.2397  135.3211  189.0977 N   0  0  0  0  0  0  0  0  0  0  0  0
  155.0965  136.3263  189.4809 C   0  0  0  0  0  0  0  0  0  0  0  0
  156.2834  136.7740  188.9396 C   0  0  0  0  0  0  0  0  0  0  0  0
  156.9125  137.8389  189.5697 C   0  0  0  0  0  0  0  0  0  0  0  0
  156.3650  138.4181  190.6882 C   0  0  0  0  0  0  0  0  0  0  0  0
  155.1829  137.9901  191.2452 C   0  0  0  0  0  0  0  0  0  0  0  0
  154.5651  136.9277  190.6087 C   0  0  0  0  0  0  0  0  0  0  0  0
  153.3873  136.2769  190.8933 C   0  0  0  0  0  0  0  0  0  0  0  0
  152.4181  136.4614  191.8955 C   0  0  0  0  0  0  0  0  0  0  0  0
  152.4284  137.4212  192.9856 C   0  0  0  0  0  0  0  0  0  0  0  0
  151.2209  137.2449  193.6914 N   0  0  0  0  0  0  0  0  0  0  0  0
  150.5056  136.1655  193.1058 C   0  0  0  0  0  0  0  0  0  0  0  0
  149.4185  135.7985  193.5816 O   0  0  0  0  0  0  0  0  0  0  0  0
  151.2815  135.6911  191.9763 C   0  0  0  0  0  0  0  0  0  0  0  0
  151.0775  134.6913  191.0391 C   0  0  0  0  0  0  0  0  0  0  0  0
  150.1127  133.7540  190.8029 C   0  0  0  0  0  0  0  0  0  0  0  0
  148.9402  133.4672  191.4500 C   0  0  0  0  0  0  0  0  0  0  0  0
  148.1601  132.4171  190.9392 C   0  0  0  0  0  0  0  0  0  0  0  0
  148.5407  131.6923  189.8330 C   0  0  0  0  0  0  0  0  0  0  0  0
  149.7302  132.0219  189.2188 C   0  0  0  0  0  0  0  0  0  0  0  0
  150.5280  133.0510  189.6922 C   0  0  0  0  0  0  0  0  0  0  0  0
  151.6993  133.5172  189.2437 N   0  0  0  0  0  0  0  0  0  0  0  0
  152.0399  134.5246  190.0647 C   0  0  0  0  0  0  0  0  0  0  0  0
  153.1870  135.2905  189.9667 C   0  0  0  0  0  0  0  0  0  0  0  0
  150.9326  137.8453  194.5211 H   0  0  0  0  0  0  0  0  0  0  0  0
  152.9962  133.9731  184.5895 N   0  0  0  0  0  0  0  0  0  0  0  0
  154.0237  133.2929  183.7536 C   0  0  0  0  0  0  0  0  0  0  0  0
  152.0067  134.6581  183.8542 C   0  0  0  0  0  0  0  0  0  0  0  0
  151.0207  135.2556  184.3559 O   0  0  0  0  0  0  0  0  0  0  0  0
  152.0773  134.7095  182.4579 O   0  0  0  0  0  0  0  0  0  0  0  0
  151.0786  134.0675  181.6506 C   0  0  0  0  0  0  0  0  0  0  0  0
  151.8450  133.4522  180.5099 C   0  0  0  0  0  0  0  0  0  0  0  0
  151.2288  132.7374  179.5144 C   0  0  0  0  0  0  0  0  0  0  0  0
  151.9762  132.1907  178.4863 C   0  0  0  0  0  0  0  0  0  0  0  0
  153.3633  132.3467  178.4294 C   0  0  0  0  0  0  0  0  0  0  0  0
  153.9744  133.0578  179.4203 C   0  0  0  0  0  0  0  0  0  0  0  0
  153.2119  133.5987  180.4425 C   0  0  0  0  0  0  0  0  0  0  0  0
  153.1101  137.2894  186.4280 C   0  0  0  0  0  0  0  0  0  0  0  0
  152.8547  136.0495  187.0098 O   0  0  0  0  0  0  0  0  0  0  0  0
 45 46  1  0  0  0
 46  1  1  0  0  0
  1  2  1  0  0  0
  2  3  1  0  0  0
  3  4  1  0  0  0
  4  5  1  0  0  0
  5  6  1  0  0  0
  6  7  1  0  0  0
  6  8  1  0  0  0
  8  9  1  0  0  0
  9 10  2  0  0  0
 10 11  1  0  0  0
 11 12  2  0  0  0
 12 13  1  0  0  0
 13 14  2  0  0  0
 14 15  1  0  0  0
 15 16  2  0  0  0
 16 17  1  0  0  0
 17 18  1  0  0  0
 18 19  1  0  0  0
 19 20  2  0  0  0
 19 21  1  0  0  0
 21 22  2  0  0  0
 22 23  1  0  0  0
 23 24  2  0  0  0
 24 25  1  0  0  0
 25 26  2  0  0  0
 26 27  1  0  0  0
 27 28  2  0  0  0
 28 29  1  0  0  0
 29 30  1  0  0  0
 30 31  2  0  0  0
  2 33  1  0  0  0
 33 34  1  0  0  0
 33 35  1  0  0  0
 35 36  2  0  0  0
 35 37  1  0  0  0
 37 38  1  0  0  0
 38 39  1  0  0  0
 39 40  2  0  0  0
 40 41  1  0  0  0
 41 42  2  0  0  0
 42 43  1  0  0  0
 43 44  2  0  0  0
  6  1  1  0  0  0
 31  8  1  0  0  0
 44 39  1  0  0  0
 29  4  1  0  0  0
 14  9  1  0  0  0
 31 15  1  0  0  0
 21 16  1  0  0  0
 30 22  1  0  0  0
 28 23  1  0  0  0
 18 32  1  0  0  0
M  END
> <minimizedAffinity>
-6.28188

> <CNNscore>
0.3014582992

> <CNNaffinity>
5.9833760262

> <CNN_VS>
1.8037383556

> <CNNaffinity_variance>
0.1241861805

$$$$
[H]c1c([H])c([H])c(C([H])([H])OC(=O)N(C([H])([H])[H])[C@]2([H])C([H])([H])[C@@]3([H])O[C@](C([H])([H])[H])(n4c5c([H])c([H])c([H])c([H])c5c5c6c(c7c8c([H])c([H])c([H])c([H])c8n3c7c54)C(=O)N([H])C6([H])[H])[C@]2([H])OC([H])([H])[H])c([H])c1[H]


 46 54  0  0  0  0  0  0  0  0999 V2000
  152.0486  136.5666  186.3537 C   0  0  0  0  0  0  0  0  0  0  0  0
  152.9442  136.2331  187.5457 C   0  0  0  0  0  0  0  0  0  0  0  0
  154.0322  135.3693  186.9794 C   0  0  0  0  0  0  0  0  0  0  0  0
  153.3349  134.1344  186.4876 C   0  0  0  0  0  0  0  0  0  0  0  0
  151.9884  134.1611  186.5674 O   0  0  0  0  0  0  0  0  0  0  0  0
  151.2840  135.2425  186.0847 C   0  0  0  0  0  0  0  0  0  0  0  0
  150.1014  135.3571  187.0146 C   0  0  0  0  0  0  0  0  0  0  0  0
  151.0390  135.0829  184.6953 N   0  0  0  0  0  0  0  0  0  0  0  0
  149.9581  135.5279  183.9706 C   0  0  0  0  0  0  0  0  0  0  0  0
  148.8336  136.2341  184.3434 C   0  0  0  0  0  0  0  0  0  0  0  0
  147.9153  136.5455  183.3501 C   0  0  0  0  0  0  0  0  0  0  0  0
  148.1283  136.1613  182.0489 C   0  0  0  0  0  0  0  0  0  0  0  0
  149.2417  135.4580  181.6532 C   0  0  0  0  0  0  0  0  0  0  0  0
  150.1499  135.1530  182.6520 C   0  0  0  0  0  0  0  0  0  0  0  0
  151.3507  134.4847  182.5955 C   0  0  0  0  0  0  0  0  0  0  0  0
  152.0640  133.9011  181.5332 C   0  0  0  0  0  0  0  0  0  0  0  0
  151.6753  133.8095  180.1367 C   0  0  0  0  0  0  0  0  0  0  0  0
  152.7397  133.1788  179.4610 N   0  0  0  0  0  0  0  0  0  0  0  0
  153.7355  132.8252  180.4113 C   0  0  0  0  0  0  0  0  0  0  0  0
  154.7614  132.2230  180.0541 O   0  0  0  0  0  0  0  0  0  0  0  0
  153.2851  133.2926  181.7080 C   0  0  0  0  0  0  0  0  0  0  0  0
  153.8392  133.2468  182.9770 C   0  0  0  0  0  0  0  0  0  0  0  0
  154.9843  132.7453  183.5269 C   0  0  0  0  0  0  0  0  0  0  0  0
  156.0459  132.0782  182.9758 C   0  0  0  0  0  0  0  0  0  0  0  0
  157.0848  131.6921  183.8382 C   0  0  0  0  0  0  0  0  0  0  0  0
  157.0568  131.9636  185.1870 C   0  0  0  0  0  0  0  0  0  0  0  0
  155.9649  132.6378  185.6909 C   0  0  0  0  0  0  0  0  0  0  0  0
  154.9197  133.0356  184.8730 C   0  0  0  0  0  0  0  0  0  0  0  0
  153.7894  133.6892  185.1657 N   0  0  0  0  0  0  0  0  0  0  0  0
  153.1239  133.8232  184.0064 C   0  0  0  0  0  0  0  0  0  0  0  0
  151.8968  134.4409  183.8490 C   0  0  0  0  0  0  0  0  0  0  0  0
  152.7531  133.0152  178.4097 H   0  0  0  0  0  0  0  0  0  0  0  0
  153.3326  137.3092  188.3655 N   0  0  0  0  0  0  0  0  0  0  0  0
  152.3042  138.3627  188.5875 C   0  0  0  0  0  0  0  0  0  0  0  0
  154.5611  137.5473  189.0161 C   0  0  0  0  0  0  0  0  0  0  0  0
  155.5456  136.7654  189.0051 O   0  0  0  0  0  0  0  0  0  0  0  0
  154.7547  138.7267  189.7435 O   0  0  0  0  0  0  0  0  0  0  0  0
  154.8791  138.6924  191.1734 C   0  0  0  0  0  0  0  0  0  0  0  0
  154.2952  139.9994  191.6404 C   0  0  0  0  0  0  0  0  0  0  0  0
  153.4762  140.7613  190.8464 C   0  0  0  0  0  0  0  0  0  0  0  0
  152.9637  141.9559  191.3204 C   0  0  0  0  0  0  0  0  0  0  0  0
  153.2596  142.4186  192.6049 C   0  0  0  0  0  0  0  0  0  0  0  0
  154.0742  141.6596  193.3931 C   0  0  0  0  0  0  0  0  0  0  0  0
  154.5791  140.4661  192.9037 C   0  0  0  0  0  0  0  0  0  0  0  0
  153.3139  138.2766  185.3973 C   0  0  0  0  0  0  0  0  0  0  0  0
  152.6381  137.0661  185.2593 O   0  0  0  0  0  0  0  0  0  0  0  0
 45 46  1  0  0  0
 46  1  1  0  0  0
  1  2  1  0  0  0
  2  3  1  0  0  0
  3  4  1  0  0  0
  4  5  1  0  0  0
  5  6  1  0  0  0
  6  7  1  0  0  0
  6  8  1  0  0  0
  8  9  1  0  0  0
  9 10  2  0  0  0
 10 11  1  0  0  0
 11 12  2  0  0  0
 12 13  1  0  0  0
 13 14  2  0  0  0
 14 15  1  0  0  0
 15 16  2  0  0  0
 16 17  1  0  0  0
 17 18  1  0  0  0
 18 19  1  0  0  0
 19 20  2  0  0  0
 19 21  1  0  0  0
 21 22  2  0  0  0
 22 23  1  0  0  0
 23 24  2  0  0  0
 24 25  1  0  0  0
 25 26  2  0  0  0
 26 27  1  0  0  0
 27 28  2  0  0  0
 28 29  1  0  0  0
 29 30  1  0  0  0
 30 31  2  0  0  0
  2 33  1  0  0  0
 33 34  1  0  0  0
 33 35  1  0  0  0
 35 36  2  0  0  0
 35 37  1  0  0  0
 37 38  1  0  0  0
 38 39  1  0  0  0
 39 40  2  0  0  0
 40 41  1  0  0  0
 41 42  2  0  0  0
 42 43  1  0  0  0
 43 44  2  0  0  0
  6  1  1  0  0  0
 31  8  1  0  0  0
 44 39  1  0  0  0
 29  4  1  0  0  0
 14  9  1  0  0  0
 31 15  1  0  0  0
 21 16  1  0  0  0
 30 22  1  0  0  0
 28 23  1  0  0  0
 18 32  1  0  0  0
M  END
> <minimizedAffinity>
10.57745

> <CNNscore>
0.2920910418

> <CNNaffinity>
5.8924117088

> <CNN_VS>
1.7211207151

> <CNNaffinity_variance>
0.4654451907

$$$$
[H]c1c([H])c([H])c(C([H])([H])OC(=O)N(C([H])([H])[H])[C@]2([H])C([H])([H])[C@@]3([H])O[C@](C([H])([H])[H])(n4c5c([H])c([H])c([H])c([H])c5c5c6c(c7c8c([H])c([H])c([H])c([H])c8n3c7c54)C(=O)N([H])C6([H])[H])[C@]2([H])OC([H])([H])[H])c([H])c1[H]


 46 54  0  0  0  0  0  0  0  0999 V2000
  151.1201  135.6848  186.1518 C   0  0  0  0  0  0  0  0  0  0  0  0
  150.2254  134.6242  185.5124 C   0  0  0  0  0  0  0  0  0  0  0  0
  149.3335  134.1532  186.6231 C   0  0  0  0  0  0  0  0  0  0  0  0
  150.2564  133.5235  187.6253 C   0  0  0  0  0  0  0  0  0  0  0  0
  151.5722  133.6357  187.3490 O   0  0  0  0  0  0  0  0  0  0  0  0
  152.1114  134.8592  187.0157 C   0  0  0  0  0  0  0  0  0  0  0  0
  153.2013  134.5251  186.0274 C   0  0  0  0  0  0  0  0  0  0  0  0
  152.4606  135.5739  188.1918 N   0  0  0  0  0  0  0  0  0  0  0  0
  153.4916  136.4678  188.3634 C   0  0  0  0  0  0  0  0  0  0  0  0
  154.4573  136.9300  187.4938 C   0  0  0  0  0  0  0  0  0  0  0  0
  155.3665  137.8582  187.9823 C   0  0  0  0  0  0  0  0  0  0  0  0
  155.2978  138.2939  189.2829 C   0  0  0  0  0  0  0  0  0  0  0  0
  154.3439  137.8487  190.1676 C   0  0  0  0  0  0  0  0  0  0  0  0
  153.4432  136.9234  189.6696 C   0  0  0  0  0  0  0  0  0  0  0  0
  152.3776  136.2978  190.2735 C   0  0  0  0  0  0  0  0  0  0  0  0
  151.8362  136.3818  191.5687 C   0  0  0  0  0  0  0  0  0  0  0  0
  152.3159  137.1698  192.6906 C   0  0  0  0  0  0  0  0  0  0  0  0
  151.4144  136.9527  193.7525 N   0  0  0  0  0  0  0  0  0  0  0  0
  150.4385  136.0080  193.3342 C   0  0  0  0  0  0  0  0  0  0  0  0
  149.5514  135.6302  194.1171 O   0  0  0  0  0  0  0  0  0  0  0  0
  150.7270  135.6659  191.9549 C   0  0  0  0  0  0  0  0  0  0  0  0
  150.1152  134.8257  191.0387 C   0  0  0  0  0  0  0  0  0  0  0  0
  149.0408  133.9828  191.0499 C   0  0  0  0  0  0  0  0  0  0  0  0
  148.1409  133.6633  192.0316 C   0  0  0  0  0  0  0  0  0  0  0  0
  147.1332  132.7399  191.7092 C   0  0  0  0  0  0  0  0  0  0  0  0
  147.0361  132.1669  190.4617 C   0  0  0  0  0  0  0  0  0  0  0  0
  147.9674  132.5228  189.5096 C   0  0  0  0  0  0  0  0  0  0  0  0
  148.9767  133.4302  189.7885 C   0  0  0  0  0  0  0  0  0  0  0  0
  149.9616  133.8978  189.0129 N   0  0  0  0  0  0  0  0  0  0  0  0
  150.6617  134.7556  189.7737 C   0  0  0  0  0  0  0  0  0  0  0  0
  151.7742  135.4692  189.3674 C   0  0  0  0  0  0  0  0  0  0  0  0
  151.4902  137.4387  194.6959 H   0  0  0  0  0  0  0  0  0  0  0  0
  149.6138  134.9652  184.2915 N   0  0  0  0  0  0  0  0  0  0  0  0
  148.1986  134.5321  184.1289 C   0  0  0  0  0  0  0  0  0  0  0  0
  150.1414  135.6613  183.1841 C   0  0  0  0  0  0  0  0  0  0  0  0
  151.2948  136.1588  183.1288 O   0  0  0  0  0  0  0  0  0  0  0  0
  149.3671  135.8417  182.0329 O   0  0  0  0  0  0  0  0  0  0  0  0
  149.9764  135.8356  180.7330 C   0  0  0  0  0  0  0  0  0  0  0  0
  148.9578  136.4781  179.8291 C   0  0  0  0  0  0  0  0  0  0  0  0
  149.0807  137.7719  179.3899 C   0  0  0  0  0  0  0  0  0  0  0  0
  148.1180  138.3185  178.5599 C   0  0  0  0  0  0  0  0  0  0  0  0
  147.0053  137.5812  178.1479 C   0  0  0  0  0  0  0  0  0  0  0  0
  146.8848  136.2947  178.5857 C   0  0  0  0  0  0  0  0  0  0  0  0
  147.8572  135.7622  179.4162 C   0  0  0  0  0  0  0  0  0  0  0  0
  149.6719  137.5126  186.1201 C   0  0  0  0  0  0  0  0  0  0  0  0
  150.5200  136.6690  186.8342 O   0  0  0  0  0  0  0  0  0  0  0  0
 45 46  1  0  0  0
 46  1  1  0  0  0
  1  2  1  0  0  0
  2  3  1  0  0  0
  3  4  1  0  0  0
  4  5  1  0  0  0
  5  6  1  0  0  0
  6  7  1  0  0  0
  6  8  1  0  0  0
  8  9  1  0  0  0
  9 10  2  0  0  0
 10 11  1  0  0  0
 11 12  2  0  0  0
 12 13  1  0  0  0
 13 14  2  0  0  0
 14 15  1  0  0  0
 15 16  2  0  0  0
 16 17  1  0  0  0
 17 18  1  0  0  0
 18 19  1  0  0  0
 19 20  2  0  0  0
 19 21  1  0  0  0
 21 22  2  0  0  0
 22 23  1  0  0  0
 23 24  2  0  0  0
 24 25  1  0  0  0
 25 26  2  0  0  0
 26 27  1  0  0  0
 27 28  2  0  0  0
 28 29  1  0  0  0
 29 30  1  0  0  0
 30 31  2  0  0  0
  2 33  1  0  0  0
 33 34  1  0  0  0
 33 35  1  0  0  0
 35 36  2  0  0  0
 35 37  1  0  0  0
 37 38  1  0  0  0
 38 39  1  0  0  0
 39 40  2  0  0  0
 40 41  1  0  0  0
 41 42  2  0  0  0
 42 43  1  0  0  0
 43 44  2  0  0  0
  6  1  1  0  0  0
 31  8  1  0  0  0
 44 39  1  0  0  0
 29  4  1  0  0  0
 14  9  1  0  0  0
 31 15  1  0  0  0
 21 16  1  0  0  0
 30 22  1  0  0  0
 28 23  1  0  0  0
 18 32  1  0  0  0
M  END
> <minimizedAffinity>
-7.06974

> <CNNscore>
0.2786357403

> <CNNaffinity>
5.9652872086

> <CNN_VS>
1.6621422768

> <CNNaffinity_variance>
0.1503083408

$$$$
[H]c1c([H])c([H])c(C([H])([H])OC(=O)N(C([H])([H])[H])[C@]2([H])C([H])([H])[C@@]3([H])O[C@](C([H])([H])[H])(n4c5c([H])c([H])c([H])c([H])c5c5c6c(c7c8c([H])c([H])c([H])c([H])c8n3c7c54)C(=O)N([H])C6([H])[H])[C@]2([H])OC([H])([H])[H])c([H])c1[H]


 46 54  0  0  0  0  0  0  0  0999 V2000
  152.4229  135.3170  184.9414 C   0  0  0  0  0  0  0  0  0  0  0  0
  153.9467  135.2567  184.8481 C   0  0  0  0  0  0  0  0  0  0  0  0
  154.2265  134.6950  183.4854 C   0  0  0  0  0  0  0  0  0  0  0  0
  153.6488  133.3098  183.5074 C   0  0  0  0  0  0  0  0  0  0  0  0
  152.9697  132.9850  184.6270 O   0  0  0  0  0  0  0  0  0  0  0  0
  152.0056  133.8332  185.1268 C   0  0  0  0  0  0  0  0  0  0  0  0
  152.0974  133.6555  186.6222 C   0  0  0  0  0  0  0  0  0  0  0  0
  150.7608  133.5835  184.4911 N   0  0  0  0  0  0  0  0  0  0  0  0
  149.4989  133.7135  185.0223 C   0  0  0  0  0  0  0  0  0  0  0  0
  149.0671  134.1091  186.2711 C   0  0  0  0  0  0  0  0  0  0  0  0
  147.6973  134.1467  186.4921 C   0  0  0  0  0  0  0  0  0  0  0  0
  146.8141  133.8021  185.4984 C   0  0  0  0  0  0  0  0  0  0  0  0
  147.2205  133.4058  184.2459 C   0  0  0  0  0  0  0  0  0  0  0  0
  148.5882  133.3719  184.0374 C   0  0  0  0  0  0  0  0  0  0  0  0
  149.3143  133.0399  182.9174 C   0  0  0  0  0  0  0  0  0  0  0  0
  148.9352  132.6393  181.6237 C   0  0  0  0  0  0  0  0  0  0  0  0
  147.5942  132.4174  181.1118 C   0  0  0  0  0  0  0  0  0  0  0  0
  147.7322  132.0720  179.7520 N   0  0  0  0  0  0  0  0  0  0  0  0
  149.1166  132.0130  179.4363 C   0  0  0  0  0  0  0  0  0  0  0  0
  149.4894  131.6923  178.2957 O   0  0  0  0  0  0  0  0  0  0  0  0
  149.8516  132.3757  180.6325 C   0  0  0  0  0  0  0  0  0  0  0  0
  151.2023  132.5054  180.9123 C   0  0  0  0  0  0  0  0  0  0  0  0
  152.3660  132.3336  180.2184 C   0  0  0  0  0  0  0  0  0  0  0  0
  152.6106  131.9552  178.9251 C   0  0  0  0  0  0  0  0  0  0  0  0
  153.9522  131.8741  178.5180 C   0  0  0  0  0  0  0  0  0  0  0  0
  154.9950  132.1595  179.3696 C   0  0  0  0  0  0  0  0  0  0  0  0
  154.6938  132.5358  180.6613 C   0  0  0  0  0  0  0  0  0  0  0  0
  153.3832  132.6275  181.1011 C   0  0  0  0  0  0  0  0  0  0  0  0
  152.8917  132.9691  182.2978 N   0  0  0  0  0  0  0  0  0  0  0  0
  151.5547  132.8979  182.1872 C   0  0  0  0  0  0  0  0  0  0  0  0
  150.6477  133.1692  183.1951 C   0  0  0  0  0  0  0  0  0  0  0  0
  146.9068  131.8937  179.1047 H   0  0  0  0  0  0  0  0  0  0  0  0
  154.6499  136.4154  185.2276 N   0  0  0  0  0  0  0  0  0  0  0  0
  155.3817  136.3380  186.5219 C   0  0  0  0  0  0  0  0  0  0  0  0
  154.7688  137.6539  184.5636 C   0  0  0  0  0  0  0  0  0  0  0  0
  154.2757  137.9181  183.4376 O   0  0  0  0  0  0  0  0  0  0  0  0
  155.4782  138.7043  185.1561 O   0  0  0  0  0  0  0  0  0  0  0  0
  155.5261  139.9974  184.5341 C   0  0  0  0  0  0  0  0  0  0  0  0
  156.9896  140.2485  184.2841 C   0  0  0  0  0  0  0  0  0  0  0  0
  157.7504  141.0331  185.1132 C   0  0  0  0  0  0  0  0  0  0  0  0
  159.0921  141.2345  184.8416 C   0  0  0  0  0  0  0  0  0  0  0  0
  159.7070  140.6535  183.7300 C   0  0  0  0  0  0  0  0  0  0  0  0
  158.9490  139.8735  182.9066 C   0  0  0  0  0  0  0  0  0  0  0  0
  157.6071  139.6818  183.1924 C   0  0  0  0  0  0  0  0  0  0  0  0
  150.9867  137.0323  184.2823 C   0  0  0  0  0  0  0  0  0  0  0  0
  151.7672  135.9283  183.9460 O   0  0  0  0  0  0  0  0  0  0  0  0
 45 46  1  0  0  0
 46  1  1  0  0  0
  1  2  1  0  0  0
  2  3  1  0  0  0
  3  4  1  0  0  0
  4  5  1  0  0  0
  5  6  1  0  0  0
  6  7  1  0  0  0
  6  8  1  0  0  0
  8  9  1  0  0  0
  9 10  2  0  0  0
 10 11  1  0  0  0
 11 12  2  0  0  0
 12 13  1  0  0  0
 13 14  2  0  0  0
 14 15  1  0  0  0
 15 16  2  0  0  0
 16 17  1  0  0  0
 17 18  1  0  0  0
 18 19  1  0  0  0
 19 20  2  0  0  0
 19 21  1  0  0  0
 21 22  2  0  0  0
 22 23  1  0  0  0
 23 24  2  0  0  0
 24 25  1  0  0  0
 25 26  2  0  0  0
 26 27  1  0  0  0
 27 28  2  0  0  0
 28 29  1  0  0  0
 29 30  1  0  0  0
 30 31  2  0  0  0
  2 33  1  0  0  0
 33 34  1  0  0  0
 33 35  1  0  0  0
 35 36  2  0  0  0
 35 37  1  0  0  0
 37 38  1  0  0  0
 38 39  1  0  0  0
 39 40  2  0  0  0
 40 41  1  0  0  0
 41 42  2  0  0  0
 42 43  1  0  0  0
 43 44  2  0  0  0
  6  1  1  0  0  0
 31  8  1  0  0  0
 44 39  1  0  0  0
 29  4  1  0  0  0
 14  9  1  0  0  0
 31 15  1  0  0  0
 21 16  1  0  0  0
 30 22  1  0  0  0
 28 23  1  0  0  0
 18 32  1  0  0  0
M  END
> <minimizedAffinity>
-4.60219

> <CNNscore>
0.2649435103

> <CNNaffinity>
6.0960373878

> <CNN_VS>
1.6151055098

> <CNNaffinity_variance>
0.4002075791

$$$$
[H]c1c([H])c([H])c(C([H])([H])OC(=O)N(C([H])([H])[H])[C@]2([H])C([H])([H])[C@@]3([H])O[C@](C([H])([H])[H])(n4c5c([H])c([H])c([H])c([H])c5c5c6c(c7c8c([H])c([H])c([H])c([H])c8n3c7c54)C(=O)N([H])C6([H])[H])[C@]2([H])OC([H])([H])[H])c([H])c1[H]


 46 54  0  0  0  0  0  0  0  0999 V2000
  153.1095  136.2138  186.4096 C   0  0  0  0  0  0  0  0  0  0  0  0
  154.3124  136.9243  187.0280 C   0  0  0  0  0  0  0  0  0  0  0  0
  154.4271  138.2150  186.2717 C   0  0  0  0  0  0  0  0  0  0  0  0
  154.7274  137.8137  184.8569 C   0  0  0  0  0  0  0  0  0  0  0  0
  154.7045  136.4864  184.6158 O   0  0  0  0  0  0  0  0  0  0  0  0
  153.6382  135.7212  185.0354 C   0  0  0  0  0  0  0  0  0  0  0  0
  154.2548  134.3892  185.3845 C   0  0  0  0  0  0  0  0  0  0  0  0
  152.6035  135.7538  184.0637 N   0  0  0  0  0  0  0  0  0  0  0  0
  151.7002  134.7631  183.7568 C   0  0  0  0  0  0  0  0  0  0  0  0
  151.5215  133.4955  184.2701 C   0  0  0  0  0  0  0  0  0  0  0  0
  150.4903  132.7310  183.7420 C   0  0  0  0  0  0  0  0  0  0  0  0
  149.6838  133.2276  182.7474 C   0  0  0  0  0  0  0  0  0  0  0  0
  149.8418  134.4880  182.2208 C   0  0  0  0  0  0  0  0  0  0  0  0
  150.8732  135.2407  182.7548 C   0  0  0  0  0  0  0  0  0  0  0  0
  151.2875  136.5206  182.4686 C   0  0  0  0  0  0  0  0  0  0  0  0
  150.8177  137.4918  181.5665 C   0  0  0  0  0  0  0  0  0  0  0  0
  149.7294  137.3754  180.6116 C   0  0  0  0  0  0  0  0  0  0  0  0
  149.6167  138.6267  179.9720 N   0  0  0  0  0  0  0  0  0  0  0  0
  150.6425  139.4806  180.4600 C   0  0  0  0  0  0  0  0  0  0  0  0
  150.7669  140.6336  180.0153 O   0  0  0  0  0  0  0  0  0  0  0  0
  151.3835  138.7413  181.4636 C   0  0  0  0  0  0  0  0  0  0  0  0
  152.4596  139.0622  182.2752 C   0  0  0  0  0  0  0  0  0  0  0  0
  153.2593  140.1548  182.4528 C   0  0  0  0  0  0  0  0  0  0  0  0
  153.2682  141.3869  181.8547 C   0  0  0  0  0  0  0  0  0  0  0  0
  154.2449  142.3033  182.2767 C   0  0  0  0  0  0  0  0  0  0  0  0
  155.1663  141.9955  183.2516 C   0  0  0  0  0  0  0  0  0  0  0  0
  155.1136  140.7412  183.8215 C   0  0  0  0  0  0  0  0  0  0  0  0
  154.1653  139.8090  183.4325 C   0  0  0  0  0  0  0  0  0  0  0  0
  153.9532  138.5581  183.8574 N   0  0  0  0  0  0  0  0  0  0  0  0
  152.9071  138.0959  183.1525 C   0  0  0  0  0  0  0  0  0  0  0  0
  152.3495  136.8361  183.2712 C   0  0  0  0  0  0  0  0  0  0  0  0
  148.8697  138.8511  179.2484 H   0  0  0  0  0  0  0  0  0  0  0  0
  154.3535  136.9916  188.4332 N   0  0  0  0  0  0  0  0  0  0  0  0
  153.9641  138.2970  189.0341 C   0  0  0  0  0  0  0  0  0  0  0  0
  154.7121  136.0016  189.3715 C   0  0  0  0  0  0  0  0  0  0  0  0
  155.0239  134.8175  189.0860 O   0  0  0  0  0  0  0  0  0  0  0  0
  154.7401  136.3043  190.7372 O   0  0  0  0  0  0  0  0  0  0  0  0
  154.6258  135.2637  191.7197 C   0  0  0  0  0  0  0  0  0  0  0  0
  153.4611  135.6756  192.5806 C   0  0  0  0  0  0  0  0  0  0  0  0
  152.9828  134.8838  193.5936 C   0  0  0  0  0  0  0  0  0  0  0  0
  151.9094  135.3058  194.3579 C   0  0  0  0  0  0  0  0  0  0  0  0
  151.2865  136.5345  194.1262 C   0  0  0  0  0  0  0  0  0  0  0  0
  151.7635  137.3206  193.1184 C   0  0  0  0  0  0  0  0  0  0  0  0
  152.8389  136.8837  192.3624 C   0  0  0  0  0  0  0  0  0  0  0  0
  150.9037  136.4857  187.1166 C   0  0  0  0  0  0  0  0  0  0  0  0
  151.9652  136.9041  186.3171 O   0  0  0  0  0  0  0  0  0  0  0  0
 45 46  1  0  0  0
 46  1  1  0  0  0
  1  2  1  0  0  0
  2  3  1  0  0  0
  3  4  1  0  0  0
  4  5  1  0  0  0
  5  6  1  0  0  0
  6  7  1  0  0  0
  6  8  1  0  0  0
  8  9  1  0  0  0
  9 10  2  0  0  0
 10 11  1  0  0  0
 11 12  2  0  0  0
 12 13  1  0  0  0
 13 14  2  0  0  0
 14 15  1  0  0  0
 15 16  2  0  0  0
 16 17  1  0  0  0
 17 18  1  0  0  0
 18 19  1  0  0  0
 19 20  2  0  0  0
 19 21  1  0  0  0
 21 22  2  0  0  0
 22 23  1  0  0  0
 23 24  2  0  0  0
 24 25  1  0  0  0
 25 26  2  0  0  0
 26 27  1  0  0  0
 27 28  2  0  0  0
 28 29  1  0  0  0
 29 30  1  0  0  0
 30 31  2  0  0  0
  2 33  1  0  0  0
 33 34  1  0  0  0
 33 35  1  0  0  0
 35 36  2  0  0  0
 35 37  1  0  0  0
 37 38  1  0  0  0
 38 39  1  0  0  0
 39 40  2  0  0  0
 40 41  1  0  0  0
 41 42  2  0  0  0
 42 43  1  0  0  0
 43 44  2  0  0  0
  6  1  1  0  0  0
 31  8  1  0  0  0
 44 39  1  0  0  0
 29  4  1  0  0  0
 14  9  1  0  0  0
 31 15  1  0  0  0
 21 16  1  0  0  0
 30 22  1  0  0  0
 28 23  1  0  0  0
 18 32  1  0  0  0
M  END
> <minimizedAffinity>
-8.94463

> <CNNscore>
0.2642450929

> <CNNaffinity>
6.1248612404

> <CNN_VS>
1.6184644699

> <CNNaffinity_variance>
0.4315918386

$$$$
[H]C#C[C@]1(O[H])C([H])([H])C([H])([H])[C@]2([H])[C@]1(C([H])([H])[H])C([H])([H])C([H])([H])[C@]1([H])C3(C([H])([H])[H])C(=C([H])C(=O)C([H])([H])C3([H])[H])C([H])([H])C([H])([H])[C@]12[H]


 24 27  0  0  0  0  0  0  0  0999 V2000
  153.2562  135.4358  188.0704 C   0  0  0  0  0  0  0  0  0  0  0  0
  154.1301  136.5224  187.5022 C   0  0  0  0  0  0  0  0  0  0  0  0
  155.0589  135.9817  186.4842 C   0  0  0  0  0  0  0  0  0  0  0  0
  155.9623  134.9476  187.0714 C   0  0  0  0  0  0  0  0  0  0  0  0
  156.5485  135.2899  188.3992 C   0  0  0  0  0  0  0  0  0  0  0  0
  155.5707  135.9891  189.3345 C   0  0  0  0  0  0  0  0  0  0  0  0
  156.4004  136.4003  190.5582 C   0  0  0  0  0  0  0  0  0  0  0  0
  156.6146  135.1195  191.3391 C   0  0  0  0  0  0  0  0  0  0  0  0
  157.4383  134.2121  190.4683 C   0  0  0  0  0  0  0  0  0  0  0  0
  158.3952  133.4952  191.0366 C   0  0  0  0  0  0  0  0  0  0  0  0
  159.2458  132.5869  190.2706 C   0  0  0  0  0  0  0  0  0  0  0  0
  159.9052  131.6923  190.8349 O   0  0  0  0  0  0  0  0  0  0  0  0
  159.3151  132.7440  188.7994 C   0  0  0  0  0  0  0  0  0  0  0  0
  158.5801  133.9625  188.3295 C   0  0  0  0  0  0  0  0  0  0  0  0
  157.2109  134.0998  189.0101 C   0  0  0  0  0  0  0  0  0  0  0  0
  156.4293  132.8224  188.7768 C   0  0  0  0  0  0  0  0  0  0  0  0
  155.0399  137.1319  188.5822 C   0  0  0  0  0  0  0  0  0  0  0  0
  154.1355  138.0719  189.2449 C   0  0  0  0  0  0  0  0  0  0  0  0
  153.5673  138.8141  188.0213 C   0  0  0  0  0  0  0  0  0  0  0  0
  153.2786  137.6584  187.0854 C   0  0  0  0  0  0  0  0  0  0  0  0
  151.9070  137.3643  187.2588 O   0  0  0  0  0  0  0  0  0  0  0  0
  151.4243  138.1852  187.5342 H   0  0  0  0  0  0  0  0  0  0  0  0
  153.4352  138.0365  185.6875 C   0  0  0  0  0  0  0  0  0  0  0  0
  153.5524  138.3481  184.5309 C   0  0  0  0  0  0  0  0  0  0  0  0
  2  1  1  0  0  0
  2  3  1  0  0  0
  3  4  1  0  0  0
  4  5  1  0  0  0
  5  6  1  0  0  0
  6  7  1  0  0  0
  7  8  1  0  0  0
  8  9  1  0  0  0
  9 10  2  0  0  0
 10 11  1  0  0  0
 11 12  2  0  0  0
 11 13  1  0  0  0
 13 14  1  0  0  0
 14 15  1  0  0  0
 15 16  1  0  0  0
  6 17  1  0  0  0
 17 18  1  0  0  0
 18 19  1  0  0  0
 19 20  1  0  0  0
 20 21  1  0  0  0
 20 23  1  0  0  0
 23 24  3  0  0  0
 17  2  1  0  0  0
 20  2  1  0  0  0
 15  5  1  0  0  0
 15  9  1  0  0  0
 21 22  1  0  0  0
M  END
> <minimizedAffinity>
-6.00736

> <CNNscore>
0.5420886278

> <CNNaffinity>
5.2739481926

> <CNN_VS>
2.8589472771

> <CNNaffinity_variance>
0.3182623684

$$$$
[H]C#C[C@]1(O[H])C([H])([H])C([H])([H])[C@]2([H])[C@]1(C([H])([H])[H])C([H])([H])C([H])([H])[C@]1([H])C3(C([H])([H])[H])C(=C([H])C(=O)C([H])([H])C3([H])[H])C([H])([H])C([H])([H])[C@]12[H]


 24 27  0  0  0  0  0  0  0  0999 V2000
  151.4871  137.3163  192.4240 C   0  0  0  0  0  0  0  0  0  0  0  0
  151.7513  135.8417  192.2731 C   0  0  0  0  0  0  0  0  0  0  0  0
  153.1878  135.5358  192.4585 C   0  0  0  0  0  0  0  0  0  0  0  0
  154.0264  136.2426  191.4448 C   0  0  0  0  0  0  0  0  0  0  0  0
  153.5079  136.2048  190.0471 C   0  0  0  0  0  0  0  0  0  0  0  0
  151.9965  136.3682  189.9536 C   0  0  0  0  0  0  0  0  0  0  0  0
  151.6518  136.1344  188.4767 C   0  0  0  0  0  0  0  0  0  0  0  0
  152.0807  137.4017  187.7653 C   0  0  0  0  0  0  0  0  0  0  0  0
  153.5736  137.4991  187.9128 C   0  0  0  0  0  0  0  0  0  0  0  0
  154.2816  137.9124  186.8734 C   0  0  0  0  0  0  0  0  0  0  0  0
  155.7366  138.0380  186.9237 C   0  0  0  0  0  0  0  0  0  0  0  0
  156.3536  138.7204  186.0828 O   0  0  0  0  0  0  0  0  0  0  0  0
  156.4770  137.3370  187.9980 C   0  0  0  0  0  0  0  0  0  0  0  0
  155.5825  136.4503  188.8101 C   0  0  0  0  0  0  0  0  0  0  0  0
  154.2650  137.1495  189.1739 C   0  0  0  0  0  0  0  0  0  0  0  0
  154.5918  138.4503  189.8798 C   0  0  0  0  0  0  0  0  0  0  0  0
  151.4252  135.3566  190.8504 C   0  0  0  0  0  0  0  0  0  0  0  0
  149.9730  135.1888  190.9131 C   0  0  0  0  0  0  0  0  0  0  0  0
  149.8494  134.3532  192.2005 C   0  0  0  0  0  0  0  0  0  0  0  0
  150.7992  135.0912  193.1214 C   0  0  0  0  0  0  0  0  0  0  0  0
  149.9881  135.9644  193.8813 O   0  0  0  0  0  0  0  0  0  0  0  0
  149.0786  135.5799  193.9688 H   0  0  0  0  0  0  0  0  0  0  0  0
  151.4348  134.1971  194.0795 C   0  0  0  0  0  0  0  0  0  0  0  0
  151.9646  133.4514  194.8619 C   0  0  0  0  0  0  0  0  0  0  0  0
  2  1  1  0  0  0
  2  3  1  0  0  0
  3  4  1  0  0  0
  4  5  1  0  0  0
  5  6  1  0  0  0
  6  7  1  0  0  0
  7  8  1  0  0  0
  8  9  1  0  0  0
  9 10  2  0  0  0
 10 11  1  0  0  0
 11 12  2  0  0  0
 11 13  1  0  0  0
 13 14  1  0  0  0
 14 15  1  0  0  0
 15 16  1  0  0  0
  6 17  1  0  0  0
 17 18  1  0  0  0
 18 19  1  0  0  0
 19 20  1  0  0  0
 20 21  1  0  0  0
 20 23  1  0  0  0
 23 24  3  0  0  0
 17  2  1  0  0  0
 20  2  1  0  0  0
 15  5  1  0  0  0
 15  9  1  0  0  0
 21 22  1  0  0  0
M  END
> <minimizedAffinity>
-6.58908

> <CNNscore>
0.5131867528

> <CNNaffinity>
5.2986578941

> <CNN_VS>
2.7192010880

> <CNNaffinity_variance>
0.0741973072

$$$$
[H]C#C[C@]1(O[H])C([H])([H])C([H])([H])[C@]2([H])[C@]1(C([H])([H])[H])C([H])([H])C([H])([H])[C@]1([H])C3(C([H])([H])[H])C(=C([H])C(=O)C([H])([H])C3([H])[H])C([H])([H])C([H])([H])[C@]12[H]


 24 27  0  0  0  0  0  0  0  0999 V2000
  152.7749  133.7747  192.3553 C   0  0  0  0  0  0  0  0  0  0  0  0
  151.5398  134.6359  192.3606 C   0  0  0  0  0  0  0  0  0  0  0  0
  150.8536  134.5918  191.0497 C   0  0  0  0  0  0  0  0  0  0  0  0
  151.7401  135.0945  189.9580 C   0  0  0  0  0  0  0  0  0  0  0  0
  152.5024  136.3365  190.2740 C   0  0  0  0  0  0  0  0  0  0  0  0
  153.0419  136.3742  191.6979 C   0  0  0  0  0  0  0  0  0  0  0  0
  153.6359  137.7785  191.8716 C   0  0  0  0  0  0  0  0  0  0  0  0
  154.9471  137.7497  191.1125 C   0  0  0  0  0  0  0  0  0  0  0  0
  154.6062  137.5353  189.6641 C   0  0  0  0  0  0  0  0  0  0  0  0
  155.2880  138.2104  188.7520 C   0  0  0  0  0  0  0  0  0  0  0  0
  155.0267  138.0670  187.3215 C   0  0  0  0  0  0  0  0  0  0  0  0
  155.8618  138.4380  186.4739 O   0  0  0  0  0  0  0  0  0  0  0  0
  153.7435  137.4686  186.8866 C   0  0  0  0  0  0  0  0  0  0  0  0
  152.8152  137.2317  188.0390 C   0  0  0  0  0  0  0  0  0  0  0  0
  153.5415  136.6008  189.2354 C   0  0  0  0  0  0  0  0  0  0  0  0
  154.2236  135.3309  188.7668 C   0  0  0  0  0  0  0  0  0  0  0  0
  151.8912  136.1183  192.5721 C   0  0  0  0  0  0  0  0  0  0  0  0
  152.0618  136.1849  194.0238 C   0  0  0  0  0  0  0  0  0  0  0  0
  150.7663  135.4914  194.4838 C   0  0  0  0  0  0  0  0  0  0  0  0
  150.7228  134.3010  193.5478 C   0  0  0  0  0  0  0  0  0  0  0  0
  151.2862  133.2273  194.2742 O   0  0  0  0  0  0  0  0  0  0  0  0
  151.1339  133.3670  195.2437 H   0  0  0  0  0  0  0  0  0  0  0  0
  149.3570  133.9025  193.2356 C   0  0  0  0  0  0  0  0  0  0  0  0
  148.2277  133.5673  192.9885 C   0  0  0  0  0  0  0  0  0  0  0  0
  2  1  1  0  0  0
  2  3  1  0  0  0
  3  4  1  0  0  0
  4  5  1  0  0  0
  5  6  1  0  0  0
  6  7  1  0  0  0
  7  8  1  0  0  0
  8  9  1  0  0  0
  9 10  2  0  0  0
 10 11  1  0  0  0
 11 12  2  0  0  0
 11 13  1  0  0  0
 13 14  1  0  0  0
 14 15  1  0  0  0
 15 16  1  0  0  0
  6 17  1  0  0  0
 17 18  1  0  0  0
 18 19  1  0  0  0
 19 20  1  0  0  0
 20 21  1  0  0  0
 20 23  1  0  0  0
 23 24  3  0  0  0
 17  2  1  0  0  0
 20  2  1  0  0  0
 15  5  1  0  0  0
 15  9  1  0  0  0
 21 22  1  0  0  0
M  END
> <minimizedAffinity>
-6.13554

> <CNNscore>
0.5111585259

> <CNNaffinity>
5.1915655136

> <CNN_VS>
2.6537129879

> <CNNaffinity_variance>
0.0784645826

$$$$
[H]C#C[C@]1(O[H])C([H])([H])C([H])([H])[C@]2([H])[C@]1(C([H])([H])[H])C([H])([H])C([H])([H])[C@]1([H])C3(C([H])([H])[H])C(=C([H])C(=O)C([H])([H])C3([H])[H])C([H])([H])C([H])([H])[C@]12[H]


 24 27  0  0  0  0  0  0  0  0999 V2000
  153.3509  134.2370  190.1758 C   0  0  0  0  0  0  0  0  0  0  0  0
  152.6747  135.4083  190.8376 C   0  0  0  0  0  0  0  0  0  0  0  0
  151.6102  135.9671  189.9738 C   0  0  0  0  0  0  0  0  0  0  0  0
  152.1663  136.4517  188.6752 C   0  0  0  0  0  0  0  0  0  0  0  0
  153.4304  137.2366  188.7738 C   0  0  0  0  0  0  0  0  0  0  0  0
  154.4101  136.6865  189.8022 C   0  0  0  0  0  0  0  0  0  0  0  0
  155.5490  137.7127  189.8699 C   0  0  0  0  0  0  0  0  0  0  0  0
  156.3609  137.4857  188.6107 C   0  0  0  0  0  0  0  0  0  0  0  0
  155.4657  137.8198  187.4501 C   0  0  0  0  0  0  0  0  0  0  0  0
  155.9863  138.4737  186.4235 C   0  0  0  0  0  0  0  0  0  0  0  0
  155.1934  138.8412  185.2524 C   0  0  0  0  0  0  0  0  0  0  0  0
  155.7400  139.1530  184.1765 O   0  0  0  0  0  0  0  0  0  0  0  0
  153.7162  138.8383  185.3608 C   0  0  0  0  0  0  0  0  0  0  0  0
  153.2567  138.5893  186.7654 C   0  0  0  0  0  0  0  0  0  0  0  0
  154.0349  137.4418  187.4245 C   0  0  0  0  0  0  0  0  0  0  0  0
  153.9130  136.2130  186.5457 C   0  0  0  0  0  0  0  0  0  0  0  0
  153.6564  136.5719  191.0564 C   0  0  0  0  0  0  0  0  0  0  0  0
  154.3494  136.1581  192.2768 C   0  0  0  0  0  0  0  0  0  0  0  0
  153.1449  135.8149  193.1725 C   0  0  0  0  0  0  0  0  0  0  0  0
  152.2803  135.0252  192.2113 C   0  0  0  0  0  0  0  0  0  0  0  0
  152.5703  133.6663  192.4700 O   0  0  0  0  0  0  0  0  0  0  0  0
  152.8497  133.5611  193.4153 H   0  0  0  0  0  0  0  0  0  0  0  0
  150.8607  135.1937  192.4904 C   0  0  0  0  0  0  0  0  0  0  0  0
  149.6902  135.3430  192.7275 C   0  0  0  0  0  0  0  0  0  0  0  0
  2  1  1  0  0  0
  2  3  1  0  0  0
  3  4  1  0  0  0
  4  5  1  0  0  0
  5  6  1  0  0  0
  6  7  1  0  0  0
  7  8  1  0  0  0
  8  9  1  0  0  0
  9 10  2  0  0  0
 10 11  1  0  0  0
 11 12  2  0  0  0
 11 13  1  0  0  0
 13 14  1  0  0  0
 14 15  1  0  0  0
 15 16  1  0  0  0
  6 17  1  0  0  0
 17 18  1  0  0  0
 18 19  1  0  0  0
 19 20  1  0  0  0
 20 21  1  0  0  0
 20 23  1  0  0  0
 23 24  3  0  0  0
 17  2  1  0  0  0
 20  2  1  0  0  0
 15  5  1  0  0  0
 15  9  1  0  0  0
 21 22  1  0  0  0
M  END
> <minimizedAffinity>
-6.60065

> <CNNscore>
0.4838660657

> <CNNaffinity>
5.3034105301

> <CNN_VS>
2.5661404133

> <CNNaffinity_variance>
0.1141163334

$$$$
[H]C#C[C@]1(O[H])C([H])([H])C([H])([H])[C@]2([H])[C@]1(C([H])([H])[H])C([H])([H])C([H])([H])[C@]1([H])C3(C([H])([H])[H])C(=C([H])C(=O)C([H])([H])C3([H])[H])C([H])([H])C([H])([H])[C@]12[H]


 24 27  0  0  0  0  0  0  0  0999 V2000
  157.8452  139.5661  182.6593 C   0  0  0  0  0  0  0  0  0  0  0  0
  157.5738  140.6732  183.6430 C   0  0  0  0  0  0  0  0  0  0  0  0
  157.3995  140.1386  185.0124 C   0  0  0  0  0  0  0  0  0  0  0  0
  156.2464  139.1920  185.0807 C   0  0  0  0  0  0  0  0  0  0  0  0
  155.0115  139.6360  184.3723 C   0  0  0  0  0  0  0  0  0  0  0  0
  155.2868  140.3214  183.0402 C   0  0  0  0  0  0  0  0  0  0  0  0
  153.9256  140.8435  182.5616 C   0  0  0  0  0  0  0  0  0  0  0  0
  153.1867  139.6192  182.0600 C   0  0  0  0  0  0  0  0  0  0  0  0
  152.9793  138.7202  183.2470 C   0  0  0  0  0  0  0  0  0  0  0  0
  151.8199  138.0921  183.3639 C   0  0  0  0  0  0  0  0  0  0  0  0
  151.5283  137.1991  184.4832 C   0  0  0  0  0  0  0  0  0  0  0  0
  150.5945  136.3758  184.4238 O   0  0  0  0  0  0  0  0  0  0  0  0
  152.3654  137.2853  185.7021 C   0  0  0  0  0  0  0  0  0  0  0  0
  153.3286  138.4318  185.6419 C   0  0  0  0  0  0  0  0  0  0  0  0
  154.0242  138.5206  184.2761 C   0  0  0  0  0  0  0  0  0  0  0  0
  154.6865  137.1881  183.9880 C   0  0  0  0  0  0  0  0  0  0  0  0
  156.2502  141.3905  183.3282 C   0  0  0  0  0  0  0  0  0  0  0  0
  156.6490  142.3066  182.2593 C   0  0  0  0  0  0  0  0  0  0  0  0
  157.8924  142.9501  182.9000 C   0  0  0  0  0  0  0  0  0  0  0  0
  158.5916  141.7331  183.4701 C   0  0  0  0  0  0  0  0  0  0  0  0
  159.5585  141.3660  182.5067 O   0  0  0  0  0  0  0  0  0  0  0  0
  159.8433  142.1691  182.0002 H   0  0  0  0  0  0  0  0  0  0  0  0
  159.3326  142.0485  184.6837 C   0  0  0  0  0  0  0  0  0  0  0  0
  159.9550  142.3119  185.6798 C   0  0  0  0  0  0  0  0  0  0  0  0
  2  1  1  0  0  0
  2  3  1  0  0  0
  3  4  1  0  0  0
  4  5  1  0  0  0
  5  6  1  0  0  0
  6  7  1  0  0  0
  7  8  1  0  0  0
  8  9  1  0  0  0
  9 10  2  0  0  0
 10 11  1  0  0  0
 11 12  2  0  0  0
 11 13  1  0  0  0
 13 14  1  0  0  0
 14 15  1  0  0  0
 15 16  1  0  0  0
  6 17  1  0  0  0
 17 18  1  0  0  0
 18 19  1  0  0  0
 19 20  1  0  0  0
 20 21  1  0  0  0
 20 23  1  0  0  0
 23 24  3  0  0  0
 17  2  1  0  0  0
 20  2  1  0  0  0
 15  5  1  0  0  0
 15  9  1  0  0  0
 21 22  1  0  0  0
M  END
> <minimizedAffinity>
-8.01799

> <CNNscore>
0.4642154872

> <CNNaffinity>
5.9726691246

> <CNN_VS>
2.7726054192

> <CNNaffinity_variance>
0.0946644396

$$$$
[H]C#C[C@]1(O[H])C([H])([H])C([H])([H])[C@]2([H])[C@]1(C([H])([H])[H])C([H])([H])C([H])([H])[C@]1([H])C3(C([H])([H])[H])C(=C([H])C(=O)C([H])([H])C3([H])[H])C([H])([H])C([H])([H])[C@]12[H]


 24 27  0  0  0  0  0  0  0  0999 V2000
  153.1864  134.5335  193.6186 C   0  0  0  0  0  0  0  0  0  0  0  0
  152.1343  134.9770  192.6369 C   0  0  0  0  0  0  0  0  0  0  0  0
  152.0100  134.0155  191.5182 C   0  0  0  0  0  0  0  0  0  0  0  0
  153.2943  133.8918  190.7662 C   0  0  0  0  0  0  0  0  0  0  0  0
  153.9889  135.1779  190.4706 C   0  0  0  0  0  0  0  0  0  0  0  0
  153.9342  136.1773  191.6187 C   0  0  0  0  0  0  0  0  0  0  0  0
  154.5450  137.4706  191.0627 C   0  0  0  0  0  0  0  0  0  0  0  0
  156.0389  137.2186  191.0269 C   0  0  0  0  0  0  0  0  0  0  0  0
  156.2682  136.1039  190.0446 C   0  0  0  0  0  0  0  0  0  0  0  0
  157.3117  136.1862  189.2341 C   0  0  0  0  0  0  0  0  0  0  0  0
  157.6139  135.1514  188.2476 C   0  0  0  0  0  0  0  0  0  0  0  0
  158.7438  135.0669  187.7283 O   0  0  0  0  0  0  0  0  0  0  0  0
  156.5494  134.1937  187.8685 C   0  0  0  0  0  0  0  0  0  0  0  0
  155.2286  134.5516  188.4794 C   0  0  0  0  0  0  0  0  0  0  0  0
  155.3697  134.9308  189.9603 C   0  0  0  0  0  0  0  0  0  0  0  0
  156.0557  133.7895  190.6842 C   0  0  0  0  0  0  0  0  0  0  0  0
  152.5156  136.3099  191.9709 C   0  0  0  0  0  0  0  0  0  0  0  0
  152.1148  137.2823  192.9881 C   0  0  0  0  0  0  0  0  0  0  0  0
  150.6826  136.7982  193.2803 C   0  0  0  0  0  0  0  0  0  0  0  0
  150.8925  135.3008  193.3734 C   0  0  0  0  0  0  0  0  0  0  0  0
  151.0246  135.0220  194.7528 O   0  0  0  0  0  0  0  0  0  0  0  0
  150.5219  135.6967  195.2769 H   0  0  0  0  0  0  0  0  0  0  0  0
  149.7239  134.5572  192.9230 C   0  0  0  0  0  0  0  0  0  0  0  0
  148.7643  133.9394  192.5405 C   0  0  0  0  0  0  0  0  0  0  0  0
  2  1  1  0  0  0
  2  3  1  0  0  0
  3  4  1  0  0  0
  4  5  1  0  0  0
  5  6  1  0  0  0
  6  7  1  0  0  0
  7  8  1  0  0  0
  8  9  1  0  0  0
  9 10  2  0  0  0
 10 11  1  0  0  0
 11 12  2  0  0  0
 11 13  1  0  0  0
 13 14  1  0  0  0
 14 15  1  0  0  0
 15 16  1  0  0  0
  6 17  1  0  0  0
 17 18  1  0  0  0
 18 19  1  0  0  0
 19 20  1  0  0  0
 20 21  1  0  0  0
 20 23  1  0  0  0
 23 24  3  0  0  0
 17  2  1  0  0  0
 20  2  1  0  0  0
 15  5  1  0  0  0
 15  9  1  0  0  0
 21 22  1  0  0  0
M  END
> <minimizedAffinity>
-5.66514

> <CNNscore>
0.4210989475

> <CNNaffinity>
5.1332850456

> <CNN_VS>
2.1616208553

> <CNNaffinity_variance>
0.1322549284

$$$$
[H]C#C[C@]1(O[H])C([H])([H])C([H])([H])[C@]2([H])[C@]1(C([H])([H])[H])C([H])([H])C([H])([H])[C@]1([H])C3(C([H])([H])[H])C(=C([H])C(=O)C([H])([H])C3([H])[H])C([H])([H])C([H])([H])[C@]12[H]


 24 27  0  0  0  0  0  0  0  0999 V2000
  153.6440  137.3632  188.7042 C   0  0  0  0  0  0  0  0  0  0  0  0
  154.6917  136.6102  189.4805 C   0  0  0  0  0  0  0  0  0  0  0  0
  154.5498  135.1492  189.2888 C   0  0  0  0  0  0  0  0  0  0  0  0
  153.2170  134.6687  189.7612 C   0  0  0  0  0  0  0  0  0  0  0  0
  152.7660  135.2198  191.0715 C   0  0  0  0  0  0  0  0  0  0  0  0
  153.0925  136.6960  191.2560 C   0  0  0  0  0  0  0  0  0  0  0  0
  152.7068  137.0206  192.7054 C   0  0  0  0  0  0  0  0  0  0  0  0
  151.1936  137.1018  192.7030 C   0  0  0  0  0  0  0  0  0  0  0  0
  150.6853  135.7308  192.3538 C   0  0  0  0  0  0  0  0  0  0  0  0
  149.6241  135.2715  192.9984 C   0  0  0  0  0  0  0  0  0  0  0  0
  149.0598  133.9514  192.7263 C   0  0  0  0  0  0  0  0  0  0  0  0
  147.9018  133.6599  193.0836 O   0  0  0  0  0  0  0  0  0  0  0  0
  149.8898  132.9533  192.0130 C   0  0  0  0  0  0  0  0  0  0  0  0
  151.2939  133.4348  191.8071 C   0  0  0  0  0  0  0  0  0  0  0  0
  151.3316  134.8905  191.3208 C   0  0  0  0  0  0  0  0  0  0  0  0
  150.4891  134.9986  190.0655 C   0  0  0  0  0  0  0  0  0  0  0  0
  154.5307  136.8268  190.9947 C   0  0  0  0  0  0  0  0  0  0  0  0
  155.1816  138.1232  191.1861 C   0  0  0  0  0  0  0  0  0  0  0  0
  156.5096  137.8744  190.4475 C   0  0  0  0  0  0  0  0  0  0  0  0
  156.0205  137.1910  189.1870 C   0  0  0  0  0  0  0  0  0  0  0  0
  155.9326  138.2113  188.2128 O   0  0  0  0  0  0  0  0  0  0  0  0
  156.5914  138.9230  188.4179 H   0  0  0  0  0  0  0  0  0  0  0  0
  156.9890  136.2302  188.6767 C   0  0  0  0  0  0  0  0  0  0  0  0
  157.7981  135.4450  188.2554 C   0  0  0  0  0  0  0  0  0  0  0  0
  2  1  1  0  0  0
  2  3  1  0  0  0
  3  4  1  0  0  0
  4  5  1  0  0  0
  5  6  1  0  0  0
  6  7  1  0  0  0
  7  8  1  0  0  0
  8  9  1  0  0  0
  9 10  2  0  0  0
 10 11  1  0  0  0
 11 12  2  0  0  0
 11 13  1  0  0  0
 13 14  1  0  0  0
 14 15  1  0  0  0
 15 16  1  0  0  0
  6 17  1  0  0  0
 17 18  1  0  0  0
 18 19  1  0  0  0
 19 20  1  0  0  0
 20 21  1  0  0  0
 20 23  1  0  0  0
 23 24  3  0  0  0
 17  2  1  0  0  0
 20  2  1  0  0  0
 15  5  1  0  0  0
 15  9  1  0  0  0
 21 22  1  0  0  0
M  END
> <minimizedAffinity>
-6.70700

> <CNNscore>
0.4190107286

> <CNNaffinity>
5.2111063004

> <CNN_VS>
2.1835093498

> <CNNaffinity_variance>
0.0949161798

$$$$
[H]C#C[C@]1(O[H])C([H])([H])C([H])([H])[C@]2([H])[C@]1(C([H])([H])[H])C([H])([H])C([H])([H])[C@]1([H])C3(C([H])([H])[H])C(=C([H])C(=O)C([H])([H])C3([H])[H])C([H])([H])C([H])([H])[C@]12[H]


 24 27  0  0  0  0  0  0  0  0999 V2000
  153.8958  138.5016  185.2234 C   0  0  0  0  0  0  0  0  0  0  0  0
  152.9370  137.3435  185.3049 C   0  0  0  0  0  0  0  0  0  0  0  0
  152.0114  137.4974  186.4499 C   0  0  0  0  0  0  0  0  0  0  0  0
  152.7554  137.5491  187.7437 C   0  0  0  0  0  0  0  0  0  0  0  0
  153.8469  136.5443  187.8946 C   0  0  0  0  0  0  0  0  0  0  0  0
  154.6545  136.3267  186.6217 C   0  0  0  0  0  0  0  0  0  0  0  0
  155.5974  135.1565  186.9322 C   0  0  0  0  0  0  0  0  0  0  0  0
  156.6808  135.7449  187.8133 C   0  0  0  0  0  0  0  0  0  0  0  0
  156.0131  136.1897  189.0847 C   0  0  0  0  0  0  0  0  0  0  0  0
  156.6416  135.9795  190.2307 C   0  0  0  0  0  0  0  0  0  0  0  0
  156.0704  136.3774  191.5156 C   0  0  0  0  0  0  0  0  0  0  0  0
  156.7826  136.4781  192.5335 O   0  0  0  0  0  0  0  0  0  0  0  0
  154.6191  136.6628  191.5940 C   0  0  0  0  0  0  0  0  0  0  0  0
  153.9129  136.3380  190.3127 C   0  0  0  0  0  0  0  0  0  0  0  0
  154.6878  136.8487  189.0897 C   0  0  0  0  0  0  0  0  0  0  0  0
  154.9285  138.3353  189.2612 C   0  0  0  0  0  0  0  0  0  0  0  0
  153.6767  136.0214  185.5707 C   0  0  0  0  0  0  0  0  0  0  0  0
  154.1472  135.6633  184.2324 C   0  0  0  0  0  0  0  0  0  0  0  0
  152.8412  135.8201  183.4320 C   0  0  0  0  0  0  0  0  0  0  0  0
  152.3192  137.1336  183.9770 C   0  0  0  0  0  0  0  0  0  0  0  0
  152.7363  138.1192  183.0537 O   0  0  0  0  0  0  0  0  0  0  0  0
  152.8215  137.7145  182.1528 H   0  0  0  0  0  0  0  0  0  0  0  0
  150.8635  137.1806  183.9851 C   0  0  0  0  0  0  0  0  0  0  0  0
  149.6604  137.2180  183.9796 C   0  0  0  0  0  0  0  0  0  0  0  0
  2  1  1  0  0  0
  2  3  1  0  0  0
  3  4  1  0  0  0
  4  5  1  0  0  0
  5  6  1  0  0  0
  6  7  1  0  0  0
  7  8  1  0  0  0
  8  9  1  0  0  0
  9 10  2  0  0  0
 10 11  1  0  0  0
 11 12  2  0  0  0
 11 13  1  0  0  0
 13 14  1  0  0  0
 14 15  1  0  0  0
 15 16  1  0  0  0
  6 17  1  0  0  0
 17 18  1  0  0  0
 18 19  1  0  0  0
 19 20  1  0  0  0
 20 21  1  0  0  0
 20 23  1  0  0  0
 23 24  3  0  0  0
 17  2  1  0  0  0
 20  2  1  0  0  0
 15  5  1  0  0  0
 15  9  1  0  0  0
 21 22  1  0  0  0
M  END
> <minimizedAffinity>
-6.11088

> <CNNscore>
0.3988309503

> <CNNaffinity>
5.1258773804

> <CNN_VS>
2.0443584919

> <CNNaffinity_variance>
0.0332521684

$$$$
[H]C#C[C@]1(O[H])C([H])([H])C([H])([H])[C@]2([H])[C@]1(C([H])([H])[H])C([H])([H])C([H])([H])[C@]1([H])C3(C([H])([H])[H])C(=C([H])C(=O)C([H])([H])C3([H])[H])C([H])([H])C([H])([H])[C@]12[H]


 24 27  0  0  0  0  0  0  0  0999 V2000
  153.3916  137.0172  182.8635 C   0  0  0  0  0  0  0  0  0  0  0  0
  152.8549  138.1271  183.7279 C   0  0  0  0  0  0  0  0  0  0  0  0
  151.5354  137.7698  184.2960 C   0  0  0  0  0  0  0  0  0  0  0  0
  150.5317  137.5221  183.2182 C   0  0  0  0  0  0  0  0  0  0  0  0
  150.5352  138.5103  182.1015 C   0  0  0  0  0  0  0  0  0  0  0  0
  151.9319  138.9489  181.6809 C   0  0  0  0  0  0  0  0  0  0  0  0
  151.7155  140.0712  180.6569 C   0  0  0  0  0  0  0  0  0  0  0  0
  151.2852  139.3683  179.3852 C   0  0  0  0  0  0  0  0  0  0  0  0
  149.9665  138.7085  179.6783 C   0  0  0  0  0  0  0  0  0  0  0  0
  149.0273  138.7411  178.7459 C   0  0  0  0  0  0  0  0  0  0  0  0
  147.7156  138.1273  178.9413 C   0  0  0  0  0  0  0  0  0  0  0  0
  146.9716  137.8757  177.9734 O   0  0  0  0  0  0  0  0  0  0  0  0
  147.2767  137.8041  180.3185 C   0  0  0  0  0  0  0  0  0  0  0  0
  148.2349  138.3198  181.3489 C   0  0  0  0  0  0  0  0  0  0  0  0
  149.6933  138.0314  180.9657 C   0  0  0  0  0  0  0  0  0  0  0  0
  149.8407  136.5419  180.7273 C   0  0  0  0  0  0  0  0  0  0  0  0
  152.5986  139.4024  182.9072 C   0  0  0  0  0  0  0  0  0  0  0  0
  153.9388  139.9837  182.8244 C   0  0  0  0  0  0  0  0  0  0  0  0
  154.3508  139.9339  184.3072 C   0  0  0  0  0  0  0  0  0  0  0  0
  153.9009  138.5389  184.6898 C   0  0  0  0  0  0  0  0  0  0  0  0
  155.0518  137.7259  184.5781 O   0  0  0  0  0  0  0  0  0  0  0  0
  155.8618  138.2740  184.7399 H   0  0  0  0  0  0  0  0  0  0  0  0
  153.4884  138.4623  186.0846 C   0  0  0  0  0  0  0  0  0  0  0  0
  153.1480  138.4113  187.2380 C   0  0  0  0  0  0  0  0  0  0  0  0
  2  1  1  0  0  0
  2  3  1  0  0  0
  3  4  1  0  0  0
  4  5  1  0  0  0
  5  6  1  0  0  0
  6  7  1  0  0  0
  7  8  1  0  0  0
  8  9  1  0  0  0
  9 10  2  0  0  0
 10 11  1  0  0  0
 11 12  2  0  0  0
 11 13  1  0  0  0
 13 14  1  0  0  0
 14 15  1  0  0  0
 15 16  1  0  0  0
  6 17  1  0  0  0
 17 18  1  0  0  0
 18 19  1  0  0  0
 19 20  1  0  0  0
 20 21  1  0  0  0
 20 23  1  0  0  0
 23 24  3  0  0  0
 17  2  1  0  0  0
 20  2  1  0  0  0
 15  5  1  0  0  0
 15  9  1  0  0  0
 21 22  1  0  0  0
M  END
> <minimizedAffinity>
-6.85969

> <CNNscore>
0.3936008513

> <CNNaffinity>
5.4141912460

> <CNN_VS>
2.1310303211

> <CNNaffinity_variance>
0.1699197292

$$$$
[H]c1c([H])c(N([H])C(=O)N([H])c2c([H])c([H])c(C(C#N)(C([H])([H])[H])C([H])([H])[H])c([H])c2[H])c([H])c([H])c1-c1nc(N2C([H])([H])C([H])([H])OC([H])([H])[C@@]2([H])C([H])([H])[H])nc(C2([H])C([H])([H])C([H])([H])OC([H])([H])C2([H])[H])n1


 42 46  0  0  0  0  0  0  0  0999 V2000
  156.0781  135.7284  188.6479 C   0  0  0  0  0  0  0  0  0  0  0  0
  155.6903  136.8494  187.9663 C   0  0  0  0  0  0  0  0  0  0  0  0
  156.4835  137.4666  186.9827 C   0  0  0  0  0  0  0  0  0  0  0  0
  157.7232  136.9160  186.6805 C   0  0  0  0  0  0  0  0  0  0  0  0
  158.1123  135.7875  187.3692 C   0  0  0  0  0  0  0  0  0  0  0  0
  157.3328  135.1899  188.3310 C   0  0  0  0  0  0  0  0  0  0  0  0
  153.2895  134.9132  190.9614 C   0  0  0  0  0  0  0  0  0  0  0  0
  153.8506  133.9785  191.7417 N   0  0  0  0  0  0  0  0  0  0  0  0
  155.1281  133.5929  191.5144 C   0  0  0  0  0  0  0  0  0  0  0  0
  155.7658  134.1706  190.5217 N   0  0  0  0  0  0  0  0  0  0  0  0
  155.2679  135.1256  189.6893 C   0  0  0  0  0  0  0  0  0  0  0  0
  153.9972  135.4785  189.9449 N   0  0  0  0  0  0  0  0  0  0  0  0
  152.3517  137.2929  192.5927 C   0  0  0  0  0  0  0  0  0  0  0  0
  151.5664  136.6651  191.4917 C   0  0  0  0  0  0  0  0  0  0  0  0
  150.0836  136.6352  191.8930 C   0  0  0  0  0  0  0  0  0  0  0  0
  149.8878  135.7058  192.8857 O   0  0  0  0  0  0  0  0  0  0  0  0
  150.0911  134.4043  192.4916 C   0  0  0  0  0  0  0  0  0  0  0  0
  150.8560  134.3177  191.1831 C   0  0  0  0  0  0  0  0  0  0  0  0
  151.9374  135.2986  191.2085 N   0  0  0  0  0  0  0  0  0  0  0  0
  155.7863  132.5589  192.3423 C   0  0  0  0  0  0  0  0  0  0  0  0
  157.1624  132.1968  191.8618 C   0  0  0  0  0  0  0  0  0  0  0  0
  157.8337  131.5335  193.0778 C   0  0  0  0  0  0  0  0  0  0  0  0
  157.0164  130.5902  193.6369 O   0  0  0  0  0  0  0  0  0  0  0  0
  155.9563  130.2035  192.8620 C   0  0  0  0  0  0  0  0  0  0  0  0
  154.9604  131.3102  192.5589 C   0  0  0  0  0  0  0  0  0  0  0  0
  158.5912  137.5116  185.7182 N   0  0  0  0  0  0  0  0  0  0  0  0
  158.3111  138.7760  185.1096 C   0  0  0  0  0  0  0  0  0  0  0  0
  157.2425  139.4021  185.4375 O   0  0  0  0  0  0  0  0  0  0  0  0
  159.2408  139.2756  184.1772 N   0  0  0  0  0  0  0  0  0  0  0  0
  159.4862  137.0361  185.4165 H   0  0  0  0  0  0  0  0  0  0  0  0
  160.0819  138.6845  183.9580 H   0  0  0  0  0  0  0  0  0  0  0  0
  159.0896  140.5161  183.5302 C   0  0  0  0  0  0  0  0  0  0  0  0
  159.4833  141.6763  184.2537 C   0  0  0  0  0  0  0  0  0  0  0  0
  159.3770  142.9243  183.7063 C   0  0  0  0  0  0  0  0  0  0  0  0
  158.8939  143.1621  182.4450 C   0  0  0  0  0  0  0  0  0  0  0  0
  158.5049  142.0333  181.7171 C   0  0  0  0  0  0  0  0  0  0  0  0
  158.6165  140.7664  182.2784 C   0  0  0  0  0  0  0  0  0  0  0  0
  158.7958  144.5295  181.9325 C   0  0  0  0  0  0  0  0  0  0  0  0
  157.3691  145.0818  181.9103 C   0  0  0  0  0  0  0  0  0  0  0  0
  159.5963  145.5220  182.7569 C   0  0  0  0  0  0  0  0  0  0  0  0
  159.3048  144.5347  180.5676 C   0  0  0  0  0  0  0  0  0  0  0  0
  159.7231  144.5611  179.4741 N   0  0  0  0  0  0  0  0  0  0  0  0
 13 14  1  0  0  0
 14 15  1  0  0  0
 15 16  1  0  0  0
 16 17  1  0  0  0
 17 18  1  0  0  0
 18 19  1  0  0  0
 19  7  1  0  0  0
  7  8  2  0  0  0
  8  9  1  0  0  0
  9 10  2  0  0  0
 10 11  1  0  0  0
 11 12  2  0  0  0
 11  1  1  0  0  0
  1  2  2  0  0  0
  2  3  1  0  0  0
  3  4  2  0  0  0
  4 26  1  0  0  0
 26 27  1  0  0  0
 27 28  2  0  0  0
 27 29  1  0  0  0
 29 32  1  0  0  0
 32 33  2  0  0  0
 33 34  1  0  0  0
 34 35  2  0  0  0
 35 36  1  0  0  0
 36 37  2  0  0  0
 35 38  1  0  0  0
 38 39  1  0  0  0
 38 40  1  0  0  0
 38 41  1  0  0  0
 41 42  3  0  0  0
  4  5  1  0  0  0
  5  6  2  0  0  0
  9 20  1  0  0  0
 20 21  1  0  0  0
 21 22  1  0  0  0
 22 23  1  0  0  0
 23 24  1  0  0  0
 24 25  1  0  0  0
 19 14  1  0  0  0
 12  7  1  0  0  0
  6  1  1  0  0  0
 25 20  1  0  0  0
 37 32  1  0  0  0
 26 30  1  0  0  0
 29 31  1  0  0  0
M  END
> <minimizedAffinity>
-0.12211

> <CNNscore>
0.3490913808

> <CNNaffinity>
6.4186925888

> <CNN_VS>
2.2407102585

> <CNNaffinity_variance>
1.5317119360

$$$$
[H]c1c([H])c(N([H])C(=O)N([H])c2c([H])c([H])c(C(C#N)(C([H])([H])[H])C([H])([H])[H])c([H])c2[H])c([H])c([H])c1-c1nc(N2C([H])([H])C([H])([H])OC([H])([H])[C@@]2([H])C([H])([H])[H])nc(C2([H])C([H])([H])C([H])([H])OC([H])([H])C2([H])[H])n1


 42 46  0  0  0  0  0  0  0  0999 V2000
  155.4046  138.6474  185.2352 C   0  0  0  0  0  0  0  0  0  0  0  0
  154.5897  139.2667  184.3274 C   0  0  0  0  0  0  0  0  0  0  0  0
  154.9414  140.4531  183.6594 C   0  0  0  0  0  0  0  0  0  0  0  0
  156.1767  141.0308  183.9272 C   0  0  0  0  0  0  0  0  0  0  0  0
  156.9953  140.4059  184.8430 C   0  0  0  0  0  0  0  0  0  0  0  0
  156.6449  139.2468  185.4939 C   0  0  0  0  0  0  0  0  0  0  0  0
  154.0141  135.3105  186.0865 C   0  0  0  0  0  0  0  0  0  0  0  0
  154.2366  135.2544  187.4074 N   0  0  0  0  0  0  0  0  0  0  0  0
  154.8531  136.2869  188.0287 C   0  0  0  0  0  0  0  0  0  0  0  0
  155.2051  137.3138  187.2888 N   0  0  0  0  0  0  0  0  0  0  0  0
  155.0126  137.4462  185.9478 C   0  0  0  0  0  0  0  0  0  0  0  0
  154.4014  136.3999  185.3678 N   0  0  0  0  0  0  0  0  0  0  0  0
  155.3729  132.9279  184.7902 C   0  0  0  0  0  0  0  0  0  0  0  0
  153.9927  132.9059  185.3539 C   0  0  0  0  0  0  0  0  0  0  0  0
  153.0938  132.0646  184.4348 C   0  0  0  0  0  0  0  0  0  0  0  0
  152.8618  132.7419  183.2622 O   0  0  0  0  0  0  0  0  0  0  0  0
  152.1120  133.8852  183.4069 C   0  0  0  0  0  0  0  0  0  0  0  0
  152.0468  134.3452  184.8522 C   0  0  0  0  0  0  0  0  0  0  0  0
  153.3735  134.2071  185.4465 N   0  0  0  0  0  0  0  0  0  0  0  0
  155.1286  136.2664  189.4818 C   0  0  0  0  0  0  0  0  0  0  0  0
  156.4641  136.8503  189.8441 C   0  0  0  0  0  0  0  0  0  0  0  0
  156.3438  137.1897  191.3407 C   0  0  0  0  0  0  0  0  0  0  0  0
  155.8256  136.1371  192.0435 O   0  0  0  0  0  0  0  0  0  0  0  0
  155.8204  134.9392  191.3811 C   0  0  0  0  0  0  0  0  0  0  0  0
  154.9532  134.9127  190.1338 C   0  0  0  0  0  0  0  0  0  0  0  0
  156.5807  142.2515  183.3102 N   0  0  0  0  0  0  0  0  0  0  0  0
  155.8640  142.8335  182.2169 C   0  0  0  0  0  0  0  0  0  0  0  0
  154.8190  142.2413  181.7712 O   0  0  0  0  0  0  0  0  0  0  0  0
  156.3464  144.0462  181.6877 N   0  0  0  0  0  0  0  0  0  0  0  0
  157.4343  142.7795  183.6431 H   0  0  0  0  0  0  0  0  0  0  0  0
  157.2213  144.4510  182.1069 H   0  0  0  0  0  0  0  0  0  0  0  0
  155.7166  144.7276  180.6298 C   0  0  0  0  0  0  0  0  0  0  0  0
  155.9768  144.2594  179.3116 C   0  0  0  0  0  0  0  0  0  0  0  0
  155.4072  144.8552  178.2212 C   0  0  0  0  0  0  0  0  0  0  0  0
  154.5575  145.9289  178.2993 C   0  0  0  0  0  0  0  0  0  0  0  0
  154.2872  146.4014  179.5874 C   0  0  0  0  0  0  0  0  0  0  0  0
  154.8682  145.7905  180.6927 C   0  0  0  0  0  0  0  0  0  0  0  0
  153.9979  146.5235  177.0847 C   0  0  0  0  0  0  0  0  0  0  0  0
  154.2965  148.0162  176.9315 C   0  0  0  0  0  0  0  0  0  0  0  0
  154.5302  145.8770  175.8182 C   0  0  0  0  0  0  0  0  0  0  0  0
  152.5518  146.3528  177.1268 C   0  0  0  0  0  0  0  0  0  0  0  0
  151.3866  146.2396  177.1580 N   0  0  0  0  0  0  0  0  0  0  0  0
 13 14  1  0  0  0
 14 15  1  0  0  0
 15 16  1  0  0  0
 16 17  1  0  0  0
 17 18  1  0  0  0
 18 19  1  0  0  0
 19  7  1  0  0  0
  7  8  2  0  0  0
  8  9  1  0  0  0
  9 10  2  0  0  0
 10 11  1  0  0  0
 11 12  2  0  0  0
 11  1  1  0  0  0
  1  2  2  0  0  0
  2  3  1  0  0  0
  3  4  2  0  0  0
  4 26  1  0  0  0
 26 27  1  0  0  0
 27 28  2  0  0  0
 27 29  1  0  0  0
 29 32  1  0  0  0
 32 33  2  0  0  0
 33 34  1  0  0  0
 34 35  2  0  0  0
 35 36  1  0  0  0
 36 37  2  0  0  0
 35 38  1  0  0  0
 38 39  1  0  0  0
 38 40  1  0  0  0
 38 41  1  0  0  0
 41 42  3  0  0  0
  4  5  1  0  0  0
  5  6  2  0  0  0
  9 20  1  0  0  0
 20 21  1  0  0  0
 21 22  1  0  0  0
 22 23  1  0  0  0
 23 24  1  0  0  0
 24 25  1  0  0  0
 19 14  1  0  0  0
 12  7  1  0  0  0
  6  1  1  0  0  0
 25 20  1  0  0  0
 37 32  1  0  0  0
 26 30  1  0  0  0
 29 31  1  0  0  0
M  END
> <minimizedAffinity>
14.62635

> <CNNscore>
0.3420740068

> <CNNaffinity>
6.3774867058

> <CNN_VS>
2.1815724373

> <CNNaffinity_variance>
0.4790057242

$$$$
[H]c1c([H])c(N([H])C(=O)N([H])c2c([H])c([H])c(C(C#N)(C([H])([H])[H])C([H])([H])[H])c([H])c2[H])c([H])c([H])c1-c1nc(N2C([H])([H])C([H])([H])OC([H])([H])[C@@]2([H])C([H])([H])[H])nc(C2([H])C([H])([H])C([H])([H])OC([H])([H])C2([H])[H])n1


 42 46  0  0  0  0  0  0  0  0999 V2000
  154.0381  137.1613  184.6908 C   0  0  0  0  0  0  0  0  0  0  0  0
  153.1733  136.1016  184.7199 C   0  0  0  0  0  0  0  0  0  0  0  0
  153.2999  135.0277  185.6189 C   0  0  0  0  0  0  0  0  0  0  0  0
  154.3515  135.0362  186.5275 C   0  0  0  0  0  0  0  0  0  0  0  0
  155.2221  136.1040  186.4954 C   0  0  0  0  0  0  0  0  0  0  0  0
  155.0938  137.1502  185.6128 C   0  0  0  0  0  0  0  0  0  0  0  0
  154.6869  140.2037  182.6621 C   0  0  0  0  0  0  0  0  0  0  0  0
  153.5578  140.2959  181.9452 N   0  0  0  0  0  0  0  0  0  0  0  0
  152.5867  139.3658  182.0998 C   0  0  0  0  0  0  0  0  0  0  0  0
  152.8052  138.4028  182.9663 N   0  0  0  0  0  0  0  0  0  0  0  0
  153.9199  138.2424  183.7308 C   0  0  0  0  0  0  0  0  0  0  0  0
  154.8610  139.1830  183.5460 N   0  0  0  0  0  0  0  0  0  0  0  0
  157.5933  139.9853  183.5038 C   0  0  0  0  0  0  0  0  0  0  0  0
  157.1033  140.8388  182.3837 C   0  0  0  0  0  0  0  0  0  0  0  0
  157.8796  142.1646  182.3925 C   0  0  0  0  0  0  0  0  0  0  0  0
  157.4860  142.9285  183.4644 O   0  0  0  0  0  0  0  0  0  0  0  0
  156.1865  143.3725  183.3972 C   0  0  0  0  0  0  0  0  0  0  0  0
  155.3743  142.6053  182.3693 C   0  0  0  0  0  0  0  0  0  0  0  0
  155.7050  141.1871  182.4769 N   0  0  0  0  0  0  0  0  0  0  0  0
  151.3283  139.4203  181.3244 C   0  0  0  0  0  0  0  0  0  0  0  0
  150.1205  139.0105  182.1175 C   0  0  0  0  0  0  0  0  0  0  0  0
  148.9298  139.5975  181.3385 C   0  0  0  0  0  0  0  0  0  0  0  0
  149.0235  139.3076  180.0052 O   0  0  0  0  0  0  0  0  0  0  0  0
  149.9267  138.3309  179.6825 C   0  0  0  0  0  0  0  0  0  0  0  0
  151.3701  138.6748  180.0088 C   0  0  0  0  0  0  0  0  0  0  0  0
  154.5572  133.9622  187.4430 N   0  0  0  0  0  0  0  0  0  0  0  0
  153.6425  133.6719  188.5045 C   0  0  0  0  0  0  0  0  0  0  0  0
  152.5972  134.3997  188.6426 O   0  0  0  0  0  0  0  0  0  0  0  0
  153.9389  132.5825  189.3463 N   0  0  0  0  0  0  0  0  0  0  0  0
  155.4028  133.3315  187.3696 H   0  0  0  0  0  0  0  0  0  0  0  0
  154.8284  132.0517  189.1672 H   0  0  0  0  0  0  0  0  0  0  0  0
  153.1066  132.1832  190.4083 C   0  0  0  0  0  0  0  0  0  0  0  0
  153.3982  132.7153  191.6953 C   0  0  0  0  0  0  0  0  0  0  0  0
  152.6429  132.3881  192.7867 C   0  0  0  0  0  0  0  0  0  0  0  0
  151.5662  131.5400  192.7389 C   0  0  0  0  0  0  0  0  0  0  0  0
  151.2621  131.0094  191.4814 C   0  0  0  0  0  0  0  0  0  0  0  0
  152.0328  131.3468  190.3748 C   0  0  0  0  0  0  0  0  0  0  0  0
  150.8140  131.2249  193.9542 C   0  0  0  0  0  0  0  0  0  0  0  0
  149.6981  130.1996  193.7435 C   0  0  0  0  0  0  0  0  0  0  0  0
  151.6898  130.6436  195.0499 C   0  0  0  0  0  0  0  0  0  0  0  0
  150.2103  132.4581  194.4406 C   0  0  0  0  0  0  0  0  0  0  0  0
  149.7220  133.4568  194.8088 N   0  0  0  0  0  0  0  0  0  0  0  0
 13 14  1  0  0  0
 14 15  1  0  0  0
 15 16  1  0  0  0
 16 17  1  0  0  0
 17 18  1  0  0  0
 18 19  1  0  0  0
 19  7  1  0  0  0
  7  8  2  0  0  0
  8  9  1  0  0  0
  9 10  2  0  0  0
 10 11  1  0  0  0
 11 12  2  0  0  0
 11  1  1  0  0  0
  1  2  2  0  0  0
  2  3  1  0  0  0
  3  4  2  0  0  0
  4 26  1  0  0  0
 26 27  1  0  0  0
 27 28  2  0  0  0
 27 29  1  0  0  0
 29 32  1  0  0  0
 32 33  2  0  0  0
 33 34  1  0  0  0
 34 35  2  0  0  0
 35 36  1  0  0  0
 36 37  2  0  0  0
 35 38  1  0  0  0
 38 39  1  0  0  0
 38 40  1  0  0  0
 38 41  1  0  0  0
 41 42  3  0  0  0
  4  5  1  0  0  0
  5  6  2  0  0  0
  9 20  1  0  0  0
 20 21  1  0  0  0
 21 22  1  0  0  0
 22 23  1  0  0  0
 23 24  1  0  0  0
 24 25  1  0  0  0
 19 14  1  0  0  0
 12  7  1  0  0  0
  6  1  1  0  0  0
 25 20  1  0  0  0
 37 32  1  0  0  0
 26 30  1  0  0  0
 29 31  1  0  0  0
M  END
> <minimizedAffinity>
-5.31782

> <CNNscore>
0.2397868335

> <CNNaffinity>
6.1351847649

> <CNN_VS>
1.4711365700

> <CNNaffinity_variance>
0.5912544131

$$$$
[H]c1c([H])c(N([H])C(=O)N([H])c2c([H])c([H])c(C(C#N)(C([H])([H])[H])C([H])([H])[H])c([H])c2[H])c([H])c([H])c1-c1nc(N2C([H])([H])C([H])([H])OC([H])([H])[C@@]2([H])C([H])([H])[H])nc(C2([H])C([H])([H])C([H])([H])OC([H])([H])C2([H])[H])n1


 42 46  0  0  0  0  0  0  0  0999 V2000
  152.3468  135.6707  186.7781 C   0  0  0  0  0  0  0  0  0  0  0  0
  152.0572  137.0014  186.9083 C   0  0  0  0  0  0  0  0  0  0  0  0
  152.2806  137.9425  185.8874 C   0  0  0  0  0  0  0  0  0  0  0  0
  152.8201  137.5075  184.6828 C   0  0  0  0  0  0  0  0  0  0  0  0
  153.1121  136.1668  184.5544 C   0  0  0  0  0  0  0  0  0  0  0  0
  152.8928  135.2520  185.5569 C   0  0  0  0  0  0  0  0  0  0  0  0
  150.8062  133.4011  189.2817 C   0  0  0  0  0  0  0  0  0  0  0  0
  151.8822  132.9769  189.9597 N   0  0  0  0  0  0  0  0  0  0  0  0
  153.1143  133.4078  189.6012 C   0  0  0  0  0  0  0  0  0  0  0  0
  153.1918  134.2404  188.5879 N   0  0  0  0  0  0  0  0  0  0  0  0
  152.1496  134.7175  187.8536 C   0  0  0  0  0  0  0  0  0  0  0  0
  150.9449  134.2642  188.2380 N   0  0  0  0  0  0  0  0  0  0  0  0
  148.1646  134.0327  187.9302 C   0  0  0  0  0  0  0  0  0  0  0  0
  148.4305  132.7982  188.7231 C   0  0  0  0  0  0  0  0  0  0  0  0
  147.1797  132.4582  189.5480 C   0  0  0  0  0  0  0  0  0  0  0  0
  147.0311  133.3684  190.5663 O   0  0  0  0  0  0  0  0  0  0  0  0
  148.0151  133.3121  191.5250 C   0  0  0  0  0  0  0  0  0  0  0  0
  149.2335  132.5429  191.0469 C   0  0  0  0  0  0  0  0  0  0  0  0
  149.5160  132.9267  189.6666 N   0  0  0  0  0  0  0  0  0  0  0  0
  154.3313  132.9601  190.3127 C   0  0  0  0  0  0  0  0  0  0  0  0
  155.1666  131.9973  189.5184 C   0  0  0  0  0  0  0  0  0  0  0  0
  156.5557  132.0555  190.1788 C   0  0  0  0  0  0  0  0  0  0  0  0
  156.4590  131.9425  191.5384 O   0  0  0  0  0  0  0  0  0  0  0  0
  155.2513  131.4951  192.0022 C   0  0  0  0  0  0  0  0  0  0  0  0
  154.0806  132.4157  191.7016 C   0  0  0  0  0  0  0  0  0  0  0  0
  153.1032  138.4147  183.6195 N   0  0  0  0  0  0  0  0  0  0  0  0
  154.2273  139.3000  183.6439 C   0  0  0  0  0  0  0  0  0  0  0  0
  155.0131  139.2813  184.6555 O   0  0  0  0  0  0  0  0  0  0  0  0
  154.4175  140.1493  182.5367 N   0  0  0  0  0  0  0  0  0  0  0  0
  152.4866  138.4664  182.7620 H   0  0  0  0  0  0  0  0  0  0  0  0
  153.7119  140.1069  181.7587 H   0  0  0  0  0  0  0  0  0  0  0  0
  155.4971  141.0459  182.4324 C   0  0  0  0  0  0  0  0  0  0  0  0
  155.2215  142.4219  182.6676 C   0  0  0  0  0  0  0  0  0  0  0  0
  156.2069  143.3662  182.5928 C   0  0  0  0  0  0  0  0  0  0  0  0
  157.5136  143.0785  182.2917 C   0  0  0  0  0  0  0  0  0  0  0  0
  157.8045  141.7305  182.0604 C   0  0  0  0  0  0  0  0  0  0  0  0
  156.7986  140.7743  182.1394 C   0  0  0  0  0  0  0  0  0  0  0  0
  158.5109  144.1469  182.2149 C   0  0  0  0  0  0  0  0  0  0  0  0
  159.2465  144.2122  180.8748 C   0  0  0  0  0  0  0  0  0  0  0  0
  157.9063  145.5264  182.4070 C   0  0  0  0  0  0  0  0  0  0  0  0
  159.4969  143.9165  183.2621 C   0  0  0  0  0  0  0  0  0  0  0  0
  160.3070  143.7306  184.0872 N   0  0  0  0  0  0  0  0  0  0  0  0
 13 14  1  0  0  0
 14 15  1  0  0  0
 15 16  1  0  0  0
 16 17  1  0  0  0
 17 18  1  0  0  0
 18 19  1  0  0  0
 19  7  1  0  0  0
  7  8  2  0  0  0
  8  9  1  0  0  0
  9 10  2  0  0  0
 10 11  1  0  0  0
 11 12  2  0  0  0
 11  1  1  0  0  0
  1  2  2  0  0  0
  2  3  1  0  0  0
  3  4  2  0  0  0
  4 26  1  0  0  0
 26 27  1  0  0  0
 27 28  2  0  0  0
 27 29  1  0  0  0
 29 32  1  0  0  0
 32 33  2  0  0  0
 33 34  1  0  0  0
 34 35  2  0  0  0
 35 36  1  0  0  0
 36 37  2  0  0  0
 35 38  1  0  0  0
 38 39  1  0  0  0
 38 40  1  0  0  0
 38 41  1  0  0  0
 41 42  3  0  0  0
  4  5  1  0  0  0
  5  6  2  0  0  0
  9 20  1  0  0  0
 20 21  1  0  0  0
 21 22  1  0  0  0
 22 23  1  0  0  0
 23 24  1  0  0  0
 24 25  1  0  0  0
 19 14  1  0  0  0
 12  7  1  0  0  0
  6  1  1  0  0  0
 25 20  1  0  0  0
 37 32  1  0  0  0
 26 30  1  0  0  0
 29 31  1  0  0  0
M  END
> <minimizedAffinity>
-5.59974

> <CNNscore>
0.2287798077

> <CNNaffinity>
6.2485890388

> <CNN_VS>
1.4295510054

> <CNNaffinity_variance>
0.9564240575

$$$$
[H]c1c([H])c(N([H])C(=O)N([H])c2c([H])c([H])c(C(C#N)(C([H])([H])[H])C([H])([H])[H])c([H])c2[H])c([H])c([H])c1-c1nc(N2C([H])([H])C([H])([H])OC([H])([H])[C@@]2([H])C([H])([H])[H])nc(C2([H])C([H])([H])C([H])([H])OC([H])([H])C2([H])[H])n1


 42 46  0  0  0  0  0  0  0  0999 V2000
  156.9430  140.1083  184.1585 C   0  0  0  0  0  0  0  0  0  0  0  0
  155.6749  139.8439  183.7186 C   0  0  0  0  0  0  0  0  0  0  0  0
  154.8225  138.9126  184.3380 C   0  0  0  0  0  0  0  0  0  0  0  0
  155.2824  138.2236  185.4538 C   0  0  0  0  0  0  0  0  0  0  0  0
  156.5606  138.4906  185.8944 C   0  0  0  0  0  0  0  0  0  0  0  0
  157.3896  139.4012  185.2834 C   0  0  0  0  0  0  0  0  0  0  0  0
  158.7248  142.0803  181.5644 C   0  0  0  0  0  0  0  0  0  0  0  0
  159.6001  142.7738  182.3063 N   0  0  0  0  0  0  0  0  0  0  0  0
  159.6085  142.6218  183.6513 C   0  0  0  0  0  0  0  0  0  0  0  0
  158.7420  141.7813  184.1696 N   0  0  0  0  0  0  0  0  0  0  0  0
  157.8266  141.0414  183.4857 C   0  0  0  0  0  0  0  0  0  0  0  0
  157.8475  141.2228  182.1548 N   0  0  0  0  0  0  0  0  0  0  0  0
  159.8043  144.4723  180.0424 C   0  0  0  0  0  0  0  0  0  0  0  0
  159.6924  143.0965  179.4786 C   0  0  0  0  0  0  0  0  0  0  0  0
  159.2386  143.1947  178.0140 C   0  0  0  0  0  0  0  0  0  0  0  0
  157.9219  143.5829  177.9588 O   0  0  0  0  0  0  0  0  0  0  0  0
  157.0366  142.6570  178.4583 C   0  0  0  0  0  0  0  0  0  0  0  0
  157.7298  141.6040  179.3042 C   0  0  0  0  0  0  0  0  0  0  0  0
  158.7225  142.2625  180.1486 N   0  0  0  0  0  0  0  0  0  0  0  0
  160.5487  143.3722  184.5120 C   0  0  0  0  0  0  0  0  0  0  0  0
  160.1619  143.3683  185.9632 C   0  0  0  0  0  0  0  0  0  0  0  0
  161.4579  143.7335  186.7090 C   0  0  0  0  0  0  0  0  0  0  0  0
  162.0574  144.8268  186.1469 O   0  0  0  0  0  0  0  0  0  0  0  0
  161.2713  145.5457  185.2872 C   0  0  0  0  0  0  0  0  0  0  0  0
  160.8324  144.7839  184.0481 C   0  0  0  0  0  0  0  0  0  0  0  0
  154.4819  137.2413  186.1083 N   0  0  0  0  0  0  0  0  0  0  0  0
  153.6752  136.3038  185.3885 C   0  0  0  0  0  0  0  0  0  0  0  0
  153.6679  136.3424  184.1079 O   0  0  0  0  0  0  0  0  0  0  0  0
  152.9296  135.3710  186.1350 N   0  0  0  0  0  0  0  0  0  0  0  0
  154.4559  137.1670  187.1628 H   0  0  0  0  0  0  0  0  0  0  0  0
  152.9848  135.4249  187.1833 H   0  0  0  0  0  0  0  0  0  0  0  0
  152.1187  134.3851  185.5429 C   0  0  0  0  0  0  0  0  0  0  0  0
  151.6969  134.6120  184.2031 C   0  0  0  0  0  0  0  0  0  0  0  0
  150.9107  133.7089  183.5437 C   0  0  0  0  0  0  0  0  0  0  0  0
  150.4701  132.5357  184.1008 C   0  0  0  0  0  0  0  0  0  0  0  0
  150.8773  132.2936  185.4164 C   0  0  0  0  0  0  0  0  0  0  0  0
  151.6781  133.2149  186.0816 C   0  0  0  0  0  0  0  0  0  0  0  0
  149.6173  131.6245  183.3364 C   0  0  0  0  0  0  0  0  0  0  0  0
  149.5820  130.1985  183.8900 C   0  0  0  0  0  0  0  0  0  0  0  0
  148.1676  132.0744  183.2975 C   0  0  0  0  0  0  0  0  0  0  0  0
  150.1283  131.5688  181.9734 C   0  0  0  0  0  0  0  0  0  0  0  0
  150.5176  131.5156  180.8703 N   0  0  0  0  0  0  0  0  0  0  0  0
 13 14  1  0  0  0
 14 15  1  0  0  0
 15 16  1  0  0  0
 16 17  1  0  0  0
 17 18  1  0  0  0
 18 19  1  0  0  0
 19  7  1  0  0  0
  7  8  2  0  0  0
  8  9  1  0  0  0
  9 10  2  0  0  0
 10 11  1  0  0  0
 11 12  2  0  0  0
 11  1  1  0  0  0
  1  2  2  0  0  0
  2  3  1  0  0  0
  3  4  2  0  0  0
  4 26  1  0  0  0
 26 27  1  0  0  0
 27 28  2  0  0  0
 27 29  1  0  0  0
 29 32  1  0  0  0
 32 33  2  0  0  0
 33 34  1  0  0  0
 34 35  2  0  0  0
 35 36  1  0  0  0
 36 37  2  0  0  0
 35 38  1  0  0  0
 38 39  1  0  0  0
 38 40  1  0  0  0
 38 41  1  0  0  0
 41 42  3  0  0  0
  4  5  1  0  0  0
  5  6  2  0  0  0
  9 20  1  0  0  0
 20 21  1  0  0  0
 21 22  1  0  0  0
 22 23  1  0  0  0
 23 24  1  0  0  0
 24 25  1  0  0  0
 19 14  1  0  0  0
 12  7  1  0  0  0
  6  1  1  0  0  0
 25 20  1  0  0  0
 37 32  1  0  0  0
 26 30  1  0  0  0
 29 31  1  0  0  0
M  END
> <minimizedAffinity>
1.92031

> <CNNscore>
0.2057815194

> <CNNaffinity>
6.5896925926

> <CNN_VS>
1.3560369015

> <CNNaffinity_variance>
1.1033477783

$$$$
[H]c1c([H])c(N([H])C(=O)N([H])c2c([H])c([H])c(C(C#N)(C([H])([H])[H])C([H])([H])[H])c([H])c2[H])c([H])c([H])c1-c1nc(N2C([H])([H])C([H])([H])OC([H])([H])[C@@]2([H])C([H])([H])[H])nc(C2([H])C([H])([H])C([H])([H])OC([H])([H])C2([H])[H])n1


 42 46  0  0  0  0  0  0  0  0999 V2000
  152.3305  136.0357  187.5283 C   0  0  0  0  0  0  0  0  0  0  0  0
  153.4329  135.4837  186.9352 C   0  0  0  0  0  0  0  0  0  0  0  0
  154.2262  136.1665  185.9961 C   0  0  0  0  0  0  0  0  0  0  0  0
  153.8818  137.4673  185.6490 C   0  0  0  0  0  0  0  0  0  0  0  0
  152.7702  138.0208  186.2468 C   0  0  0  0  0  0  0  0  0  0  0  0
  151.9977  137.3474  187.1631 C   0  0  0  0  0  0  0  0  0  0  0  0
  150.9004  134.5809  190.6318 C   0  0  0  0  0  0  0  0  0  0  0  0
  149.9116  133.8194  190.1421 N   0  0  0  0  0  0  0  0  0  0  0  0
  149.6892  133.7846  188.8074 C   0  0  0  0  0  0  0  0  0  0  0  0
  150.4741  134.5119  188.0452 N   0  0  0  0  0  0  0  0  0  0  0  0
  151.4971  135.3059  188.4648 C   0  0  0  0  0  0  0  0  0  0  0  0
  151.6833  135.3162  189.7951 N   0  0  0  0  0  0  0  0  0  0  0  0
  150.8972  137.0404  192.4079 C   0  0  0  0  0  0  0  0  0  0  0  0
  150.5736  135.6627  192.8773 C   0  0  0  0  0  0  0  0  0  0  0  0
  151.1808  135.4578  194.2737 C   0  0  0  0  0  0  0  0  0  0  0  0
  152.5480  135.3623  194.1782 O   0  0  0  0  0  0  0  0  0  0  0  0
  152.9932  134.2410  193.5188 C   0  0  0  0  0  0  0  0  0  0  0  0
  151.8900  133.5769  192.7146 C   0  0  0  0  0  0  0  0  0  0  0  0
  151.1123  134.6144  192.0430 N   0  0  0  0  0  0  0  0  0  0  0  0
  148.6046  132.9672  188.2216 C   0  0  0  0  0  0  0  0  0  0  0  0
  148.9417  131.5066  188.1290 C   0  0  0  0  0  0  0  0  0  0  0  0
  147.5793  130.8042  187.9880 C   0  0  0  0  0  0  0  0  0  0  0  0
  146.8116  131.4079  187.0306 O   0  0  0  0  0  0  0  0  0  0  0  0
  147.4823  132.2634  186.1987 C   0  0  0  0  0  0  0  0  0  0  0  0
  148.0874  133.4719  186.8926 C   0  0  0  0  0  0  0  0  0  0  0  0
  154.6233  138.2034  184.6783 N   0  0  0  0  0  0  0  0  0  0  0  0
  155.8489  138.8718  184.9928 C   0  0  0  0  0  0  0  0  0  0  0  0
  156.3030  138.8100  186.1892 O   0  0  0  0  0  0  0  0  0  0  0  0
  156.5038  139.5635  183.9555 N   0  0  0  0  0  0  0  0  0  0  0  0
  154.2920  138.2820  183.6771 H   0  0  0  0  0  0  0  0  0  0  0  0
  156.0480  139.5736  183.0083 H   0  0  0  0  0  0  0  0  0  0  0  0
  157.7255  140.2387  184.1336 C   0  0  0  0  0  0  0  0  0  0  0  0
  157.7032  141.4202  184.9260 C   0  0  0  0  0  0  0  0  0  0  0  0
  158.8412  142.1411  185.1580 C   0  0  0  0  0  0  0  0  0  0  0  0
  160.0723  141.7985  184.6600 C   0  0  0  0  0  0  0  0  0  0  0  0
  160.1147  140.6379  183.8812 C   0  0  0  0  0  0  0  0  0  0  0  0
  158.9544  139.9080  183.6499 C   0  0  0  0  0  0  0  0  0  0  0  0
  161.2442  142.6295  184.9393 C   0  0  0  0  0  0  0  0  0  0  0  0
  162.5279  142.1350  184.2696 C   0  0  0  0  0  0  0  0  0  0  0  0
  161.0719  144.0618  184.4655 C   0  0  0  0  0  0  0  0  0  0  0  0
  161.4579  142.6344  186.3802 C   0  0  0  0  0  0  0  0  0  0  0  0
  161.6427  142.6585  187.5364 N   0  0  0  0  0  0  0  0  0  0  0  0
 13 14  1  0  0  0
 14 15  1  0  0  0
 15 16  1  0  0  0
 16 17  1  0  0  0
 17 18  1  0  0  0
 18 19  1  0  0  0
 19  7  1  0  0  0
  7  8  2  0  0  0
  8  9  1  0  0  0
  9 10  2  0  0  0
 10 11  1  0  0  0
 11 12  2  0  0  0
 11  1  1  0  0  0
  1  2  2  0  0  0
  2  3  1  0  0  0
  3  4  2  0  0  0
  4 26  1  0  0  0
 26 27  1  0  0  0
 27 28  2  0  0  0
 27 29  1  0  0  0
 29 32  1  0  0  0
 32 33  2  0  0  0
 33 34  1  0  0  0
 34 35  2  0  0  0
 35 36  1  0  0  0
 36 37  2  0  0  0
 35 38  1  0  0  0
 38 39  1  0  0  0
 38 40  1  0  0  0
 38 41  1  0  0  0
 41 42  3  0  0  0
  4  5  1  0  0  0
  5  6  2  0  0  0
  9 20  1  0  0  0
 20 21  1  0  0  0
 21 22  1  0  0  0
 22 23  1  0  0  0
 23 24  1  0  0  0
 24 25  1  0  0  0
 19 14  1  0  0  0
 12  7  1  0  0  0
  6  1  1  0  0  0
 25 20  1  0  0  0
 37 32  1  0  0  0
 26 30  1  0  0  0
 29 31  1  0  0  0
M  END
> <minimizedAffinity>
-7.08943

> <CNNscore>
0.2050499022

> <CNNaffinity>
6.1775293350

> <CNN_VS>
1.2667018175

> <CNNaffinity_variance>
0.3337219954

$$$$
[H]c1c([H])c(N([H])C(=O)N([H])c2c([H])c([H])c(C(C#N)(C([H])([H])[H])C([H])([H])[H])c([H])c2[H])c([H])c([H])c1-c1nc(N2C([H])([H])C([H])([H])OC([H])([H])[C@@]2([H])C([H])([H])[H])nc(C2([H])C([H])([H])C([H])([H])OC([H])([H])C2([H])[H])n1


 42 46  0  0  0  0  0  0  0  0999 V2000
  152.9974  135.3669  187.1997 C   0  0  0  0  0  0  0  0  0  0  0  0
  152.4695  136.6243  187.3088 C   0  0  0  0  0  0  0  0  0  0  0  0
  152.5496  137.5854  186.2854 C   0  0  0  0  0  0  0  0  0  0  0  0
  153.1935  137.2492  185.1006 C   0  0  0  0  0  0  0  0  0  0  0  0
  153.7256  135.9824  184.9935 C   0  0  0  0  0  0  0  0  0  0  0  0
  153.6453  135.0478  185.9984 C   0  0  0  0  0  0  0  0  0  0  0  0
  153.7750  132.5545  189.4973 C   0  0  0  0  0  0  0  0  0  0  0  0
  152.7016  132.5576  190.3006 N   0  0  0  0  0  0  0  0  0  0  0  0
  151.7278  133.4795  190.1162 C   0  0  0  0  0  0  0  0  0  0  0  0
  151.8877  134.3390  189.1355 N   0  0  0  0  0  0  0  0  0  0  0  0
  152.9436  134.3987  188.2786 C   0  0  0  0  0  0  0  0  0  0  0  0
  153.8897  133.4702  188.4963 N   0  0  0  0  0  0  0  0  0  0  0  0
  156.4191  132.9909  190.9192 C   0  0  0  0  0  0  0  0  0  0  0  0
  155.7255  131.6750  190.8169 C   0  0  0  0  0  0  0  0  0  0  0  0
  156.7751  130.5760  190.5908 C   0  0  0  0  0  0  0  0  0  0  0  0
  157.2875  130.6749  189.3200 O   0  0  0  0  0  0  0  0  0  0  0  0
  156.3835  130.3998  188.3213 C   0  0  0  0  0  0  0  0  0  0  0  0
  154.9511  130.4361  188.8231 C   0  0  0  0  0  0  0  0  0  0  0  0
  154.7975  131.5824  189.7145 N   0  0  0  0  0  0  0  0  0  0  0  0
  150.5302  133.5283  190.9828 C   0  0  0  0  0  0  0  0  0  0  0  0
  149.3481  134.1864  190.3304 C   0  0  0  0  0  0  0  0  0  0  0  0
  148.1369  133.7009  191.1468 C   0  0  0  0  0  0  0  0  0  0  0  0
  148.3619  133.8372  192.4889 O   0  0  0  0  0  0  0  0  0  0  0  0
  149.4219  134.6357  192.8246 C   0  0  0  0  0  0  0  0  0  0  0  0
  150.7718  134.1225  192.3528 C   0  0  0  0  0  0  0  0  0  0  0  0
  153.3398  138.1877  184.0368 N   0  0  0  0  0  0  0  0  0  0  0  0
  154.4449  139.0933  183.9579 C   0  0  0  0  0  0  0  0  0  0  0  0
  155.3405  139.0646  184.8736 O   0  0  0  0  0  0  0  0  0  0  0  0
  154.4948  139.9733  182.8595 N   0  0  0  0  0  0  0  0  0  0  0  0
  152.6293  138.2488  183.2560 H   0  0  0  0  0  0  0  0  0  0  0  0
  153.7064  139.9367  182.1651 H   0  0  0  0  0  0  0  0  0  0  0  0
  155.5410  140.8925  182.6580 C   0  0  0  0  0  0  0  0  0  0  0  0
  155.2212  142.2740  182.7760 C   0  0  0  0  0  0  0  0  0  0  0  0
  156.1721  143.2402  182.6014 C   0  0  0  0  0  0  0  0  0  0  0  0
  157.4836  142.9708  182.3043 C   0  0  0  0  0  0  0  0  0  0  0  0
  157.8178  141.6180  182.1875 C   0  0  0  0  0  0  0  0  0  0  0  0
  156.8469  140.6396  182.3676 C   0  0  0  0  0  0  0  0  0  0  0  0
  158.4420  144.0608  182.1166 C   0  0  0  0  0  0  0  0  0  0  0  0
  159.1516  144.0350  180.7612 C   0  0  0  0  0  0  0  0  0  0  0  0
  157.7937  145.4311  182.2027 C   0  0  0  0  0  0  0  0  0  0  0  0
  159.4534  143.9536  183.1595 C   0  0  0  0  0  0  0  0  0  0  0  0
  160.2720  143.8907  183.9945 N   0  0  0  0  0  0  0  0  0  0  0  0
 13 14  1  0  0  0
 14 15  1  0  0  0
 15 16  1  0  0  0
 16 17  1  0  0  0
 17 18  1  0  0  0
 18 19  1  0  0  0
 19  7  1  0  0  0
  7  8  2  0  0  0
  8  9  1  0  0  0
  9 10  2  0  0  0
 10 11  1  0  0  0
 11 12  2  0  0  0
 11  1  1  0  0  0
  1  2  2  0  0  0
  2  3  1  0  0  0
  3  4  2  0  0  0
  4 26  1  0  0  0
 26 27  1  0  0  0
 27 28  2  0  0  0
 27 29  1  0  0  0
 29 32  1  0  0  0
 32 33  2  0  0  0
 33 34  1  0  0  0
 34 35  2  0  0  0
 35 36  1  0  0  0
 36 37  2  0  0  0
 35 38  1  0  0  0
 38 39  1  0  0  0
 38 40  1  0  0  0
 38 41  1  0  0  0
 41 42  3  0  0  0
  4  5  1  0  0  0
  5  6  2  0  0  0
  9 20  1  0  0  0
 20 21  1  0  0  0
 21 22  1  0  0  0
 22 23  1  0  0  0
 23 24  1  0  0  0
 24 25  1  0  0  0
 19 14  1  0  0  0
 12  7  1  0  0  0
  6  1  1  0  0  0
 25 20  1  0  0  0
 37 32  1  0  0  0
 26 30  1  0  0  0
 29 31  1  0  0  0
M  END
> <minimizedAffinity>
-6.00548

> <CNNscore>
0.1942805350

> <CNNaffinity>
6.1945853233

> <CNN_VS>
1.2034873962

> <CNNaffinity_variance>
0.8625413179

$$$$
[H]c1c([H])c(N([H])C(=O)N([H])c2c([H])c([H])c(C(C#N)(C([H])([H])[H])C([H])([H])[H])c([H])c2[H])c([H])c([H])c1-c1nc(N2C([H])([H])C([H])([H])OC([H])([H])[C@@]2([H])C([H])([H])[H])nc(C2([H])C([H])([H])C([H])([H])OC([H])([H])C2([H])[H])n1


 42 46  0  0  0  0  0  0  0  0999 V2000
  152.1930  136.3247  187.2797 C   0  0  0  0  0  0  0  0  0  0  0  0
  153.0619  135.6392  186.4755 C   0  0  0  0  0  0  0  0  0  0  0  0
  153.9078  136.2663  185.5434 C   0  0  0  0  0  0  0  0  0  0  0  0
  153.8669  137.6506  185.4282 C   0  0  0  0  0  0  0  0  0  0  0  0
  152.9900  138.3390  186.2384 C   0  0  0  0  0  0  0  0  0  0  0  0
  152.1644  137.7198  187.1467 C   0  0  0  0  0  0  0  0  0  0  0  0
  149.3660  134.4114  188.7426 C   0  0  0  0  0  0  0  0  0  0  0  0
  149.6194  134.5165  190.0549 N   0  0  0  0  0  0  0  0  0  0  0  0
  150.7149  135.1914  190.4751 C   0  0  0  0  0  0  0  0  0  0  0  0
  151.4868  135.7228  189.5544 N   0  0  0  0  0  0  0  0  0  0  0  0
  151.2965  135.6623  188.2079 C   0  0  0  0  0  0  0  0  0  0  0  0
  150.2014  134.9815  187.8312 N   0  0  0  0  0  0  0  0  0  0  0  0
  149.2268  131.4543  188.0796 C   0  0  0  0  0  0  0  0  0  0  0  0
  148.0680  132.2674  188.5476 C   0  0  0  0  0  0  0  0  0  0  0  0
  146.8116  131.8315  187.7781 C   0  0  0  0  0  0  0  0  0  0  0  0
  146.8916  132.2582  186.4746 O   0  0  0  0  0  0  0  0  0  0  0  0
  146.8464  133.6238  186.3215 C   0  0  0  0  0  0  0  0  0  0  0  0
  147.1130  134.3529  187.6262 C   0  0  0  0  0  0  0  0  0  0  0  0
  148.2125  133.6857  188.3177 N   0  0  0  0  0  0  0  0  0  0  0  0
  151.0410  135.3257  191.9115 C   0  0  0  0  0  0  0  0  0  0  0  0
  149.8281  135.4129  192.7930 C   0  0  0  0  0  0  0  0  0  0  0  0
  150.3437  135.0461  194.1962 C   0  0  0  0  0  0  0  0  0  0  0  0
  151.4814  135.7419  194.4995 O   0  0  0  0  0  0  0  0  0  0  0  0
  151.7467  136.8099  193.6853 C   0  0  0  0  0  0  0  0  0  0  0  0
  152.0052  136.4461  192.2331 C   0  0  0  0  0  0  0  0  0  0  0  0
  154.6731  138.3461  184.4793 N   0  0  0  0  0  0  0  0  0  0  0  0
  155.8903  139.0052  184.8421 C   0  0  0  0  0  0  0  0  0  0  0  0
  156.2765  138.9726  186.0633 O   0  0  0  0  0  0  0  0  0  0  0  0
  156.6129  139.6556  183.8233 N   0  0  0  0  0  0  0  0  0  0  0  0
  154.3991  138.3995  183.4594 H   0  0  0  0  0  0  0  0  0  0  0  0
  156.2106  139.6441  182.8522 H   0  0  0  0  0  0  0  0  0  0  0  0
  157.8340  140.3175  184.0494 C   0  0  0  0  0  0  0  0  0  0  0  0
  157.8151  141.4241  184.9437 C   0  0  0  0  0  0  0  0  0  0  0  0
  158.9527  142.1263  185.2283 C   0  0  0  0  0  0  0  0  0  0  0  0
  160.1803  141.8345  184.6909 C   0  0  0  0  0  0  0  0  0  0  0  0
  160.2193  140.7477  183.8118 C   0  0  0  0  0  0  0  0  0  0  0  0
  159.0594  140.0362  183.5272 C   0  0  0  0  0  0  0  0  0  0  0  0
  161.3519  142.6424  185.0321 C   0  0  0  0  0  0  0  0  0  0  0  0
  161.6554  142.6912  186.5309 C   0  0  0  0  0  0  0  0  0  0  0  0
  162.6251  142.1300  184.3826 C   0  0  0  0  0  0  0  0  0  0  0  0
  161.1068  144.0037  184.5750 C   0  0  0  0  0  0  0  0  0  0  0  0
  160.8905  145.0901  184.1952 N   0  0  0  0  0  0  0  0  0  0  0  0
 13 14  1  0  0  0
 14 15  1  0  0  0
 15 16  1  0  0  0
 16 17  1  0  0  0
 17 18  1  0  0  0
 18 19  1  0  0  0
 19  7  1  0  0  0
  7  8  2  0  0  0
  8  9  1  0  0  0
  9 10  2  0  0  0
 10 11  1  0  0  0
 11 12  2  0  0  0
 11  1  1  0  0  0
  1  2  2  0  0  0
  2  3  1  0  0  0
  3  4  2  0  0  0
  4 26  1  0  0  0
 26 27  1  0  0  0
 27 28  2  0  0  0
 27 29  1  0  0  0
 29 32  1  0  0  0
 32 33  2  0  0  0
 33 34  1  0  0  0
 34 35  2  0  0  0
 35 36  1  0  0  0
 36 37  2  0  0  0
 35 38  1  0  0  0
 38 39  1  0  0  0
 38 40  1  0  0  0
 38 41  1  0  0  0
 41 42  3  0  0  0
  4  5  1  0  0  0
  5  6  2  0  0  0
  9 20  1  0  0  0
 20 21  1  0  0  0
 21 22  1  0  0  0
 22 23  1  0  0  0
 23 24  1  0  0  0
 24 25  1  0  0  0
 19 14  1  0  0  0
 12  7  1  0  0  0
  6  1  1  0  0  0
 25 20  1  0  0  0
 37 32  1  0  0  0
 26 30  1  0  0  0
 29 31  1  0  0  0
M  END
> <minimizedAffinity>
-7.85866

> <CNNscore>
0.1813265234

> <CNNaffinity>
6.1259713173

> <CNN_VS>
1.1108011007

> <CNNaffinity_variance>
0.2206180990

$$$$
[H]c1c([H])c(N([H])C(=O)N([H])c2c([H])c([H])c(C(C#N)(C([H])([H])[H])C([H])([H])[H])c([H])c2[H])c([H])c([H])c1-c1nc(N2C([H])([H])C([H])([H])OC([H])([H])[C@@]2([H])C([H])([H])[H])nc(C2([H])C([H])([H])C([H])([H])OC([H])([H])C2([H])[H])n1


 42 46  0  0  0  0  0  0  0  0999 V2000
  152.3584  136.2963  187.4957 C   0  0  0  0  0  0  0  0  0  0  0  0
  152.2944  137.6519  187.3229 C   0  0  0  0  0  0  0  0  0  0  0  0
  153.0505  138.3427  186.3592 C   0  0  0  0  0  0  0  0  0  0  0  0
  153.9060  137.6203  185.5361 C   0  0  0  0  0  0  0  0  0  0  0  0
  153.9697  136.2550  185.7128 C   0  0  0  0  0  0  0  0  0  0  0  0
  153.2291  135.5857  186.6580 C   0  0  0  0  0  0  0  0  0  0  0  0
  151.0855  135.0781  190.7650 C   0  0  0  0  0  0  0  0  0  0  0  0
  150.1782  134.1694  190.3798 N   0  0  0  0  0  0  0  0  0  0  0  0
  149.9593  133.9568  189.0611 C   0  0  0  0  0  0  0  0  0  0  0  0
  150.6659  134.6650  188.2096 N   0  0  0  0  0  0  0  0  0  0  0  0
  151.6039  135.6011  188.5211 C   0  0  0  0  0  0  0  0  0  0  0  0
  151.7894  135.7853  189.8387 N   0  0  0  0  0  0  0  0  0  0  0  0
  153.1121  133.6793  192.5369 C   0  0  0  0  0  0  0  0  0  0  0  0
  152.5645  135.0414  192.7975 C   0  0  0  0  0  0  0  0  0  0  0  0
  152.3297  135.2024  194.3073 C   0  0  0  0  0  0  0  0  0  0  0  0
  151.2582  134.4359  194.6970 O   0  0  0  0  0  0  0  0  0  0  0  0
  150.0502  134.8489  194.1864 C   0  0  0  0  0  0  0  0  0  0  0  0
  150.2215  135.7987  193.0145 C   0  0  0  0  0  0  0  0  0  0  0  0
  151.2943  135.2974  192.1600 N   0  0  0  0  0  0  0  0  0  0  0  0
  148.9622  132.9720  188.5881 C   0  0  0  0  0  0  0  0  0  0  0  0
  148.0659  133.5030  187.5062 C   0  0  0  0  0  0  0  0  0  0  0  0
  147.4861  132.2457  186.8336 C   0  0  0  0  0  0  0  0  0  0  0  0
  147.0124  131.3637  187.7654 O   0  0  0  0  0  0  0  0  0  0  0  0
  146.8515  131.8757  189.0247 C   0  0  0  0  0  0  0  0  0  0  0  0
  148.1391  132.3365  189.6867 C   0  0  0  0  0  0  0  0  0  0  0  0
  154.7259  138.2628  184.5620 N   0  0  0  0  0  0  0  0  0  0  0  0
  155.9183  138.9734  184.9096 C   0  0  0  0  0  0  0  0  0  0  0  0
  156.2686  139.0379  186.1403 O   0  0  0  0  0  0  0  0  0  0  0  0
  156.6576  139.5641  183.8667 N   0  0  0  0  0  0  0  0  0  0  0  0
  154.4811  138.2361  183.5335 H   0  0  0  0  0  0  0  0  0  0  0  0
  156.2845  139.4732  182.8881 H   0  0  0  0  0  0  0  0  0  0  0  0
  157.8579  140.2675  184.0781 C   0  0  0  0  0  0  0  0  0  0  0  0
  157.8943  141.1709  185.1767 C   0  0  0  0  0  0  0  0  0  0  0  0
  159.0175  141.8954  185.4631 C   0  0  0  0  0  0  0  0  0  0  0  0
  160.1776  141.8179  184.7357 C   0  0  0  0  0  0  0  0  0  0  0  0
  160.1620  140.9325  183.6536 C   0  0  0  0  0  0  0  0  0  0  0  0
  159.0173  140.1972  183.3679 C   0  0  0  0  0  0  0  0  0  0  0  0
  161.3359  142.6374  185.0948 C   0  0  0  0  0  0  0  0  0  0  0  0
  161.5855  142.7305  186.6015 C   0  0  0  0  0  0  0  0  0  0  0  0
  162.6318  142.1080  184.5067 C   0  0  0  0  0  0  0  0  0  0  0  0
  161.1067  143.9842  184.5895 C   0  0  0  0  0  0  0  0  0  0  0  0
  160.9351  145.0759  184.2020 N   0  0  0  0  0  0  0  0  0  0  0  0
 13 14  1  0  0  0
 14 15  1  0  0  0
 15 16  1  0  0  0
 16 17  1  0  0  0
 17 18  1  0  0  0
 18 19  1  0  0  0
 19  7  1  0  0  0
  7  8  2  0  0  0
  8  9  1  0  0  0
  9 10  2  0  0  0
 10 11  1  0  0  0
 11 12  2  0  0  0
 11  1  1  0  0  0
  1  2  2  0  0  0
  2  3  1  0  0  0
  3  4  2  0  0  0
  4 26  1  0  0  0
 26 27  1  0  0  0
 27 28  2  0  0  0
 27 29  1  0  0  0
 29 32  1  0  0  0
 32 33  2  0  0  0
 33 34  1  0  0  0
 34 35  2  0  0  0
 35 36  1  0  0  0
 36 37  2  0  0  0
 35 38  1  0  0  0
 38 39  1  0  0  0
 38 40  1  0  0  0
 38 41  1  0  0  0
 41 42  3  0  0  0
  4  5  1  0  0  0
  5  6  2  0  0  0
  9 20  1  0  0  0
 20 21  1  0  0  0
 21 22  1  0  0  0
 22 23  1  0  0  0
 23 24  1  0  0  0
 24 25  1  0  0  0
 19 14  1  0  0  0
 12  7  1  0  0  0
  6  1  1  0  0  0
 25 20  1  0  0  0
 37 32  1  0  0  0
 26 30  1  0  0  0
 29 31  1  0  0  0
M  END
> <minimizedAffinity>
-7.79911

> <CNNscore>
0.1788451821

> <CNNaffinity>
6.0709099770

> <CNN_VS>
1.0857529640

> <CNNaffinity_variance>
0.2120649517

$$$$
[H]OC(=O)[C@@]([H])(N([H])C(=O)[C@@]([H])(N([H])C(=O)[C@@]([H])(N([H])C(=O)[C@@]([H])(N([H])C(=O)c1c([H])c([H])c(S(=O)(=O)N([H])[H])c([H])c1[H])C([H])([H])c1c([H])c([H])c([H])c([H])c1[H])C([H])([H])c1c([H])c([H])c([H])c([H])c1[H])C([H])([H])c1c([H])c([H])c([H])c([H])c1[H])C([H])([H])c1c([H])c([H])c([H])c([H])c1[H]


 64 68  0  0  0  0  0  0  0  0999 V2000
  154.1176  137.7478  187.2725 C   0  0  0  0  0  0  0  0  0  0  0  0
  155.0808  135.4140  187.1911 C   0  0  0  0  0  0  0  0  0  0  0  0
  153.9164  134.9896  187.0540 O   0  0  0  0  0  0  0  0  0  0  0  0
  155.2880  136.7965  187.3100 N   0  0  0  0  0  0  0  0  0  0  0  0
  156.2538  137.1549  187.4212 H   0  0  0  0  0  0  0  0  0  0  0  0
  156.1950  134.4690  187.2310 C   0  0  0  0  0  0  0  0  0  0  0  0
  156.3106  132.7423  185.4294 C   0  0  0  0  0  0  0  0  0  0  0  0
  155.7461  131.9149  186.1882 O   0  0  0  0  0  0  0  0  0  0  0  0
  156.5795  134.0514  185.8723 N   0  0  0  0  0  0  0  0  0  0  0  0
  157.0426  134.7370  185.2636 H   0  0  0  0  0  0  0  0  0  0  0  0
  157.3426  131.3188  181.5822 C   0  0  0  0  0  0  0  0  0  0  0  0
  156.2970  132.2060  181.7136 C   0  0  0  0  0  0  0  0  0  0  0  0
  155.9759  132.6648  182.9617 C   0  0  0  0  0  0  0  0  0  0  0  0
  156.6630  132.2672  184.0782 C   0  0  0  0  0  0  0  0  0  0  0  0
  157.7141  131.3697  183.9047 C   0  0  0  0  0  0  0  0  0  0  0  0
  158.0592  130.8923  182.6635 C   0  0  0  0  0  0  0  0  0  0  0  0
  159.2722  131.3920  179.4931 N   0  0  0  0  0  0  0  0  0  0  0  0
  157.7599  130.7128  179.9878 S   0  0  0  0  0  0  0  0  0  0  0  0
  156.7300  131.1216  178.9784 O   0  0  0  0  0  0  0  0  0  0  0  0
  157.8169  129.2071  179.9991 O   0  0  0  0  0  0  0  0  0  0  0  0
  159.2921  131.5009  178.4478 H   0  0  0  0  0  0  0  0  0  0  0  0
  159.2815  132.3676  179.8759 H   0  0  0  0  0  0  0  0  0  0  0  0
  157.3936  134.9899  187.9828 C   0  0  0  0  0  0  0  0  0  0  0  0
  158.0204  134.0239  188.8665 C   0  0  0  0  0  0  0  0  0  0  0  0
  159.0388  133.2231  188.4350 C   0  0  0  0  0  0  0  0  0  0  0  0
  159.6638  132.2936  189.2338 C   0  0  0  0  0  0  0  0  0  0  0  0
  159.2310  132.1638  190.5571 C   0  0  0  0  0  0  0  0  0  0  0  0
  158.1958  132.9669  191.0208 C   0  0  0  0  0  0  0  0  0  0  0  0
  157.5932  133.8970  190.1690 C   0  0  0  0  0  0  0  0  0  0  0  0
  154.2535  138.4754  186.0564 C   0  0  0  0  0  0  0  0  0  0  0  0
  153.4665  139.4906  185.8845 O   0  0  0  0  0  0  0  0  0  0  0  0
  155.1368  138.2553  184.9975 N   0  0  0  0  0  0  0  0  0  0  0  0
  155.8309  137.4887  184.9596 H   0  0  0  0  0  0  0  0  0  0  0  0
  155.1624  139.1407  183.8056 C   0  0  0  0  0  0  0  0  0  0  0  0
  156.3826  139.9400  183.8504 C   0  0  0  0  0  0  0  0  0  0  0  0
  156.8228  140.2159  185.0247 O   0  0  0  0  0  0  0  0  0  0  0  0
  157.1081  140.4138  182.7273 N   0  0  0  0  0  0  0  0  0  0  0  0
  156.6825  140.0944  181.7901 H   0  0  0  0  0  0  0  0  0  0  0  0
  158.2782  141.1686  182.6352 C   0  0  0  0  0  0  0  0  0  0  0  0
  158.5879  141.6109  181.2364 C   0  0  0  0  0  0  0  0  0  0  0  0
  158.1542  140.8340  180.1870 O   0  0  0  0  0  0  0  0  0  0  0  0
  159.2175  142.6508  181.0441 O   0  0  0  0  0  0  0  0  0  0  0  0
  158.2473  141.1617  179.2231 H   0  0  0  0  0  0  0  0  0  0  0  0
  159.5352  140.6182  183.2002 C   0  0  0  0  0  0  0  0  0  0  0  0
  160.0934  141.4200  184.2914 C   0  0  0  0  0  0  0  0  0  0  0  0
  161.4452  141.7762  184.1500 C   0  0  0  0  0  0  0  0  0  0  0  0
  162.1007  142.4723  185.1356 C   0  0  0  0  0  0  0  0  0  0  0  0
  161.4646  142.8557  186.3130 C   0  0  0  0  0  0  0  0  0  0  0  0
  160.1502  142.5023  186.4364 C   0  0  0  0  0  0  0  0  0  0  0  0
  159.4842  141.8030  185.4499 C   0  0  0  0  0  0  0  0  0  0  0  0
  153.8573  139.8150  183.6614 C   0  0  0  0  0  0  0  0  0  0  0  0
  153.0098  139.4711  182.5156 C   0  0  0  0  0  0  0  0  0  0  0  0
  152.4421  138.2216  182.2950 C   0  0  0  0  0  0  0  0  0  0  0  0
  151.6466  137.9486  181.2055 C   0  0  0  0  0  0  0  0  0  0  0  0
  151.3658  138.9069  180.2641 C   0  0  0  0  0  0  0  0  0  0  0  0
  151.9130  140.1497  180.4542 C   0  0  0  0  0  0  0  0  0  0  0  0
  152.7080  140.4359  181.5349 C   0  0  0  0  0  0  0  0  0  0  0  0
  154.0946  138.4183  188.6034 C   0  0  0  0  0  0  0  0  0  0  0  0
  154.6863  137.7060  189.7322 C   0  0  0  0  0  0  0  0  0  0  0  0
  155.9733  137.9799  190.1673 C   0  0  0  0  0  0  0  0  0  0  0  0
  156.5336  137.3716  191.2694 C   0  0  0  0  0  0  0  0  0  0  0  0
  155.8162  136.4424  191.9996 C   0  0  0  0  0  0  0  0  0  0  0  0
  154.5338  136.1587  191.5790 C   0  0  0  0  0  0  0  0  0  0  0  0
  153.9933  136.7775  190.4768 C   0  0  0  0  0  0  0  0  0  0  0  0
 17 18  1  0  0  0
 18 19  2  0  0  0
 18 20  2  0  0  0
 18 11  1  0  0  0
 11 12  2  0  0  0
 12 13  1  0  0  0
 13 14  2  0  0  0
 14 15  1  0  0  0
 15 16  2  0  0  0
 14  7  1  0  0  0
  7  8  2  0  0  0
  7  9  1  0  0  0
  9  6  1  0  0  0
  6 23  1  0  0  0
 23 24  1  0  0  0
 24 25  2  0  0  0
 25 26  1  0  0  0
 26 27  2  0  0  0
 27 28  1  0  0  0
 28 29  2  0  0  0
  6  2  1  0  0  0
  2  3  2  0  0  0
  2  4  1  0  0  0
  4  1  1  0  0  0
  1 58  1  0  0  0
 58 59  1  0  0  0
 59 60  2  0  0  0
 60 61  1  0  0  0
 61 62  2  0  0  0
 62 63  1  0  0  0
 63 64  2  0  0  0
  1 30  1  0  0  0
 30 31  2  0  0  0
 30 32  1  0  0  0
 32 34  1  0  0  0
 34 51  1  0  0  0
 51 52  1  0  0  0
 52 53  2  0  0  0
 53 54  1  0  0  0
 54 55  2  0  0  0
 55 56  1  0  0  0
 56 57  2  0  0  0
 34 35  1  0  0  0
 35 36  2  0  0  0
 35 37  1  0  0  0
 37 39  1  0  0  0
 39 44  1  0  0  0
 44 45  1  0  0  0
 45 46  2  0  0  0
 46 47  1  0  0  0
 47 48  2  0  0  0
 48 49  1  0  0  0
 49 50  2  0  0  0
 39 40  1  0  0  0
 40 41  1  0  0  0
 40 42  2  0  0  0
 16 11  1  0  0  0
 29 24  1  0  0  0
 64 59  1  0  0  0
 57 52  1  0  0  0
 50 45  1  0  0  0
 17 21  1  0  0  0
 17 22  1  0  0  0
  9 10  1  0  0  0
  4  5  1  0  0  0
 32 33  1  0  0  0
 37 38  1  0  0  0
 41 43  1  0  0  0
M  END
> <minimizedAffinity>
-9.99472

> <CNNscore>
0.2744688094

> <CNNaffinity>
7.2874250412

> <CNN_VS>
2.0001709461

> <CNNaffinity_variance>
0.5017181635

$$$$
[H]OC(=O)[C@@]([H])(N([H])C(=O)[C@@]([H])(N([H])C(=O)[C@@]([H])(N([H])C(=O)[C@@]([H])(N([H])C(=O)c1c([H])c([H])c(S(=O)(=O)N([H])[H])c([H])c1[H])C([H])([H])c1c([H])c([H])c([H])c([H])c1[H])C([H])([H])c1c([H])c([H])c([H])c([H])c1[H])C([H])([H])c1c([H])c([H])c([H])c([H])c1[H])C([H])([H])c1c([H])c([H])c([H])c([H])c1[H]


 64 68  0  0  0  0  0  0  0  0999 V2000
  152.7789  135.2750  183.5222 C   0  0  0  0  0  0  0  0  0  0  0  0
  153.6511  136.2838  185.6675 C   0  0  0  0  0  0  0  0  0  0  0  0
  152.9833  135.4305  186.2844 O   0  0  0  0  0  0  0  0  0  0  0  0
  153.6145  136.2879  184.2650 N   0  0  0  0  0  0  0  0  0  0  0  0
  154.1699  136.9928  183.7472 H   0  0  0  0  0  0  0  0  0  0  0  0
  154.4463  137.2573  186.4132 C   0  0  0  0  0  0  0  0  0  0  0  0
  154.7340  139.0257  184.6724 C   0  0  0  0  0  0  0  0  0  0  0  0
  153.4956  139.2385  184.6859 O   0  0  0  0  0  0  0  0  0  0  0  0
  155.3002  138.0436  185.5072 N   0  0  0  0  0  0  0  0  0  0  0  0
  156.3103  137.8575  185.5044 H   0  0  0  0  0  0  0  0  0  0  0  0
  157.0806  141.3394  182.0205 C   0  0  0  0  0  0  0  0  0  0  0  0
  155.7226  141.5610  182.0860 C   0  0  0  0  0  0  0  0  0  0  0  0
  154.9742  140.8114  182.9517 C   0  0  0  0  0  0  0  0  0  0  0  0
  155.5367  139.8512  183.7506 C   0  0  0  0  0  0  0  0  0  0  0  0
  156.9129  139.6569  183.6563 C   0  0  0  0  0  0  0  0  0  0  0  0
  157.6896  140.3949  182.7962 C   0  0  0  0  0  0  0  0  0  0  0  0
  157.8434  141.6775  179.3007 N   0  0  0  0  0  0  0  0  0  0  0  0
  158.0530  142.2864  180.9065 S   0  0  0  0  0  0  0  0  0  0  0  0
  159.5088  142.1738  181.2452 O   0  0  0  0  0  0  0  0  0  0  0  0
  157.6752  143.7427  180.9903 O   0  0  0  0  0  0  0  0  0  0  0  0
  158.7248  141.8182  178.7455 H   0  0  0  0  0  0  0  0  0  0  0  0
  157.7410  140.6396  179.4043 H   0  0  0  0  0  0  0  0  0  0  0  0
  153.6152  138.1689  187.2801 C   0  0  0  0  0  0  0  0  0  0  0  0
  153.7498  137.9361  188.7066 C   0  0  0  0  0  0  0  0  0  0  0  0
  152.9219  137.0738  189.3665 C   0  0  0  0  0  0  0  0  0  0  0  0
  153.0099  136.8203  190.7158 C   0  0  0  0  0  0  0  0  0  0  0  0
  154.0002  137.4825  191.4479 C   0  0  0  0  0  0  0  0  0  0  0  0
  154.8556  138.3657  190.7998 C   0  0  0  0  0  0  0  0  0  0  0  0
  154.7252  138.5888  189.4261 C   0  0  0  0  0  0  0  0  0  0  0  0
  151.4466  135.4612  183.9880 C   0  0  0  0  0  0  0  0  0  0  0  0
  150.7246  134.3977  184.1532 O   0  0  0  0  0  0  0  0  0  0  0  0
  150.7883  136.6503  184.3080 N   0  0  0  0  0  0  0  0  0  0  0  0
  151.2066  137.5937  184.2313 H   0  0  0  0  0  0  0  0  0  0  0  0
  149.3921  136.6578  184.8140 C   0  0  0  0  0  0  0  0  0  0  0  0
  148.5154  137.1211  183.7433 C   0  0  0  0  0  0  0  0  0  0  0  0
  147.4707  137.7655  184.1208 O   0  0  0  0  0  0  0  0  0  0  0  0
  148.7274  136.9306  182.3538 N   0  0  0  0  0  0  0  0  0  0  0  0
  149.6504  136.4172  182.1387 H   0  0  0  0  0  0  0  0  0  0  0  0
  147.9815  137.3265  181.2428 C   0  0  0  0  0  0  0  0  0  0  0  0
  148.1189  136.3950  180.0760 C   0  0  0  0  0  0  0  0  0  0  0  0
  149.0079  135.3489  180.1673 O   0  0  0  0  0  0  0  0  0  0  0  0
  147.4435  136.5730  179.0626 O   0  0  0  0  0  0  0  0  0  0  0  0
  149.0443  134.6314  179.4400 H   0  0  0  0  0  0  0  0  0  0  0  0
  148.1516  138.7033  180.7161 C   0  0  0  0  0  0  0  0  0  0  0  0
  149.5439  139.1572  180.6872 C   0  0  0  0  0  0  0  0  0  0  0  0
  150.0437  139.4951  179.4183 C   0  0  0  0  0  0  0  0  0  0  0  0
  151.3531  139.8731  179.2508 C   0  0  0  0  0  0  0  0  0  0  0  0
  152.2424  139.9393  180.3198 C   0  0  0  0  0  0  0  0  0  0  0  0
  151.7421  139.6079  181.5477 C   0  0  0  0  0  0  0  0  0  0  0  0
  150.4269  139.2273  181.7242 C   0  0  0  0  0  0  0  0  0  0  0  0
  149.3460  137.3246  186.1302 C   0  0  0  0  0  0  0  0  0  0  0  0
  148.9655  136.5361  187.3061 C   0  0  0  0  0  0  0  0  0  0  0  0
  147.6894  136.4962  187.8559 C   0  0  0  0  0  0  0  0  0  0  0  0
  147.3791  135.7338  188.9590 C   0  0  0  0  0  0  0  0  0  0  0  0
  148.3240  134.9608  189.5858 C   0  0  0  0  0  0  0  0  0  0  0  0
  149.5929  134.9805  189.0665 C   0  0  0  0  0  0  0  0  0  0  0  0
  149.9167  135.7357  187.9681 C   0  0  0  0  0  0  0  0  0  0  0  0
  153.4962  133.9757  183.6592 C   0  0  0  0  0  0  0  0  0  0  0  0
  154.5092  133.6512  182.6591 C   0  0  0  0  0  0  0  0  0  0  0  0
  154.3870  134.0675  181.3429 C   0  0  0  0  0  0  0  0  0  0  0  0
  155.3575  133.8333  180.3932 C   0  0  0  0  0  0  0  0  0  0  0  0
  156.5170  133.1576  180.7253 C   0  0  0  0  0  0  0  0  0  0  0  0
  156.6533  132.7365  182.0315 C   0  0  0  0  0  0  0  0  0  0  0  0
  155.6731  132.9809  182.9638 C   0  0  0  0  0  0  0  0  0  0  0  0
 17 18  1  0  0  0
 18 19  2  0  0  0
 18 20  2  0  0  0
 18 11  1  0  0  0
 11 12  2  0  0  0
 12 13  1  0  0  0
 13 14  2  0  0  0
 14 15  1  0  0  0
 15 16  2  0  0  0
 14  7  1  0  0  0
  7  8  2  0  0  0
  7  9  1  0  0  0
  9  6  1  0  0  0
  6 23  1  0  0  0
 23 24  1  0  0  0
 24 25  2  0  0  0
 25 26  1  0  0  0
 26 27  2  0  0  0
 27 28  1  0  0  0
 28 29  2  0  0  0
  6  2  1  0  0  0
  2  3  2  0  0  0
  2  4  1  0  0  0
  4  1  1  0  0  0
  1 58  1  0  0  0
 58 59  1  0  0  0
 59 60  2  0  0  0
 60 61  1  0  0  0
 61 62  2  0  0  0
 62 63  1  0  0  0
 63 64  2  0  0  0
  1 30  1  0  0  0
 30 31  2  0  0  0
 30 32  1  0  0  0
 32 34  1  0  0  0
 34 51  1  0  0  0
 51 52  1  0  0  0
 52 53  2  0  0  0
 53 54  1  0  0  0
 54 55  2  0  0  0
 55 56  1  0  0  0
 56 57  2  0  0  0
 34 35  1  0  0  0
 35 36  2  0  0  0
 35 37  1  0  0  0
 37 39  1  0  0  0
 39 44  1  0  0  0
 44 45  1  0  0  0
 45 46  2  0  0  0
 46 47  1  0  0  0
 47 48  2  0  0  0
 48 49  1  0  0  0
 49 50  2  0  0  0
 39 40  1  0  0  0
 40 41  1  0  0  0
 40 42  2  0  0  0
 16 11  1  0  0  0
 29 24  1  0  0  0
 64 59  1  0  0  0
 57 52  1  0  0  0
 50 45  1  0  0  0
 17 21  1  0  0  0
 17 22  1  0  0  0
  9 10  1  0  0  0
  4  5  1  0  0  0
 32 33  1  0  0  0
 37 38  1  0  0  0
 41 43  1  0  0  0
M  END
> <minimizedAffinity>
-8.71143

> <CNNscore>
0.2566024363

> <CNNaffinity>
6.9144339561

> <CNN_VS>
1.7742606401

> <CNNaffinity_variance>
0.8273302317

$$$$
[H]OC(=O)[C@@]([H])(N([H])C(=O)[C@@]([H])(N([H])C(=O)[C@@]([H])(N([H])C(=O)[C@@]([H])(N([H])C(=O)c1c([H])c([H])c(S(=O)(=O)N([H])[H])c([H])c1[H])C([H])([H])c1c([H])c([H])c([H])c([H])c1[H])C([H])([H])c1c([H])c([H])c([H])c([H])c1[H])C([H])([H])c1c([H])c([H])c([H])c([H])c1[H])C([H])([H])c1c([H])c([H])c([H])c([H])c1[H]


 64 68  0  0  0  0  0  0  0  0999 V2000
  154.3060  137.5296  186.3507 C   0  0  0  0  0  0  0  0  0  0  0  0
  154.6924  139.1265  184.4320 C   0  0  0  0  0  0  0  0  0  0  0  0
  155.8691  139.2425  184.8280 O   0  0  0  0  0  0  0  0  0  0  0  0
  153.8213  138.2815  185.1359 N   0  0  0  0  0  0  0  0  0  0  0  0
  152.8433  138.1792  184.8096 H   0  0  0  0  0  0  0  0  0  0  0  0
  154.2483  139.8722  183.2562 C   0  0  0  0  0  0  0  0  0  0  0  0
  152.4842  139.6518  181.5012 C   0  0  0  0  0  0  0  0  0  0  0  0
  153.2296  140.2424  180.6798 O   0  0  0  0  0  0  0  0  0  0  0  0
  152.9141  139.4249  182.8225 N   0  0  0  0  0  0  0  0  0  0  0  0
  152.3142  138.9459  183.5049 H   0  0  0  0  0  0  0  0  0  0  0  0
  148.6701  138.4311  180.1393 C   0  0  0  0  0  0  0  0  0  0  0  0
  149.5724  138.9508  179.2375 C   0  0  0  0  0  0  0  0  0  0  0  0
  150.8053  139.3365  179.6876 C   0  0  0  0  0  0  0  0  0  0  0  0
  151.1641  139.2204  181.0047 C   0  0  0  0  0  0  0  0  0  0  0  0
  150.2248  138.6897  181.8859 C   0  0  0  0  0  0  0  0  0  0  0  0
  148.9792  138.2939  181.4623 C   0  0  0  0  0  0  0  0  0  0  0  0
  147.0684  137.9003  177.8489 N   0  0  0  0  0  0  0  0  0  0  0  0
  147.0798  137.9414  179.5785 S   0  0  0  0  0  0  0  0  0  0  0  0
  146.0372  138.9266  180.0132 O   0  0  0  0  0  0  0  0  0  0  0  0
  146.7113  136.5999  180.1575 O   0  0  0  0  0  0  0  0  0  0  0  0
  146.1095  138.1392  177.4904 H   0  0  0  0  0  0  0  0  0  0  0  0
  147.6855  138.6907  177.5444 H   0  0  0  0  0  0  0  0  0  0  0  0
  154.2660  141.3668  183.4548 C   0  0  0  0  0  0  0  0  0  0  0  0
  155.3411  142.0563  182.7651 C   0  0  0  0  0  0  0  0  0  0  0  0
  156.3268  141.3672  182.1183 C   0  0  0  0  0  0  0  0  0  0  0  0
  157.3654  141.9750  181.4515 C   0  0  0  0  0  0  0  0  0  0  0  0
  157.4119  143.3725  181.4374 C   0  0  0  0  0  0  0  0  0  0  0  0
  156.4209  144.0973  182.0886 C   0  0  0  0  0  0  0  0  0  0  0  0
  155.3859  143.4321  182.7521 C   0  0  0  0  0  0  0  0  0  0  0  0
  153.8836  136.1833  186.1624 C   0  0  0  0  0  0  0  0  0  0  0  0
  154.4288  135.2821  186.9174 O   0  0  0  0  0  0  0  0  0  0  0  0
  152.9395  135.6783  185.2660 N   0  0  0  0  0  0  0  0  0  0  0  0
  152.4104  136.2497  184.5844 H   0  0  0  0  0  0  0  0  0  0  0  0
  152.5961  134.2341  185.2252 C   0  0  0  0  0  0  0  0  0  0  0  0
  152.0651  133.8488  186.5288 C   0  0  0  0  0  0  0  0  0  0  0  0
  152.3772  132.6692  186.9288 O   0  0  0  0  0  0  0  0  0  0  0  0
  151.2619  134.6588  187.3720 N   0  0  0  0  0  0  0  0  0  0  0  0
  151.0917  135.6429  186.9670 H   0  0  0  0  0  0  0  0  0  0  0  0
  150.7057  134.4164  188.6287 C   0  0  0  0  0  0  0  0  0  0  0  0
  149.5319  133.4846  188.5861 C   0  0  0  0  0  0  0  0  0  0  0  0
  149.7636  132.1375  188.4294 O   0  0  0  0  0  0  0  0  0  0  0  0
  148.3887  133.9283  188.6911 O   0  0  0  0  0  0  0  0  0  0  0  0
  148.9983  131.4645  188.5104 H   0  0  0  0  0  0  0  0  0  0  0  0
  150.3085  135.5698  189.4737 C   0  0  0  0  0  0  0  0  0  0  0  0
  151.1786  135.7805  190.6329 C   0  0  0  0  0  0  0  0  0  0  0  0
  150.5955  136.4700  191.7094 C   0  0  0  0  0  0  0  0  0  0  0  0
  151.3274  136.7856  192.8276 C   0  0  0  0  0  0  0  0  0  0  0  0
  152.6709  136.4417  192.9490 C   0  0  0  0  0  0  0  0  0  0  0  0
  153.2242  135.7715  191.8943 C   0  0  0  0  0  0  0  0  0  0  0  0
  152.4950  135.4503  190.7670 C   0  0  0  0  0  0  0  0  0  0  0  0
  153.7209  133.4738  184.6456 C   0  0  0  0  0  0  0  0  0  0  0  0
  153.9805  133.5874  183.2072 C   0  0  0  0  0  0  0  0  0  0  0  0
  155.2418  133.7077  182.6354 C   0  0  0  0  0  0  0  0  0  0  0  0
  155.4353  133.8049  181.2762 C   0  0  0  0  0  0  0  0  0  0  0  0
  154.3807  133.7884  180.3984 C   0  0  0  0  0  0  0  0  0  0  0  0
  153.1235  133.6717  180.9332 C   0  0  0  0  0  0  0  0  0  0  0  0
  152.9155  133.5744  182.2857 C   0  0  0  0  0  0  0  0  0  0  0  0
  153.8822  138.3400  187.5276 C   0  0  0  0  0  0  0  0  0  0  0  0
  154.7268  138.3009  188.7179 C   0  0  0  0  0  0  0  0  0  0  0  0
  154.2739  138.7641  189.9430 C   0  0  0  0  0  0  0  0  0  0  0  0
  155.0234  138.6795  191.0961 C   0  0  0  0  0  0  0  0  0  0  0  0
  156.2859  138.1165  191.0737 C   0  0  0  0  0  0  0  0  0  0  0  0
  156.7510  137.6510  189.8616 C   0  0  0  0  0  0  0  0  0  0  0  0
  155.9868  137.7446  188.7228 C   0  0  0  0  0  0  0  0  0  0  0  0
 17 18  1  0  0  0
 18 19  2  0  0  0
 18 20  2  0  0  0
 18 11  1  0  0  0
 11 12  2  0  0  0
 12 13  1  0  0  0
 13 14  2  0  0  0
 14 15  1  0  0  0
 15 16  2  0  0  0
 14  7  1  0  0  0
  7  8  2  0  0  0
  7  9  1  0  0  0
  9  6  1  0  0  0
  6 23  1  0  0  0
 23 24  1  0  0  0
 24 25  2  0  0  0
 25 26  1  0  0  0
 26 27  2  0  0  0
 27 28  1  0  0  0
 28 29  2  0  0  0
  6  2  1  0  0  0
  2  3  2  0  0  0
  2  4  1  0  0  0
  4  1  1  0  0  0
  1 58  1  0  0  0
 58 59  1  0  0  0
 59 60  2  0  0  0
 60 61  1  0  0  0
 61 62  2  0  0  0
 62 63  1  0  0  0
 63 64  2  0  0  0
  1 30  1  0  0  0
 30 31  2  0  0  0
 30 32  1  0  0  0
 32 34  1  0  0  0
 34 51  1  0  0  0
 51 52  1  0  0  0
 52 53  2  0  0  0
 53 54  1  0  0  0
 54 55  2  0  0  0
 55 56  1  0  0  0
 56 57  2  0  0  0
 34 35  1  0  0  0
 35 36  2  0  0  0
 35 37  1  0  0  0
 37 39  1  0  0  0
 39 44  1  0  0  0
 44 45  1  0  0  0
 45 46  2  0  0  0
 46 47  1  0  0  0
 47 48  2  0  0  0
 48 49  1  0  0  0
 49 50  2  0  0  0
 39 40  1  0  0  0
 40 41  1  0  0  0
 40 42  2  0  0  0
 16 11  1  0  0  0
 29 24  1  0  0  0
 64 59  1  0  0  0
 57 52  1  0  0  0
 50 45  1  0  0  0
 17 21  1  0  0  0
 17 22  1  0  0  0
  9 10  1  0  0  0
  4  5  1  0  0  0
 32 33  1  0  0  0
 37 38  1  0  0  0
 41 43  1  0  0  0
M  END
> <minimizedAffinity>
-8.86982

> <CNNscore>
0.2468635887

> <CNNaffinity>
6.6272039413

> <CNN_VS>
1.6360152960

> <CNNaffinity_variance>
0.8681433797

$$$$
[H]OC(=O)[C@@]([H])(N([H])C(=O)[C@@]([H])(N([H])C(=O)[C@@]([H])(N([H])C(=O)[C@@]([H])(N([H])C(=O)c1c([H])c([H])c(S(=O)(=O)N([H])[H])c([H])c1[H])C([H])([H])c1c([H])c([H])c([H])c([H])c1[H])C([H])([H])c1c([H])c([H])c([H])c([H])c1[H])C([H])([H])c1c([H])c([H])c([H])c([H])c1[H])C([H])([H])c1c([H])c([H])c([H])c([H])c1[H]


 64 68  0  0  0  0  0  0  0  0999 V2000
  155.2986  137.1927  187.0928 C   0  0  0  0  0  0  0  0  0  0  0  0
  155.5611  134.6922  186.8494 C   0  0  0  0  0  0  0  0  0  0  0  0
  154.3321  134.5930  187.0346 O   0  0  0  0  0  0  0  0  0  0  0  0
  156.1469  135.9670  186.8601 N   0  0  0  0  0  0  0  0  0  0  0  0
  157.1673  136.0555  186.7038 H   0  0  0  0  0  0  0  0  0  0  0  0
  156.3594  133.4872  186.6332 C   0  0  0  0  0  0  0  0  0  0  0  0
  158.0654  133.0435  188.4034 C   0  0  0  0  0  0  0  0  0  0  0  0
  158.9130  133.7013  187.7492 O   0  0  0  0  0  0  0  0  0  0  0  0
  156.7548  132.8809  187.9156 N   0  0  0  0  0  0  0  0  0  0  0  0
  156.0527  132.3437  188.4386 H   0  0  0  0  0  0  0  0  0  0  0  0
  159.2999  131.3931  192.0972 C   0  0  0  0  0  0  0  0  0  0  0  0
  160.0267  131.1171  190.9600 C   0  0  0  0  0  0  0  0  0  0  0  0
  159.6222  131.6612  189.7719 C   0  0  0  0  0  0  0  0  0  0  0  0
  158.5191  132.4688  189.6837 C   0  0  0  0  0  0  0  0  0  0  0  0
  157.8105  132.7251  190.8553 C   0  0  0  0  0  0  0  0  0  0  0  0
  158.1934  132.1926  192.0626 C   0  0  0  0  0  0  0  0  0  0  0  0
  161.4230  130.1089  193.4888 N   0  0  0  0  0  0  0  0  0  0  0  0
  159.8006  130.6934  193.6279 S   0  0  0  0  0  0  0  0  0  0  0  0
  158.9304  129.5275  193.9883 O   0  0  0  0  0  0  0  0  0  0  0  0
  159.6815  131.7117  194.7322 O   0  0  0  0  0  0  0  0  0  0  0  0
  161.5591  129.2750  194.1142 H   0  0  0  0  0  0  0  0  0  0  0  0
  161.5070  129.7414  192.5108 H   0  0  0  0  0  0  0  0  0  0  0  0
  155.6778  132.4686  185.7550 C   0  0  0  0  0  0  0  0  0  0  0  0
  156.0034  132.5713  184.3441 C   0  0  0  0  0  0  0  0  0  0  0  0
  155.2341  133.3080  183.4897 C   0  0  0  0  0  0  0  0  0  0  0  0
  155.5015  133.4355  182.1462 C   0  0  0  0  0  0  0  0  0  0  0  0
  156.6207  132.7742  181.6310 C   0  0  0  0  0  0  0  0  0  0  0  0
  157.4199  132.0175  182.4797 C   0  0  0  0  0  0  0  0  0  0  0  0
  157.1054  131.9196  183.8382 C   0  0  0  0  0  0  0  0  0  0  0  0
  155.2005  137.8373  185.8274 C   0  0  0  0  0  0  0  0  0  0  0  0
  154.5478  137.2151  184.8966 O   0  0  0  0  0  0  0  0  0  0  0  0
  155.7109  139.0758  185.4329 N   0  0  0  0  0  0  0  0  0  0  0  0
  156.2620  139.7061  186.0411 H   0  0  0  0  0  0  0  0  0  0  0  0
  155.4857  139.6136  184.0671 C   0  0  0  0  0  0  0  0  0  0  0  0
  156.5775  140.5267  183.7446 C   0  0  0  0  0  0  0  0  0  0  0  0
  157.1514  141.0828  184.7498 O   0  0  0  0  0  0  0  0  0  0  0  0
  157.0499  140.8311  182.4422 N   0  0  0  0  0  0  0  0  0  0  0  0
  156.5327  140.2829  181.6718 H   0  0  0  0  0  0  0  0  0  0  0  0
  158.0777  141.6673  182.0046 C   0  0  0  0  0  0  0  0  0  0  0  0
  157.9500  142.0561  180.5622 C   0  0  0  0  0  0  0  0  0  0  0  0
  157.4624  141.1298  179.6693 O   0  0  0  0  0  0  0  0  0  0  0  0
  158.2774  143.1849  180.1969 O   0  0  0  0  0  0  0  0  0  0  0  0
  157.2553  141.3955  178.7041 H   0  0  0  0  0  0  0  0  0  0  0  0
  159.4853  141.2463  182.2133 C   0  0  0  0  0  0  0  0  0  0  0  0
  160.1935  142.0328  183.2258 C   0  0  0  0  0  0  0  0  0  0  0  0
  161.3689  141.4514  183.7301 C   0  0  0  0  0  0  0  0  0  0  0  0
  162.0876  142.0604  184.7293 C   0  0  0  0  0  0  0  0  0  0  0  0
  161.6908  143.2725  185.2872 C   0  0  0  0  0  0  0  0  0  0  0  0
  160.5458  143.8259  184.7867 C   0  0  0  0  0  0  0  0  0  0  0  0
  159.8181  143.2200  183.7821 C   0  0  0  0  0  0  0  0  0  0  0  0
  154.0899  140.0774  183.9414 C   0  0  0  0  0  0  0  0  0  0  0  0
  153.3181  139.6760  182.7614 C   0  0  0  0  0  0  0  0  0  0  0  0
  152.8383  138.3928  182.5257 C   0  0  0  0  0  0  0  0  0  0  0  0
  152.1114  138.0657  181.4036 C   0  0  0  0  0  0  0  0  0  0  0  0
  151.8160  138.9998  180.4426 C   0  0  0  0  0  0  0  0  0  0  0  0
  152.2771  140.2749  180.6471 C   0  0  0  0  0  0  0  0  0  0  0  0
  153.0031  140.6151  181.7602 C   0  0  0  0  0  0  0  0  0  0  0  0
  155.8783  137.8685  188.2881 C   0  0  0  0  0  0  0  0  0  0  0  0
  155.5492  137.3233  189.6020 C   0  0  0  0  0  0  0  0  0  0  0  0
  154.2728  137.4294  190.1313 C   0  0  0  0  0  0  0  0  0  0  0  0
  153.9165  136.8676  191.3380 C   0  0  0  0  0  0  0  0  0  0  0  0
  154.8410  136.1608  192.0842 C   0  0  0  0  0  0  0  0  0  0  0  0
  156.1161  136.0466  191.5709 C   0  0  0  0  0  0  0  0  0  0  0  0
  156.4508  136.6143  190.3645 C   0  0  0  0  0  0  0  0  0  0  0  0
 17 18  1  0  0  0
 18 19  2  0  0  0
 18 20  2  0  0  0
 18 11  1  0  0  0
 11 12  2  0  0  0
 12 13  1  0  0  0
 13 14  2  0  0  0
 14 15  1  0  0  0
 15 16  2  0  0  0
 14  7  1  0  0  0
  7  8  2  0  0  0
  7  9  1  0  0  0
  9  6  1  0  0  0
  6 23  1  0  0  0
 23 24  1  0  0  0
 24 25  2  0  0  0
 25 26  1  0  0  0
 26 27  2  0  0  0
 27 28  1  0  0  0
 28 29  2  0  0  0
  6  2  1  0  0  0
  2  3  2  0  0  0
  2  4  1  0  0  0
  4  1  1  0  0  0
  1 58  1  0  0  0
 58 59  1  0  0  0
 59 60  2  0  0  0
 60 61  1  0  0  0
 61 62  2  0  0  0
 62 63  1  0  0  0
 63 64  2  0  0  0
  1 30  1  0  0  0
 30 31  2  0  0  0
 30 32  1  0  0  0
 32 34  1  0  0  0
 34 51  1  0  0  0
 51 52  1  0  0  0
 52 53  2  0  0  0
 53 54  1  0  0  0
 54 55  2  0  0  0
 55 56  1  0  0  0
 56 57  2  0  0  0
 34 35  1  0  0  0
 35 36  2  0  0  0
 35 37  1  0  0  0
 37 39  1  0  0  0
 39 44  1  0  0  0
 44 45  1  0  0  0
 45 46  2  0  0  0
 46 47  1  0  0  0
 47 48  2  0  0  0
 48 49  1  0  0  0
 49 50  2  0  0  0
 39 40  1  0  0  0
 40 41  1  0  0  0
 40 42  2  0  0  0
 16 11  1  0  0  0
 29 24  1  0  0  0
 64 59  1  0  0  0
 57 52  1  0  0  0
 50 45  1  0  0  0
 17 21  1  0  0  0
 17 22  1  0  0  0
  9 10  1  0  0  0
  4  5  1  0  0  0
 32 33  1  0  0  0
 37 38  1  0  0  0
 41 43  1  0  0  0
M  END
> <minimizedAffinity>
-9.45533

> <CNNscore>
0.2355480343

> <CNNaffinity>
7.1594438553

> <CNN_VS>
1.6863929033

> <CNNaffinity_variance>
0.2810480595

$$$$
[H]OC(=O)[C@@]([H])(N([H])C(=O)[C@@]([H])(N([H])C(=O)[C@@]([H])(N([H])C(=O)[C@@]([H])(N([H])C(=O)c1c([H])c([H])c(S(=O)(=O)N([H])[H])c([H])c1[H])C([H])([H])c1c([H])c([H])c([H])c([H])c1[H])C([H])([H])c1c([H])c([H])c([H])c([H])c1[H])C([H])([H])c1c([H])c([H])c([H])c([H])c1[H])C([H])([H])c1c([H])c([H])c([H])c([H])c1[H]


 64 68  0  0  0  0  0  0  0  0999 V2000
  153.5660  138.6379  185.6440 C   0  0  0  0  0  0  0  0  0  0  0  0
  154.7811  137.7404  187.6686 C   0  0  0  0  0  0  0  0  0  0  0  0
  155.1602  136.7875  186.9594 O   0  0  0  0  0  0  0  0  0  0  0  0
  153.9697  138.7307  187.0947 N   0  0  0  0  0  0  0  0  0  0  0  0
  153.6541  139.5263  187.6786 H   0  0  0  0  0  0  0  0  0  0  0  0
  155.1818  137.8011  189.0728 C   0  0  0  0  0  0  0  0  0  0  0  0
  153.9454  137.4125  191.2084 C   0  0  0  0  0  0  0  0  0  0  0  0
  154.4035  138.4887  191.6677 O   0  0  0  0  0  0  0  0  0  0  0  0
  154.2869  136.9857  189.9110 N   0  0  0  0  0  0  0  0  0  0  0  0
  153.9218  136.1071  189.5240 H   0  0  0  0  0  0  0  0  0  0  0  0
  151.4254  135.1995  193.7860 C   0  0  0  0  0  0  0  0  0  0  0  0
  150.8963  136.2449  193.0616 C   0  0  0  0  0  0  0  0  0  0  0  0
  151.7189  136.9498  192.2263 C   0  0  0  0  0  0  0  0  0  0  0  0
  153.0478  136.6452  192.0922 C   0  0  0  0  0  0  0  0  0  0  0  0
  153.5456  135.5811  192.8407 C   0  0  0  0  0  0  0  0  0  0  0  0
  152.7431  134.8553  193.6875 C   0  0  0  0  0  0  0  0  0  0  0  0
  148.8774  133.9697  194.0841 N   0  0  0  0  0  0  0  0  0  0  0  0
  150.3843  134.2920  194.8705 S   0  0  0  0  0  0  0  0  0  0  0  0
  150.0871  135.0845  196.1076 O   0  0  0  0  0  0  0  0  0  0  0  0
  151.0602  133.0145  195.2970 O   0  0  0  0  0  0  0  0  0  0  0  0
  148.1027  133.9334  194.7936 H   0  0  0  0  0  0  0  0  0  0  0  0
  148.6796  134.8152  193.4972 H   0  0  0  0  0  0  0  0  0  0  0  0
  156.6203  137.4113  189.3009 C   0  0  0  0  0  0  0  0  0  0  0  0
  156.8162  136.0322  189.7094 C   0  0  0  0  0  0  0  0  0  0  0  0
  156.7879  135.6709  191.0259 C   0  0  0  0  0  0  0  0  0  0  0  0
  156.9680  134.3786  191.4622 C   0  0  0  0  0  0  0  0  0  0  0  0
  157.1922  133.3847  190.5046 C   0  0  0  0  0  0  0  0  0  0  0  0
  157.2260  133.7264  189.1578 C   0  0  0  0  0  0  0  0  0  0  0  0
  157.0370  135.0547  188.7656 C   0  0  0  0  0  0  0  0  0  0  0  0
  152.6310  137.5668  185.5738 C   0  0  0  0  0  0  0  0  0  0  0  0
  152.8188  136.6785  184.6490 O   0  0  0  0  0  0  0  0  0  0  0  0
  151.5168  137.3219  186.3792 N   0  0  0  0  0  0  0  0  0  0  0  0
  151.2112  137.9272  187.1609 H   0  0  0  0  0  0  0  0  0  0  0  0
  150.6586  136.1261  186.1818 C   0  0  0  0  0  0  0  0  0  0  0  0
  149.5729  136.4818  185.2739 C   0  0  0  0  0  0  0  0  0  0  0  0
  148.3863  136.3282  185.7402 O   0  0  0  0  0  0  0  0  0  0  0  0
  149.7218  136.9823  183.9550 N   0  0  0  0  0  0  0  0  0  0  0  0
  150.7535  137.1152  183.6729 H   0  0  0  0  0  0  0  0  0  0  0  0
  148.7787  137.3649  183.0003 C   0  0  0  0  0  0  0  0  0  0  0  0
  148.7204  136.4388  181.8226 C   0  0  0  0  0  0  0  0  0  0  0  0
  147.6590  136.5422  180.9533 O   0  0  0  0  0  0  0  0  0  0  0  0
  149.6110  135.6076  181.6476 O   0  0  0  0  0  0  0  0  0  0  0  0
  147.6454  136.0077  180.0820 H   0  0  0  0  0  0  0  0  0  0  0  0
  148.8227  138.7460  182.4594 C   0  0  0  0  0  0  0  0  0  0  0  0
  150.0082  139.0244  181.6456 C   0  0  0  0  0  0  0  0  0  0  0  0
  149.7530  139.4553  180.3327 C   0  0  0  0  0  0  0  0  0  0  0  0
  150.7802  139.6868  179.4514 C   0  0  0  0  0  0  0  0  0  0  0  0
  152.1130  139.5074  179.8112 C   0  0  0  0  0  0  0  0  0  0  0  0
  152.3457  139.0882  181.0910 C   0  0  0  0  0  0  0  0  0  0  0  0
  151.3185  138.8537  181.9830 C   0  0  0  0  0  0  0  0  0  0  0  0
  150.3422  135.5221  187.4910 C   0  0  0  0  0  0  0  0  0  0  0  0
  151.3989  134.8022  188.2082 C   0  0  0  0  0  0  0  0  0  0  0  0
  151.3104  134.3687  189.5260 C   0  0  0  0  0  0  0  0  0  0  0  0
  152.3290  133.6895  190.1549 C   0  0  0  0  0  0  0  0  0  0  0  0
  153.5038  133.3986  189.5080 C   0  0  0  0  0  0  0  0  0  0  0  0
  153.6209  133.8146  188.2067 C   0  0  0  0  0  0  0  0  0  0  0  0
  152.6143  134.4928  187.5674 C   0  0  0  0  0  0  0  0  0  0  0  0
  154.8375  138.6373  184.8664 C   0  0  0  0  0  0  0  0  0  0  0  0
  155.1201  139.7983  184.0272 C   0  0  0  0  0  0  0  0  0  0  0  0
  156.3925  140.0447  183.5362 C   0  0  0  0  0  0  0  0  0  0  0  0
  156.6750  141.0941  182.6891 C   0  0  0  0  0  0  0  0  0  0  0  0
  155.6762  141.9618  182.2881 C   0  0  0  0  0  0  0  0  0  0  0  0
  154.4043  141.7299  182.7686 C   0  0  0  0  0  0  0  0  0  0  0  0
  154.1436  140.6767  183.6125 C   0  0  0  0  0  0  0  0  0  0  0  0
 17 18  1  0  0  0
 18 19  2  0  0  0
 18 20  2  0  0  0
 18 11  1  0  0  0
 11 12  2  0  0  0
 12 13  1  0  0  0
 13 14  2  0  0  0
 14 15  1  0  0  0
 15 16  2  0  0  0
 14  7  1  0  0  0
  7  8  2  0  0  0
  7  9  1  0  0  0
  9  6  1  0  0  0
  6 23  1  0  0  0
 23 24  1  0  0  0
 24 25  2  0  0  0
 25 26  1  0  0  0
 26 27  2  0  0  0
 27 28  1  0  0  0
 28 29  2  0  0  0
  6  2  1  0  0  0
  2  3  2  0  0  0
  2  4  1  0  0  0
  4  1  1  0  0  0
  1 58  1  0  0  0
 58 59  1  0  0  0
 59 60  2  0  0  0
 60 61  1  0  0  0
 61 62  2  0  0  0
 62 63  1  0  0  0
 63 64  2  0  0  0
  1 30  1  0  0  0
 30 31  2  0  0  0
 30 32  1  0  0  0
 32 34  1  0  0  0
 34 51  1  0  0  0
 51 52  1  0  0  0
 52 53  2  0  0  0
 53 54  1  0  0  0
 54 55  2  0  0  0
 55 56  1  0  0  0
 56 57  2  0  0  0
 34 35  1  0  0  0
 35 36  2  0  0  0
 35 37  1  0  0  0
 37 39  1  0  0  0
 39 44  1  0  0  0
 44 45  1  0  0  0
 45 46  2  0  0  0
 46 47  1  0  0  0
 47 48  2  0  0  0
 48 49  1  0  0  0
 49 50  2  0  0  0
 39 40  1  0  0  0
 40 41  1  0  0  0
 40 42  2  0  0  0
 16 11  1  0  0  0
 29 24  1  0  0  0
 64 59  1  0  0  0
 57 52  1  0  0  0
 50 45  1  0  0  0
 17 21  1  0  0  0
 17 22  1  0  0  0
  9 10  1  0  0  0
  4  5  1  0  0  0
 32 33  1  0  0  0
 37 38  1  0  0  0
 41 43  1  0  0  0
M  END
> <minimizedAffinity>
-8.09973

> <CNNscore>
0.2097780406

> <CNNaffinity>
6.5160498619

> <CNN_VS>
1.3669241667

> <CNNaffinity_variance>
0.9522296786

$$$$
[H]OC(=O)[C@@]([H])(N([H])C(=O)[C@@]([H])(N([H])C(=O)[C@@]([H])(N([H])C(=O)[C@@]([H])(N([H])C(=O)c1c([H])c([H])c(S(=O)(=O)N([H])[H])c([H])c1[H])C([H])([H])c1c([H])c([H])c([H])c([H])c1[H])C([H])([H])c1c([H])c([H])c([H])c([H])c1[H])C([H])([H])c1c([H])c([H])c([H])c([H])c1[H])C([H])([H])c1c([H])c([H])c([H])c([H])c1[H]


 64 68  0  0  0  0  0  0  0  0999 V2000
  154.6466  138.3156  186.2850 C   0  0  0  0  0  0  0  0  0  0  0  0
  152.3583  137.3137  186.6602 C   0  0  0  0  0  0  0  0  0  0  0  0
  151.9811  138.4385  187.0438 O   0  0  0  0  0  0  0  0  0  0  0  0
  153.6912  137.1484  186.2545 N   0  0  0  0  0  0  0  0  0  0  0  0
  154.0092  136.2166  185.9320 H   0  0  0  0  0  0  0  0  0  0  0  0
  151.4128  136.1993  186.6475 C   0  0  0  0  0  0  0  0  0  0  0  0
  152.1923  135.2409  188.8188 C   0  0  0  0  0  0  0  0  0  0  0  0
  152.0154  136.3551  189.3724 O   0  0  0  0  0  0  0  0  0  0  0  0
  151.9180  135.0716  187.4484 N   0  0  0  0  0  0  0  0  0  0  0  0
  152.0605  134.1673  186.9826 H   0  0  0  0  0  0  0  0  0  0  0  0
  153.6513  132.1561  191.3183 C   0  0  0  0  0  0  0  0  0  0  0  0
  152.4824  131.9581  190.6169 C   0  0  0  0  0  0  0  0  0  0  0  0
  152.0230  132.9599  189.8066 C   0  0  0  0  0  0  0  0  0  0  0  0
  152.6912  134.1487  189.6753 C   0  0  0  0  0  0  0  0  0  0  0  0
  153.8696  134.3111  190.4001 C   0  0  0  0  0  0  0  0  0  0  0  0
  154.3549  133.3224  191.2214 C   0  0  0  0  0  0  0  0  0  0  0  0
  153.5504  131.0644  193.9435 N   0  0  0  0  0  0  0  0  0  0  0  0
  154.2480  130.8834  192.3707 S   0  0  0  0  0  0  0  0  0  0  0  0
  155.7362  130.9759  192.5240 O   0  0  0  0  0  0  0  0  0  0  0  0
  153.9315  129.5308  191.7870 O   0  0  0  0  0  0  0  0  0  0  0  0
  154.2216  130.7205  194.6757 H   0  0  0  0  0  0  0  0  0  0  0  0
  153.4720  132.0979  194.0995 H   0  0  0  0  0  0  0  0  0  0  0  0
  150.0265  136.5869  187.0961 C   0  0  0  0  0  0  0  0  0  0  0  0
  149.1966  137.1730  186.0593 C   0  0  0  0  0  0  0  0  0  0  0  0
  148.2818  138.1451  186.3470 C   0  0  0  0  0  0  0  0  0  0  0  0
  147.4734  138.7303  185.4001 C   0  0  0  0  0  0  0  0  0  0  0  0
  147.5968  138.3050  184.0738 C   0  0  0  0  0  0  0  0  0  0  0  0
  148.5203  137.3166  183.7548 C   0  0  0  0  0  0  0  0  0  0  0  0
  149.3190  136.7532  184.7540 C   0  0  0  0  0  0  0  0  0  0  0  0
  154.7261  138.7815  184.9422 C   0  0  0  0  0  0  0  0  0  0  0  0
  155.0023  137.9052  184.0283 O   0  0  0  0  0  0  0  0  0  0  0  0
  154.5387  140.0751  184.4510 N   0  0  0  0  0  0  0  0  0  0  0  0
  154.3181  140.9004  185.0351 H   0  0  0  0  0  0  0  0  0  0  0  0
  154.6305  140.3802  183.0005 C   0  0  0  0  0  0  0  0  0  0  0  0
  155.8269  141.1842  182.7726 C   0  0  0  0  0  0  0  0  0  0  0  0
  155.9889  142.1771  183.5707 O   0  0  0  0  0  0  0  0  0  0  0  0
  156.8056  140.9538  181.7720 N   0  0  0  0  0  0  0  0  0  0  0  0
  156.6014  140.0747  181.1828 H   0  0  0  0  0  0  0  0  0  0  0  0
  157.9840  141.6324  181.4591 C   0  0  0  0  0  0  0  0  0  0  0  0
  158.1248  141.9292  179.9961 C   0  0  0  0  0  0  0  0  0  0  0  0
  157.3041  141.2736  179.1075 O   0  0  0  0  0  0  0  0  0  0  0  0
  158.9610  142.7457  179.6107 O   0  0  0  0  0  0  0  0  0  0  0  0
  157.2937  141.5338  178.1189 H   0  0  0  0  0  0  0  0  0  0  0  0
  159.2802  141.0679  181.9098 C   0  0  0  0  0  0  0  0  0  0  0  0
  159.9122  141.8283  182.9903 C   0  0  0  0  0  0  0  0  0  0  0  0
  159.4782  143.1575  183.1285 C   0  0  0  0  0  0  0  0  0  0  0  0
  160.0404  143.9922  184.0627 C   0  0  0  0  0  0  0  0  0  0  0  0
  161.0591  143.5672  184.9111 C   0  0  0  0  0  0  0  0  0  0  0  0
  161.4707  142.2723  184.7651 C   0  0  0  0  0  0  0  0  0  0  0  0
  160.9102  141.4268  183.8286 C   0  0  0  0  0  0  0  0  0  0  0  0
  153.3248  140.8668  182.5132 C   0  0  0  0  0  0  0  0  0  0  0  0
  152.4507  139.9359  181.7929 C   0  0  0  0  0  0  0  0  0  0  0  0
  152.0289  138.7045  182.2809 C   0  0  0  0  0  0  0  0  0  0  0  0
  151.2012  137.8668  181.5684 C   0  0  0  0  0  0  0  0  0  0  0  0
  150.7403  138.2046  180.3207 C   0  0  0  0  0  0  0  0  0  0  0  0
  151.1405  139.4136  179.8122 C   0  0  0  0  0  0  0  0  0  0  0  0
  151.9654  140.2583  180.5107 C   0  0  0  0  0  0  0  0  0  0  0  0
  155.8440  137.8426  187.0360 C   0  0  0  0  0  0  0  0  0  0  0  0
  155.7654  137.8204  188.4938 C   0  0  0  0  0  0  0  0  0  0  0  0
  154.8084  138.5522  189.1788 C   0  0  0  0  0  0  0  0  0  0  0  0
  154.6680  138.4994  190.5486 C   0  0  0  0  0  0  0  0  0  0  0  0
  155.4968  137.6958  191.3092 C   0  0  0  0  0  0  0  0  0  0  0  0
  156.4547  136.9614  190.6420 C   0  0  0  0  0  0  0  0  0  0  0  0
  156.5776  137.0281  189.2745 C   0  0  0  0  0  0  0  0  0  0  0  0
 17 18  1  0  0  0
 18 19  2  0  0  0
 18 20  2  0  0  0
 18 11  1  0  0  0
 11 12  2  0  0  0
 12 13  1  0  0  0
 13 14  2  0  0  0
 14 15  1  0  0  0
 15 16  2  0  0  0
 14  7  1  0  0  0
  7  8  2  0  0  0
  7  9  1  0  0  0
  9  6  1  0  0  0
  6 23  1  0  0  0
 23 24  1  0  0  0
 24 25  2  0  0  0
 25 26  1  0  0  0
 26 27  2  0  0  0
 27 28  1  0  0  0
 28 29  2  0  0  0
  6  2  1  0  0  0
  2  3  2  0  0  0
  2  4  1  0  0  0
  4  1  1  0  0  0
  1 58  1  0  0  0
 58 59  1  0  0  0
 59 60  2  0  0  0
 60 61  1  0  0  0
 61 62  2  0  0  0
 62 63  1  0  0  0
 63 64  2  0  0  0
  1 30  1  0  0  0
 30 31  2  0  0  0
 30 32  1  0  0  0
 32 34  1  0  0  0
 34 51  1  0  0  0
 51 52  1  0  0  0
 52 53  2  0  0  0
 53 54  1  0  0  0
 54 55  2  0  0  0
 55 56  1  0  0  0
 56 57  2  0  0  0
 34 35  1  0  0  0
 35 36  2  0  0  0
 35 37  1  0  0  0
 37 39  1  0  0  0
 39 44  1  0  0  0
 44 45  1  0  0  0
 45 46  2  0  0  0
 46 47  1  0  0  0
 47 48  2  0  0  0
 48 49  1  0  0  0
 49 50  2  0  0  0
 39 40  1  0  0  0
 40 41  1  0  0  0
 40 42  2  0  0  0
 16 11  1  0  0  0
 29 24  1  0  0  0
 64 59  1  0  0  0
 57 52  1  0  0  0
 50 45  1  0  0  0
 17 21  1  0  0  0
 17 22  1  0  0  0
  9 10  1  0  0  0
  4  5  1  0  0  0
 32 33  1  0  0  0
 37 38  1  0  0  0
 41 43  1  0  0  0
M  END
> <minimizedAffinity>
-9.37522

> <CNNscore>
0.2084160149

> <CNNaffinity>
7.0349464417

> <CNN_VS>
1.4661954641

> <CNNaffinity_variance>
0.4280675352

$$$$
[H]OC(=O)[C@@]([H])(N([H])C(=O)[C@@]([H])(N([H])C(=O)[C@@]([H])(N([H])C(=O)[C@@]([H])(N([H])C(=O)c1c([H])c([H])c(S(=O)(=O)N([H])[H])c([H])c1[H])C([H])([H])c1c([H])c([H])c([H])c([H])c1[H])C([H])([H])c1c([H])c([H])c([H])c([H])c1[H])C([H])([H])c1c([H])c([H])c([H])c([H])c1[H])C([H])([H])c1c([H])c([H])c([H])c([H])c1[H]


 64 68  0  0  0  0  0  0  0  0999 V2000
  154.3894  137.6260  186.5053 C   0  0  0  0  0  0  0  0  0  0  0  0
  154.8025  139.1665  184.5465 C   0  0  0  0  0  0  0  0  0  0  0  0
  155.9897  139.2444  184.9194 O   0  0  0  0  0  0  0  0  0  0  0  0
  153.9121  138.3711  185.2834 N   0  0  0  0  0  0  0  0  0  0  0  0
  152.9251  138.3004  184.9764 H   0  0  0  0  0  0  0  0  0  0  0  0
  154.3663  139.9047  183.3630 C   0  0  0  0  0  0  0  0  0  0  0  0
  152.5864  139.7272  181.6191 C   0  0  0  0  0  0  0  0  0  0  0  0
  153.3179  140.3523  180.8109 O   0  0  0  0  0  0  0  0  0  0  0  0
  153.0318  139.4598  182.9276 N   0  0  0  0  0  0  0  0  0  0  0  0
  152.4433  138.9522  183.5993 H   0  0  0  0  0  0  0  0  0  0  0  0
  148.8270  138.4844  180.1308 C   0  0  0  0  0  0  0  0  0  0  0  0
  149.0813  138.3894  181.4813 C   0  0  0  0  0  0  0  0  0  0  0  0
  150.2980  138.8001  181.9527 C   0  0  0  0  0  0  0  0  0  0  0  0
  151.2652  139.3004  181.1214 C   0  0  0  0  0  0  0  0  0  0  0  0
  150.9705  139.3813  179.7623 C   0  0  0  0  0  0  0  0  0  0  0  0
  149.7572  138.9765  179.2606 C   0  0  0  0  0  0  0  0  0  0  0  0
  147.0239  136.2928  179.9334 N   0  0  0  0  0  0  0  0  0  0  0  0
  147.2736  137.9514  179.5093 S   0  0  0  0  0  0  0  0  0  0  0  0
  147.2403  138.0445  178.0137 O   0  0  0  0  0  0  0  0  0  0  0  0
  146.1683  138.8232  180.0467 O   0  0  0  0  0  0  0  0  0  0  0  0
  146.4472  135.8163  179.1950 H   0  0  0  0  0  0  0  0  0  0  0  0
  147.9695  135.8437  179.8824 H   0  0  0  0  0  0  0  0  0  0  0  0
  154.3898  141.4007  183.5496 C   0  0  0  0  0  0  0  0  0  0  0  0
  155.4424  142.0850  182.8212 C   0  0  0  0  0  0  0  0  0  0  0  0
  155.4766  143.4474  182.7356 C   0  0  0  0  0  0  0  0  0  0  0  0
  156.4523  144.1409  182.0576 C   0  0  0  0  0  0  0  0  0  0  0  0
  157.4609  143.4093  181.4229 C   0  0  0  0  0  0  0  0  0  0  0  0
  157.4487  142.0214  181.4946 C   0  0  0  0  0  0  0  0  0  0  0  0
  156.4347  141.3636  182.1967 C   0  0  0  0  0  0  0  0  0  0  0  0
  153.7891  136.3375  186.4276 C   0  0  0  0  0  0  0  0  0  0  0  0
  153.6982  135.7981  185.2528 O   0  0  0  0  0  0  0  0  0  0  0  0
  153.2770  135.5457  187.4576 N   0  0  0  0  0  0  0  0  0  0  0  0
  153.2600  135.8174  188.4560 H   0  0  0  0  0  0  0  0  0  0  0  0
  152.7083  134.1987  187.1977 C   0  0  0  0  0  0  0  0  0  0  0  0
  151.4053  134.1141  187.8494 C   0  0  0  0  0  0  0  0  0  0  0  0
  150.6859  133.1018  187.5229 O   0  0  0  0  0  0  0  0  0  0  0  0
  150.8895  135.0324  188.7996 N   0  0  0  0  0  0  0  0  0  0  0  0
  151.5841  135.8213  189.0377 H   0  0  0  0  0  0  0  0  0  0  0  0
  149.6799  135.0601  189.4949 C   0  0  0  0  0  0  0  0  0  0  0  0
  148.5368  135.5747  188.6725 C   0  0  0  0  0  0  0  0  0  0  0  0
  148.8090  136.4056  187.6103 O   0  0  0  0  0  0  0  0  0  0  0  0
  147.3824  135.2521  188.9518 O   0  0  0  0  0  0  0  0  0  0  0  0
  148.0684  136.6819  186.9620 H   0  0  0  0  0  0  0  0  0  0  0  0
  149.6180  135.7594  190.8023 C   0  0  0  0  0  0  0  0  0  0  0  0
  150.8297  135.6086  191.6111 C   0  0  0  0  0  0  0  0  0  0  0  0
  150.8974  134.4388  192.3866 C   0  0  0  0  0  0  0  0  0  0  0  0
  151.9526  134.2125  193.2357 C   0  0  0  0  0  0  0  0  0  0  0  0
  152.9976  135.1224  193.3696 C   0  0  0  0  0  0  0  0  0  0  0  0
  152.9180  136.2552  192.6093 C   0  0  0  0  0  0  0  0  0  0  0  0
  151.8608  136.4897  191.7531 C   0  0  0  0  0  0  0  0  0  0  0  0
  153.7281  133.1684  187.4764 C   0  0  0  0  0  0  0  0  0  0  0  0
  154.6800  133.3970  188.5678 C   0  0  0  0  0  0  0  0  0  0  0  0
  154.3311  133.5670  189.9026 C   0  0  0  0  0  0  0  0  0  0  0  0
  155.2635  133.7727  190.8939 C   0  0  0  0  0  0  0  0  0  0  0  0
  156.6066  133.8222  190.6165 C   0  0  0  0  0  0  0  0  0  0  0  0
  156.9814  133.6587  189.3077 C   0  0  0  0  0  0  0  0  0  0  0  0
  156.0633  133.4534  188.3093 C   0  0  0  0  0  0  0  0  0  0  0  0
  154.1600  138.5432  187.6574 C   0  0  0  0  0  0  0  0  0  0  0  0
  154.9374  138.3145  188.8719 C   0  0  0  0  0  0  0  0  0  0  0  0
  154.5062  138.7758  190.1056 C   0  0  0  0  0  0  0  0  0  0  0  0
  155.1845  138.5184  191.2771 C   0  0  0  0  0  0  0  0  0  0  0  0
  156.3488  137.7730  191.2655 C   0  0  0  0  0  0  0  0  0  0  0  0
  156.7911  137.3069  190.0452 C   0  0  0  0  0  0  0  0  0  0  0  0
  156.0991  137.5747  188.8880 C   0  0  0  0  0  0  0  0  0  0  0  0
 17 18  1  0  0  0
 18 19  2  0  0  0
 18 20  2  0  0  0
 18 11  1  0  0  0
 11 12  2  0  0  0
 12 13  1  0  0  0
 13 14  2  0  0  0
 14 15  1  0  0  0
 15 16  2  0  0  0
 14  7  1  0  0  0
  7  8  2  0  0  0
  7  9  1  0  0  0
  9  6  1  0  0  0
  6 23  1  0  0  0
 23 24  1  0  0  0
 24 25  2  0  0  0
 25 26  1  0  0  0
 26 27  2  0  0  0
 27 28  1  0  0  0
 28 29  2  0  0  0
  6  2  1  0  0  0
  2  3  2  0  0  0
  2  4  1  0  0  0
  4  1  1  0  0  0
  1 58  1  0  0  0
 58 59  1  0  0  0
 59 60  2  0  0  0
 60 61  1  0  0  0
 61 62  2  0  0  0
 62 63  1  0  0  0
 63 64  2  0  0  0
  1 30  1  0  0  0
 30 31  2  0  0  0
 30 32  1  0  0  0
 32 34  1  0  0  0
 34 51  1  0  0  0
 51 52  1  0  0  0
 52 53  2  0  0  0
 53 54  1  0  0  0
 54 55  2  0  0  0
 55 56  1  0  0  0
 56 57  2  0  0  0
 34 35  1  0  0  0
 35 36  2  0  0  0
 35 37  1  0  0  0
 37 39  1  0  0  0
 39 44  1  0  0  0
 44 45  1  0  0  0
 45 46  2  0  0  0
 46 47  1  0  0  0
 47 48  2  0  0  0
 48 49  1  0  0  0
 49 50  2  0  0  0
 39 40  1  0  0  0
 40 41  1  0  0  0
 40 42  2  0  0  0
 16 11  1  0  0  0
 29 24  1  0  0  0
 64 59  1  0  0  0
 57 52  1  0  0  0
 50 45  1  0  0  0
 17 21  1  0  0  0
 17 22  1  0  0  0
  9 10  1  0  0  0
  4  5  1  0  0  0
 32 33  1  0  0  0
 37 38  1  0  0  0
 41 43  1  0  0  0
M  END
> <minimizedAffinity>
-8.53004

> <CNNscore>
0.2013014406

> <CNNaffinity>
6.5298171043

> <CNN_VS>
1.3144615889

> <CNNaffinity_variance>
0.6232652664

$$$$
[H]OC(=O)[C@@]([H])(N([H])C(=O)[C@@]([H])(N([H])C(=O)[C@@]([H])(N([H])C(=O)[C@@]([H])(N([H])C(=O)c1c([H])c([H])c(S(=O)(=O)N([H])[H])c([H])c1[H])C([H])([H])c1c([H])c([H])c([H])c([H])c1[H])C([H])([H])c1c([H])c([H])c([H])c([H])c1[H])C([H])([H])c1c([H])c([H])c([H])c([H])c1[H])C([H])([H])c1c([H])c([H])c([H])c([H])c1[H]


 64 68  0  0  0  0  0  0  0  0999 V2000
  154.6338  137.6605  186.3295 C   0  0  0  0  0  0  0  0  0  0  0  0
  154.9620  139.2592  184.4015 C   0  0  0  0  0  0  0  0  0  0  0  0
  156.1581  139.3492  184.7420 O   0  0  0  0  0  0  0  0  0  0  0  0
  154.1079  138.4284  185.1422 N   0  0  0  0  0  0  0  0  0  0  0  0
  153.1137  138.3475  184.8619 H   0  0  0  0  0  0  0  0  0  0  0  0
  154.4783  140.0199  183.2511 C   0  0  0  0  0  0  0  0  0  0  0  0
  152.6514  139.8372  181.5571 C   0  0  0  0  0  0  0  0  0  0  0  0
  153.3609  140.4591  180.7271 O   0  0  0  0  0  0  0  0  0  0  0  0
  153.1322  139.5742  182.8539 N   0  0  0  0  0  0  0  0  0  0  0  0
  152.5621  139.0693  183.5432 H   0  0  0  0  0  0  0  0  0  0  0  0
  148.7976  138.6288  180.3000 C   0  0  0  0  0  0  0  0  0  0  0  0
  149.6883  139.1142  179.3681 C   0  0  0  0  0  0  0  0  0  0  0  0
  150.9341  139.4962  179.7846 C   0  0  0  0  0  0  0  0  0  0  0  0
  151.3169  139.4094  181.0971 C   0  0  0  0  0  0  0  0  0  0  0  0
  150.3887  138.9131  182.0095 C   0  0  0  0  0  0  0  0  0  0  0  0
  149.1306  138.5218  181.6200 C   0  0  0  0  0  0  0  0  0  0  0  0
  146.8412  136.5658  180.3977 N   0  0  0  0  0  0  0  0  0  0  0  0
  147.1911  138.1444  179.7824 S   0  0  0  0  0  0  0  0  0  0  0  0
  147.1145  138.0729  178.2872 O   0  0  0  0  0  0  0  0  0  0  0  0
  146.1675  139.1485  180.2454 O   0  0  0  0  0  0  0  0  0  0  0  0
  146.2085  136.0534  179.7328 H   0  0  0  0  0  0  0  0  0  0  0  0
  147.7512  136.0462  180.3740 H   0  0  0  0  0  0  0  0  0  0  0  0
  154.4979  141.5115  183.4703 C   0  0  0  0  0  0  0  0  0  0  0  0
  155.5475  142.2146  182.7554 C   0  0  0  0  0  0  0  0  0  0  0  0
  155.6011  143.5788  182.7341 C   0  0  0  0  0  0  0  0  0  0  0  0
  156.5749  144.2897  182.0715 C   0  0  0  0  0  0  0  0  0  0  0  0
  157.5604  143.5748  181.3838 C   0  0  0  0  0  0  0  0  0  0  0  0
  157.5281  142.1854  181.3896 C   0  0  0  0  0  0  0  0  0  0  0  0
  156.5170  141.5095  182.0786 C   0  0  0  0  0  0  0  0  0  0  0  0
  154.3182  136.2960  186.0743 C   0  0  0  0  0  0  0  0  0  0  0  0
  153.7857  136.0177  184.9260 O   0  0  0  0  0  0  0  0  0  0  0  0
  154.5088  135.1838  186.8968 N   0  0  0  0  0  0  0  0  0  0  0  0
  154.9146  135.2178  187.8482 H   0  0  0  0  0  0  0  0  0  0  0  0
  154.1453  133.8138  186.4537 C   0  0  0  0  0  0  0  0  0  0  0  0
  152.7945  133.5204  186.9216 C   0  0  0  0  0  0  0  0  0  0  0  0
  152.2298  132.5003  186.3835 O   0  0  0  0  0  0  0  0  0  0  0  0
  152.0795  134.2478  187.9073 N   0  0  0  0  0  0  0  0  0  0  0  0
  152.6537  135.0574  188.3272 H   0  0  0  0  0  0  0  0  0  0  0  0
  150.8040  134.0679  188.4440 C   0  0  0  0  0  0  0  0  0  0  0  0
  150.7032  132.8701  189.3403 C   0  0  0  0  0  0  0  0  0  0  0  0
  151.7935  132.0391  189.4569 O   0  0  0  0  0  0  0  0  0  0  0  0
  149.6606  132.6463  189.9547 O   0  0  0  0  0  0  0  0  0  0  0  0
  151.7998  131.2814  190.1431 H   0  0  0  0  0  0  0  0  0  0  0  0
  149.6385  134.0177  187.5267 C   0  0  0  0  0  0  0  0  0  0  0  0
  149.2057  135.3327  187.0486 C   0  0  0  0  0  0  0  0  0  0  0  0
  148.2058  135.9556  187.8144 C   0  0  0  0  0  0  0  0  0  0  0  0
  147.6709  137.1616  187.4337 C   0  0  0  0  0  0  0  0  0  0  0  0
  148.0884  137.8207  186.2807 C   0  0  0  0  0  0  0  0  0  0  0  0
  149.0613  137.2029  185.5463 C   0  0  0  0  0  0  0  0  0  0  0  0
  149.6043  135.9907  185.9226 C   0  0  0  0  0  0  0  0  0  0  0  0
  155.2438  132.8815  186.7751 C   0  0  0  0  0  0  0  0  0  0  0  0
  156.3771  133.3740  187.5639 C   0  0  0  0  0  0  0  0  0  0  0  0
  157.5569  133.8782  187.0290 C   0  0  0  0  0  0  0  0  0  0  0  0
  158.5921  134.3357  187.8123 C   0  0  0  0  0  0  0  0  0  0  0  0
  158.5165  134.3193  189.1825 C   0  0  0  0  0  0  0  0  0  0  0  0
  157.3646  133.8262  189.7395 C   0  0  0  0  0  0  0  0  0  0  0  0
  156.3251  133.3666  188.9713 C   0  0  0  0  0  0  0  0  0  0  0  0
  154.1347  138.3814  187.5347 C   0  0  0  0  0  0  0  0  0  0  0  0
  154.8950  138.2401  188.7731 C   0  0  0  0  0  0  0  0  0  0  0  0
  154.3216  138.4967  190.0084 C   0  0  0  0  0  0  0  0  0  0  0  0
  154.9938  138.3087  191.1965 C   0  0  0  0  0  0  0  0  0  0  0  0
  156.2968  137.8466  191.2010 C   0  0  0  0  0  0  0  0  0  0  0  0
  156.8816  137.5869  189.9792 C   0  0  0  0  0  0  0  0  0  0  0  0
  156.1931  137.7807  188.8053 C   0  0  0  0  0  0  0  0  0  0  0  0
 17 18  1  0  0  0
 18 19  2  0  0  0
 18 20  2  0  0  0
 18 11  1  0  0  0
 11 12  2  0  0  0
 12 13  1  0  0  0
 13 14  2  0  0  0
 14 15  1  0  0  0
 15 16  2  0  0  0
 14  7  1  0  0  0
  7  8  2  0  0  0
  7  9  1  0  0  0
  9  6  1  0  0  0
  6 23  1  0  0  0
 23 24  1  0  0  0
 24 25  2  0  0  0
 25 26  1  0  0  0
 26 27  2  0  0  0
 27 28  1  0  0  0
 28 29  2  0  0  0
  6  2  1  0  0  0
  2  3  2  0  0  0
  2  4  1  0  0  0
  4  1  1  0  0  0
  1 58  1  0  0  0
 58 59  1  0  0  0
 59 60  2  0  0  0
 60 61  1  0  0  0
 61 62  2  0  0  0
 62 63  1  0  0  0
 63 64  2  0  0  0
  1 30  1  0  0  0
 30 31  2  0  0  0
 30 32  1  0  0  0
 32 34  1  0  0  0
 34 51  1  0  0  0
 51 52  1  0  0  0
 52 53  2  0  0  0
 53 54  1  0  0  0
 54 55  2  0  0  0
 55 56  1  0  0  0
 56 57  2  0  0  0
 34 35  1  0  0  0
 35 36  2  0  0  0
 35 37  1  0  0  0
 37 39  1  0  0  0
 39 44  1  0  0  0
 44 45  1  0  0  0
 45 46  2  0  0  0
 46 47  1  0  0  0
 47 48  2  0  0  0
 48 49  1  0  0  0
 49 50  2  0  0  0
 39 40  1  0  0  0
 40 41  1  0  0  0
 40 42  2  0  0  0
 16 11  1  0  0  0
 29 24  1  0  0  0
 64 59  1  0  0  0
 57 52  1  0  0  0
 50 45  1  0  0  0
 17 21  1  0  0  0
 17 22  1  0  0  0
  9 10  1  0  0  0
  4  5  1  0  0  0
 32 33  1  0  0  0
 37 38  1  0  0  0
 41 43  1  0  0  0
M  END
> <minimizedAffinity>
-8.27176

> <CNNscore>
0.1916514188

> <CNNaffinity>
6.6425399780

> <CNN_VS>
1.2730522156

> <CNNaffinity_variance>
0.7477871180

$$$$
[H]OC(=O)[C@@]([H])(N([H])C(=O)[C@@]([H])(N([H])C(=O)[C@@]([H])(N([H])C(=O)[C@@]([H])(N([H])C(=O)c1c([H])c([H])c(S(=O)(=O)N([H])[H])c([H])c1[H])C([H])([H])c1c([H])c([H])c([H])c([H])c1[H])C([H])([H])c1c([H])c([H])c([H])c([H])c1[H])C([H])([H])c1c([H])c([H])c([H])c([H])c1[H])C([H])([H])c1c([H])c([H])c([H])c([H])c1[H]


 64 68  0  0  0  0  0  0  0  0999 V2000
  153.1358  137.7284  187.1591 C   0  0  0  0  0  0  0  0  0  0  0  0
  154.1609  138.1304  184.8857 C   0  0  0  0  0  0  0  0  0  0  0  0
  154.8958  137.1452  185.0956 O   0  0  0  0  0  0  0  0  0  0  0  0
  153.2350  138.5065  185.8704 N   0  0  0  0  0  0  0  0  0  0  0  0
  152.6198  139.3226  185.7000 H   0  0  0  0  0  0  0  0  0  0  0  0
  154.2835  138.8698  183.6310 C   0  0  0  0  0  0  0  0  0  0  0  0
  152.3119  137.8422  182.4920 C   0  0  0  0  0  0  0  0  0  0  0  0
  152.8256  136.7041  182.6327 O   0  0  0  0  0  0  0  0  0  0  0  0
  152.9775  138.9905  182.9617 N   0  0  0  0  0  0  0  0  0  0  0  0
  152.5704  139.9270  182.8510 H   0  0  0  0  0  0  0  0  0  0  0  0
  148.5381  137.9306  180.5834 C   0  0  0  0  0  0  0  0  0  0  0  0
  148.9892  139.0570  181.2355 C   0  0  0  0  0  0  0  0  0  0  0  0
  150.2139  139.0194  181.8439 C   0  0  0  0  0  0  0  0  0  0  0  0
  150.9990  137.8969  181.8221 C   0  0  0  0  0  0  0  0  0  0  0  0
  150.5086  136.7783  181.1523 C   0  0  0  0  0  0  0  0  0  0  0  0
  149.2826  136.7871  180.5322 C   0  0  0  0  0  0  0  0  0  0  0  0
  147.1707  138.0660  178.0923 N   0  0  0  0  0  0  0  0  0  0  0  0
  146.9635  137.9602  179.8067 S   0  0  0  0  0  0  0  0  0  0  0  0
  146.1799  139.1617  180.2414 O   0  0  0  0  0  0  0  0  0  0  0  0
  146.1708  136.7357  180.1848 O   0  0  0  0  0  0  0  0  0  0  0  0
  146.3693  138.5958  177.6658 H   0  0  0  0  0  0  0  0  0  0  0  0
  148.0143  138.6709  177.9475 H   0  0  0  0  0  0  0  0  0  0  0  0
  154.9197  140.2267  183.7969 C   0  0  0  0  0  0  0  0  0  0  0  0
  156.3536  140.2543  183.5725 C   0  0  0  0  0  0  0  0  0  0  0  0
  157.2330  139.8996  184.5551 C   0  0  0  0  0  0  0  0  0  0  0  0
  158.5988  139.9095  184.3909 C   0  0  0  0  0  0  0  0  0  0  0  0
  159.1110  140.3047  183.1512 C   0  0  0  0  0  0  0  0  0  0  0  0
  158.2371  140.6710  182.1345 C   0  0  0  0  0  0  0  0  0  0  0  0
  156.8565  140.6437  182.3516 C   0  0  0  0  0  0  0  0  0  0  0  0
  151.8778  137.0640  187.1102 C   0  0  0  0  0  0  0  0  0  0  0  0
  151.0799  137.2352  188.1170 O   0  0  0  0  0  0  0  0  0  0  0  0
  151.3605  136.2395  186.1089 N   0  0  0  0  0  0  0  0  0  0  0  0
  151.8591  135.9877  185.2378 H   0  0  0  0  0  0  0  0  0  0  0  0
  150.0022  135.6476  186.2095 C   0  0  0  0  0  0  0  0  0  0  0  0
  150.1004  134.3877  186.9394 C   0  0  0  0  0  0  0  0  0  0  0  0
  150.1604  133.3294  186.2146 O   0  0  0  0  0  0  0  0  0  0  0  0
  150.1456  134.2451  188.3499 N   0  0  0  0  0  0  0  0  0  0  0  0
  150.1322  135.1913  188.8659 H   0  0  0  0  0  0  0  0  0  0  0  0
  150.2475  133.1143  189.1611 C   0  0  0  0  0  0  0  0  0  0  0  0
  148.9281  132.6583  189.7083 C   0  0  0  0  0  0  0  0  0  0  0  0
  147.8286  133.4683  189.5414 O   0  0  0  0  0  0  0  0  0  0  0  0
  148.8434  131.5783  190.2924 O   0  0  0  0  0  0  0  0  0  0  0  0
  146.8956  133.1395  189.7992 H   0  0  0  0  0  0  0  0  0  0  0  0
  151.2024  133.1278  190.2970 C   0  0  0  0  0  0  0  0  0  0  0  0
  151.2952  134.4225  190.9755 C   0  0  0  0  0  0  0  0  0  0  0  0
  150.2634  134.7028  191.8872 C   0  0  0  0  0  0  0  0  0  0  0  0
  150.2031  135.9100  192.5388 C   0  0  0  0  0  0  0  0  0  0  0  0
  151.1521  136.9070  192.3302 C   0  0  0  0  0  0  0  0  0  0  0  0
  152.1494  136.6201  191.4409 C   0  0  0  0  0  0  0  0  0  0  0  0
  152.2171  135.4087  190.7823 C   0  0  0  0  0  0  0  0  0  0  0  0
  149.3527  135.6704  184.8840 C   0  0  0  0  0  0  0  0  0  0  0  0
  148.3413  136.6965  184.6131 C   0  0  0  0  0  0  0  0  0  0  0  0
  148.3350  137.9709  185.1683 C   0  0  0  0  0  0  0  0  0  0  0  0
  147.3654  138.9034  184.8774 C   0  0  0  0  0  0  0  0  0  0  0  0
  146.3375  138.6237  184.0122 C   0  0  0  0  0  0  0  0  0  0  0  0
  146.3165  137.3735  183.4493 C   0  0  0  0  0  0  0  0  0  0  0  0
  147.2758  136.4340  183.7303 C   0  0  0  0  0  0  0  0  0  0  0  0
  153.4877  138.6889  188.2432 C   0  0  0  0  0  0  0  0  0  0  0  0
  154.6097  138.3486  189.1132 C   0  0  0  0  0  0  0  0  0  0  0  0
  154.6839  138.8158  190.4158 C   0  0  0  0  0  0  0  0  0  0  0  0
  155.6956  138.4583  191.2802 C   0  0  0  0  0  0  0  0  0  0  0  0
  156.6991  137.6002  190.8706 C   0  0  0  0  0  0  0  0  0  0  0  0
  156.6395  137.1267  189.5766 C   0  0  0  0  0  0  0  0  0  0  0  0
  155.6209  137.4955  188.7303 C   0  0  0  0  0  0  0  0  0  0  0  0
 17 18  1  0  0  0
 18 19  2  0  0  0
 18 20  2  0  0  0
 18 11  1  0  0  0
 11 12  2  0  0  0
 12 13  1  0  0  0
 13 14  2  0  0  0
 14 15  1  0  0  0
 15 16  2  0  0  0
 14  7  1  0  0  0
  7  8  2  0  0  0
  7  9  1  0  0  0
  9  6  1  0  0  0
  6 23  1  0  0  0
 23 24  1  0  0  0
 24 25  2  0  0  0
 25 26  1  0  0  0
 26 27  2  0  0  0
 27 28  1  0  0  0
 28 29  2  0  0  0
  6  2  1  0  0  0
  2  3  2  0  0  0
  2  4  1  0  0  0
  4  1  1  0  0  0
  1 58  1  0  0  0
 58 59  1  0  0  0
 59 60  2  0  0  0
 60 61  1  0  0  0
 61 62  2  0  0  0
 62 63  1  0  0  0
 63 64  2  0  0  0
  1 30  1  0  0  0
 30 31  2  0  0  0
 30 32  1  0  0  0
 32 34  1  0  0  0
 34 51  1  0  0  0
 51 52  1  0  0  0
 52 53  2  0  0  0
 53 54  1  0  0  0
 54 55  2  0  0  0
 55 56  1  0  0  0
 56 57  2  0  0  0
 34 35  1  0  0  0
 35 36  2  0  0  0
 35 37  1  0  0  0
 37 39  1  0  0  0
 39 44  1  0  0  0
 44 45  1  0  0  0
 45 46  2  0  0  0
 46 47  1  0  0  0
 47 48  2  0  0  0
 48 49  1  0  0  0
 49 50  2  0  0  0
 39 40  1  0  0  0
 40 41  1  0  0  0
 40 42  2  0  0  0
 16 11  1  0  0  0
 29 24  1  0  0  0
 64 59  1  0  0  0
 57 52  1  0  0  0
 50 45  1  0  0  0
 17 21  1  0  0  0
 17 22  1  0  0  0
  9 10  1  0  0  0
  4  5  1  0  0  0
 32 33  1  0  0  0
 37 38  1  0  0  0
 41 43  1  0  0  0
M  END
> <minimizedAffinity>
-7.48662

> <CNNscore>
0.1712696850

> <CNNaffinity>
6.7174048424

> <CNN_VS>
1.1504877806

> <CNNaffinity_variance>
0.5077809691

$$$$
[H]N=C(N([H])[H])N([H])C([H])([H])C([H])([H])C([H])([H])[C@@]([H])(C(=O)N1C([H])([H])C([H])([H])C([H])([H])[C@@]1([H])C(=O)N1C([H])([H])C([H])([H])C([H])([H])C1([H])[H])N([H])C(=O)[C@@]1([H])N([H])C([H])([H])c2c([H])c([H])c([H])c([H])c2C1([H])[H]


 41 44  0  0  0  0  0  0  0  0999 V2000
  154.6873  139.7323  183.9939 C   0  0  0  0  0  0  0  0  0  0  0  0
  155.4804  139.0297  185.0481 C   0  0  0  0  0  0  0  0  0  0  0  0
  156.6913  139.3923  185.1530 O   0  0  0  0  0  0  0  0  0  0  0  0
  154.8850  138.0858  185.8917 N   0  0  0  0  0  0  0  0  0  0  0  0
  153.7070  137.3071  185.7393 C   0  0  0  0  0  0  0  0  0  0  0  0
  152.7711  138.0627  186.6948 C   0  0  0  0  0  0  0  0  0  0  0  0
  153.7212  138.6768  187.7071 C   0  0  0  0  0  0  0  0  0  0  0  0
  155.1213  138.0935  187.3562 C   0  0  0  0  0  0  0  0  0  0  0  0
  155.5233  136.9716  188.0594 C   0  0  0  0  0  0  0  0  0  0  0  0
  155.2469  135.7988  187.4619 O   0  0  0  0  0  0  0  0  0  0  0  0
  156.1404  136.7871  189.2823 N   0  0  0  0  0  0  0  0  0  0  0  0
  156.4851  135.5573  189.9481 C   0  0  0  0  0  0  0  0  0  0  0  0
  156.4843  135.8777  191.4290 C   0  0  0  0  0  0  0  0  0  0  0  0
  155.9865  137.3126  191.4859 C   0  0  0  0  0  0  0  0  0  0  0  0
  156.6250  137.8573  190.1999 C   0  0  0  0  0  0  0  0  0  0  0  0
  155.8436  140.0632  183.0816 N   0  0  0  0  0  0  0  0  0  0  0  0
  156.0193  141.3292  182.5075 C   0  0  0  0  0  0  0  0  0  0  0  0
  155.1955  142.2471  182.5903 O   0  0  0  0  0  0  0  0  0  0  0  0
  156.5014  139.2965  182.8500 H   0  0  0  0  0  0  0  0  0  0  0  0
  157.3170  141.5472  181.7573 C   0  0  0  0  0  0  0  0  0  0  0  0
  158.3807  140.7966  182.6139 C   0  0  0  0  0  0  0  0  0  0  0  0
  159.3158  141.7171  183.2852 C   0  0  0  0  0  0  0  0  0  0  0  0
  160.4233  141.1975  183.9189 C   0  0  0  0  0  0  0  0  0  0  0  0
  161.3765  142.0182  184.5525 C   0  0  0  0  0  0  0  0  0  0  0  0
  161.2287  143.3520  184.5475 C   0  0  0  0  0  0  0  0  0  0  0  0
  160.1140  143.9176  183.9090 C   0  0  0  0  0  0  0  0  0  0  0  0
  159.2037  143.0886  183.3109 C   0  0  0  0  0  0  0  0  0  0  0  0
  157.9907  143.6926  182.6527 C   0  0  0  0  0  0  0  0  0  0  0  0
  157.6726  142.8683  181.5823 N   0  0  0  0  0  0  0  0  0  0  0  0
  157.1050  143.3145  180.8558 H   0  0  0  0  0  0  0  0  0  0  0  0
  153.6414  138.9938  183.2585 C   0  0  0  0  0  0  0  0  0  0  0  0
  152.9754  139.8307  182.1633 C   0  0  0  0  0  0  0  0  0  0  0  0
  151.6483  139.1519  181.8619 C   0  0  0  0  0  0  0  0  0  0  0  0
  151.4151  137.9450  182.5286 N   0  0  0  0  0  0  0  0  0  0  0  0
  152.2542  137.2581  182.5791 H   0  0  0  0  0  0  0  0  0  0  0  0
  148.9823  137.5809  182.5873 N   0  0  0  0  0  0  0  0  0  0  0  0
  150.2706  137.4449  183.1500 C   0  0  0  0  0  0  0  0  0  0  0  0
  150.3901  136.8222  184.2923 N   0  0  0  0  0  0  0  0  0  0  0  0
  148.1395  137.6139  183.2252 H   0  0  0  0  0  0  0  0  0  0  0  0
  148.8532  137.6441  181.5728 H   0  0  0  0  0  0  0  0  0  0  0  0
  151.2901  136.6896  184.7484 H   0  0  0  0  0  0  0  0  0  0  0  0
 36 37  1  0  0  0
 37 38  2  0  0  0
 37 34  1  0  0  0
 34 33  1  0  0  0
 33 32  1  0  0  0
 32 31  1  0  0  0
 31  1  1  0  0  0
  1 16  1  0  0  0
 16 17  1  0  0  0
 17 18  2  0  0  0
 17 20  1  0  0  0
 20 21  1  0  0  0
 21 22  1  0  0  0
 22 23  2  0  0  0
 23 24  1  0  0  0
 24 25  2  0  0  0
 25 26  1  0  0  0
 26 27  2  0  0  0
 27 28  1  0  0  0
 28 29  1  0  0  0
  1  2  1  0  0  0
  2  3  2  0  0  0
  2  4  1  0  0  0
  4  5  1  0  0  0
  5  6  1  0  0  0
  6  7  1  0  0  0
  7  8  1  0  0  0
  8  9  1  0  0  0
  9 10  2  0  0  0
  9 11  1  0  0  0
 11 12  1  0  0  0
 12 13  1  0  0  0
 13 14  1  0  0  0
 14 15  1  0  0  0
 29 20  1  0  0  0
  8  4  1  0  0  0
 15 11  1  0  0  0
 27 22  1  0  0  0
 36 39  1  0  0  0
 36 40  1  0  0  0
 38 41  1  0  0  0
 34 35  1  0  0  0
 16 19  1  0  0  0
 29 30  1  0  0  0
M  END
> <minimizedAffinity>
-8.20287

> <CNNscore>
0.4227760434

> <CNNaffinity>
6.4980864525

> <CNN_VS>
2.7472352982

> <CNNaffinity_variance>
0.0605988279

$$$$
[H]N=C(N([H])[H])N([H])C([H])([H])C([H])([H])C([H])([H])[C@@]([H])(C(=O)N1C([H])([H])C([H])([H])C([H])([H])[C@@]1([H])C(=O)N1C([H])([H])C([H])([H])C([H])([H])C1([H])[H])N([H])C(=O)[C@@]1([H])N([H])C([H])([H])c2c([H])c([H])c([H])c([H])c2C1([H])[H]


 41 44  0  0  0  0  0  0  0  0999 V2000
  155.1056  139.4221  184.2186 C   0  0  0  0  0  0  0  0  0  0  0  0
  155.7121  138.8425  185.4555 C   0  0  0  0  0  0  0  0  0  0  0  0
  156.8862  139.2389  185.7257 O   0  0  0  0  0  0  0  0  0  0  0  0
  154.9866  137.9729  186.2770 N   0  0  0  0  0  0  0  0  0  0  0  0
  153.8548  137.1584  186.0073 C   0  0  0  0  0  0  0  0  0  0  0  0
  152.7675  137.9835  186.7121 C   0  0  0  0  0  0  0  0  0  0  0  0
  153.5300  138.7133  187.8032 C   0  0  0  0  0  0  0  0  0  0  0  0
  154.9717  138.1282  187.7522 C   0  0  0  0  0  0  0  0  0  0  0  0
  155.2539  137.0889  188.6211 C   0  0  0  0  0  0  0  0  0  0  0  0
  155.7423  135.9796  188.0385 O   0  0  0  0  0  0  0  0  0  0  0  0
  155.1180  136.9289  189.9873 N   0  0  0  0  0  0  0  0  0  0  0  0
  155.4108  135.7758  190.7991 C   0  0  0  0  0  0  0  0  0  0  0  0
  154.4949  135.8769  192.0019 C   0  0  0  0  0  0  0  0  0  0  0  0
  153.6217  137.0807  191.6884 C   0  0  0  0  0  0  0  0  0  0  0  0
  154.6474  137.9587  190.9569 C   0  0  0  0  0  0  0  0  0  0  0  0
  156.3953  139.6427  183.4656 N   0  0  0  0  0  0  0  0  0  0  0  0
  156.5423  140.6334  182.4857 C   0  0  0  0  0  0  0  0  0  0  0  0
  155.6138  141.3304  182.0615 O   0  0  0  0  0  0  0  0  0  0  0  0
  157.1807  138.9972  183.6677 H   0  0  0  0  0  0  0  0  0  0  0  0
  157.9436  140.8371  181.9480 C   0  0  0  0  0  0  0  0  0  0  0  0
  158.8673  140.4680  183.1476 C   0  0  0  0  0  0  0  0  0  0  0  0
  159.5611  141.6420  183.7070 C   0  0  0  0  0  0  0  0  0  0  0  0
  160.5538  141.4469  184.6422 C   0  0  0  0  0  0  0  0  0  0  0  0
  161.2817  142.5182  185.1954 C   0  0  0  0  0  0  0  0  0  0  0  0
  161.0245  143.7782  184.8118 C   0  0  0  0  0  0  0  0  0  0  0  0
  160.0218  144.0154  183.8587 C   0  0  0  0  0  0  0  0  0  0  0  0
  159.3292  142.9505  183.3490 C   0  0  0  0  0  0  0  0  0  0  0  0
  158.2314  143.2066  182.3495 C   0  0  0  0  0  0  0  0  0  0  0  0
  158.2134  142.1121  181.4961 N   0  0  0  0  0  0  0  0  0  0  0  0
  157.7723  142.2876  180.5886 H   0  0  0  0  0  0  0  0  0  0  0  0
  154.1704  138.6074  183.4174 C   0  0  0  0  0  0  0  0  0  0  0  0
  153.0867  139.4422  182.7302 C   0  0  0  0  0  0  0  0  0  0  0  0
  152.6128  138.6215  181.5408 C   0  0  0  0  0  0  0  0  0  0  0  0
  152.3039  139.3450  180.3847 N   0  0  0  0  0  0  0  0  0  0  0  0
  153.0977  139.9692  179.9863 H   0  0  0  0  0  0  0  0  0  0  0  0
  150.0537  138.5254  179.8197 N   0  0  0  0  0  0  0  0  0  0  0  0
  151.1304  139.4204  179.6340 C   0  0  0  0  0  0  0  0  0  0  0  0
  151.0162  140.3549  178.7282 N   0  0  0  0  0  0  0  0  0  0  0  0
  149.4147  138.3081  179.0055 H   0  0  0  0  0  0  0  0  0  0  0  0
  149.8814  138.0883  180.7302 H   0  0  0  0  0  0  0  0  0  0  0  0
  151.7549  141.0312  178.5477 H   0  0  0  0  0  0  0  0  0  0  0  0
 36 37  1  0  0  0
 37 38  2  0  0  0
 37 34  1  0  0  0
 34 33  1  0  0  0
 33 32  1  0  0  0
 32 31  1  0  0  0
 31  1  1  0  0  0
  1 16  1  0  0  0
 16 17  1  0  0  0
 17 18  2  0  0  0
 17 20  1  0  0  0
 20 21  1  0  0  0
 21 22  1  0  0  0
 22 23  2  0  0  0
 23 24  1  0  0  0
 24 25  2  0  0  0
 25 26  1  0  0  0
 26 27  2  0  0  0
 27 28  1  0  0  0
 28 29  1  0  0  0
  1  2  1  0  0  0
  2  3  2  0  0  0
  2  4  1  0  0  0
  4  5  1  0  0  0
  5  6  1  0  0  0
  6  7  1  0  0  0
  7  8  1  0  0  0
  8  9  1  0  0  0
  9 10  2  0  0  0
  9 11  1  0  0  0
 11 12  1  0  0  0
 12 13  1  0  0  0
 13 14  1  0  0  0
 14 15  1  0  0  0
 29 20  1  0  0  0
  8  4  1  0  0  0
 15 11  1  0  0  0
 27 22  1  0  0  0
 36 39  1  0  0  0
 36 40  1  0  0  0
 38 41  1  0  0  0
 34 35  1  0  0  0
 16 19  1  0  0  0
 29 30  1  0  0  0
M  END
> <minimizedAffinity>
-8.74755

> <CNNscore>
0.3554181159

> <CNNaffinity>
6.4934463501

> <CNN_VS>
2.3078885078

> <CNNaffinity_variance>
0.0506237522

$$$$
[H]N=C(N([H])[H])N([H])C([H])([H])C([H])([H])C([H])([H])[C@@]([H])(C(=O)N1C([H])([H])C([H])([H])C([H])([H])[C@@]1([H])C(=O)N1C([H])([H])C([H])([H])C([H])([H])C1([H])[H])N([H])C(=O)[C@@]1([H])N([H])C([H])([H])c2c([H])c([H])c([H])c([H])c2C1([H])[H]


 41 44  0  0  0  0  0  0  0  0999 V2000
  155.0483  139.8200  183.8242 C   0  0  0  0  0  0  0  0  0  0  0  0
  156.4018  140.0547  184.4132 C   0  0  0  0  0  0  0  0  0  0  0  0
  156.6243  139.4749  185.5191 O   0  0  0  0  0  0  0  0  0  0  0  0
  157.3624  140.8145  183.7370 N   0  0  0  0  0  0  0  0  0  0  0  0
  157.2310  141.7951  182.7180 C   0  0  0  0  0  0  0  0  0  0  0  0
  157.7033  140.9761  181.5072 C   0  0  0  0  0  0  0  0  0  0  0  0
  158.6413  139.9510  182.1189 C   0  0  0  0  0  0  0  0  0  0  0  0
  158.7691  140.3594  183.6156 C   0  0  0  0  0  0  0  0  0  0  0  0
  159.8492  141.1551  183.9547 C   0  0  0  0  0  0  0  0  0  0  0  0
  160.9176  141.0350  183.1467 O   0  0  0  0  0  0  0  0  0  0  0  0
  160.0850  142.0505  184.9810 N   0  0  0  0  0  0  0  0  0  0  0  0
  161.2755  142.8087  185.2677 C   0  0  0  0  0  0  0  0  0  0  0  0
  161.2540  143.0577  186.7622 C   0  0  0  0  0  0  0  0  0  0  0  0
  160.0491  142.2648  187.2412 C   0  0  0  0  0  0  0  0  0  0  0  0
  159.1166  142.4618  186.0370 C   0  0  0  0  0  0  0  0  0  0  0  0
  154.5137  138.9440  184.9314 N   0  0  0  0  0  0  0  0  0  0  0  0
  153.9347  137.6903  184.6948 C   0  0  0  0  0  0  0  0  0  0  0  0
  153.6969  137.2391  183.5688 O   0  0  0  0  0  0  0  0  0  0  0  0
  154.5489  139.3217  185.8960 H   0  0  0  0  0  0  0  0  0  0  0  0
  153.6053  136.8654  185.9218 C   0  0  0  0  0  0  0  0  0  0  0  0
  153.3359  137.9265  187.0308 C   0  0  0  0  0  0  0  0  0  0  0  0
  154.3864  137.9407  188.0645 C   0  0  0  0  0  0  0  0  0  0  0  0
  154.1892  138.6876  189.2053 C   0  0  0  0  0  0  0  0  0  0  0  0
  155.1339  138.7228  190.2493 C   0  0  0  0  0  0  0  0  0  0  0  0
  156.2673  138.0100  190.1581 C   0  0  0  0  0  0  0  0  0  0  0  0
  156.5014  137.2349  189.0116 C   0  0  0  0  0  0  0  0  0  0  0  0
  155.5648  137.2315  188.0135 C   0  0  0  0  0  0  0  0  0  0  0  0
  155.8294  136.4249  186.7689 C   0  0  0  0  0  0  0  0  0  0  0  0
  154.5934  135.9867  186.3141 N   0  0  0  0  0  0  0  0  0  0  0  0
  154.6322  135.1694  185.6981 H   0  0  0  0  0  0  0  0  0  0  0  0
  154.1487  140.9673  183.5907 C   0  0  0  0  0  0  0  0  0  0  0  0
  153.7976  141.1617  182.1134 C   0  0  0  0  0  0  0  0  0  0  0  0
  152.7957  140.0701  181.7708 C   0  0  0  0  0  0  0  0  0  0  0  0
  152.5121  139.9074  180.4111 N   0  0  0  0  0  0  0  0  0  0  0  0
  153.3378  140.0796  179.7277 H   0  0  0  0  0  0  0  0  0  0  0  0
  150.5028  138.5048  180.1882 N   0  0  0  0  0  0  0  0  0  0  0  0
  151.3307  139.5634  179.7537 C   0  0  0  0  0  0  0  0  0  0  0  0
  150.9697  140.2459  178.6997 N   0  0  0  0  0  0  0  0  0  0  0  0
  149.9077  137.9895  179.4820 H   0  0  0  0  0  0  0  0  0  0  0  0
  150.4680  138.2327  181.1754 H   0  0  0  0  0  0  0  0  0  0  0  0
  151.5213  141.0208  178.3380 H   0  0  0  0  0  0  0  0  0  0  0  0
 36 37  1  0  0  0
 37 38  2  0  0  0
 37 34  1  0  0  0
 34 33  1  0  0  0
 33 32  1  0  0  0
 32 31  1  0  0  0
 31  1  1  0  0  0
  1 16  1  0  0  0
 16 17  1  0  0  0
 17 18  2  0  0  0
 17 20  1  0  0  0
 20 21  1  0  0  0
 21 22  1  0  0  0
 22 23  2  0  0  0
 23 24  1  0  0  0
 24 25  2  0  0  0
 25 26  1  0  0  0
 26 27  2  0  0  0
 27 28  1  0  0  0
 28 29  1  0  0  0
  1  2  1  0  0  0
  2  3  2  0  0  0
  2  4  1  0  0  0
  4  5  1  0  0  0
  5  6  1  0  0  0
  6  7  1  0  0  0
  7  8  1  0  0  0
  8  9  1  0  0  0
  9 10  2  0  0  0
  9 11  1  0  0  0
 11 12  1  0  0  0
 12 13  1  0  0  0
 13 14  1  0  0  0
 14 15  1  0  0  0
 29 20  1  0  0  0
  8  4  1  0  0  0
 15 11  1  0  0  0
 27 22  1  0  0  0
 36 39  1  0  0  0
 36 40  1  0  0  0
 38 41  1  0  0  0
 34 35  1  0  0  0
 16 19  1  0  0  0
 29 30  1  0  0  0
M  END
> <minimizedAffinity>
-9.02803

> <CNNscore>
0.3525748253

> <CNNaffinity>
6.4140753746

> <CNN_VS>
2.2614414692

> <CNNaffinity_variance>
0.1115839630

$$$$
[H]N=C(N([H])[H])N([H])C([H])([H])C([H])([H])C([H])([H])[C@@]([H])(C(=O)N1C([H])([H])C([H])([H])C([H])([H])[C@@]1([H])C(=O)N1C([H])([H])C([H])([H])C([H])([H])C1([H])[H])N([H])C(=O)[C@@]1([H])N([H])C([H])([H])c2c([H])c([H])c([H])c([H])c2C1([H])[H]


 41 44  0  0  0  0  0  0  0  0999 V2000
  154.8817  139.3781  184.4219 C   0  0  0  0  0  0  0  0  0  0  0  0
  155.4697  138.6644  185.5961 C   0  0  0  0  0  0  0  0  0  0  0  0
  156.7034  138.8753  185.8018 O   0  0  0  0  0  0  0  0  0  0  0  0
  154.6752  137.8741  186.4336 N   0  0  0  0  0  0  0  0  0  0  0  0
  153.4219  137.2439  186.2115 C   0  0  0  0  0  0  0  0  0  0  0  0
  152.5117  138.1862  187.0136 C   0  0  0  0  0  0  0  0  0  0  0  0
  153.4373  138.7508  188.0763 C   0  0  0  0  0  0  0  0  0  0  0  0
  154.7718  137.9665  187.9111 C   0  0  0  0  0  0  0  0  0  0  0  0
  154.9501  136.8610  188.7240 C   0  0  0  0  0  0  0  0  0  0  0  0
  154.1497  136.8164  189.8039 O   0  0  0  0  0  0  0  0  0  0  0  0
  155.8080  135.7781  188.6810 N   0  0  0  0  0  0  0  0  0  0  0  0
  155.9384  134.6866  189.6116 C   0  0  0  0  0  0  0  0  0  0  0  0
  157.3709  134.2090  189.4865 C   0  0  0  0  0  0  0  0  0  0  0  0
  158.0015  135.2104  188.5328 C   0  0  0  0  0  0  0  0  0  0  0  0
  156.8024  135.4783  187.6117 C   0  0  0  0  0  0  0  0  0  0  0  0
  156.1677  139.5599  183.6525 N   0  0  0  0  0  0  0  0  0  0  0  0
  156.5397  140.7803  183.0733 C   0  0  0  0  0  0  0  0  0  0  0  0
  155.8097  141.7769  183.0301 O   0  0  0  0  0  0  0  0  0  0  0  0
  156.7674  138.7244  183.5237 H   0  0  0  0  0  0  0  0  0  0  0  0
  157.9342  140.8421  182.4852 C   0  0  0  0  0  0  0  0  0  0  0  0
  158.8713  140.5878  183.7041 C   0  0  0  0  0  0  0  0  0  0  0  0
  159.6335  141.7890  184.0895 C   0  0  0  0  0  0  0  0  0  0  0  0
  160.6406  141.6689  185.0220 C   0  0  0  0  0  0  0  0  0  0  0  0
  161.4320  142.7660  185.4141 C   0  0  0  0  0  0  0  0  0  0  0  0
  161.2237  143.9761  184.8727 C   0  0  0  0  0  0  0  0  0  0  0  0
  160.2081  144.1360  183.9171 C   0  0  0  0  0  0  0  0  0  0  0  0
  159.4534  143.0493  183.5666 C   0  0  0  0  0  0  0  0  0  0  0  0
  158.3426  143.2265  182.5644 C   0  0  0  0  0  0  0  0  0  0  0  0
  158.2509  142.0319  181.8636 N   0  0  0  0  0  0  0  0  0  0  0  0
  157.7946  142.1088  180.9500 H   0  0  0  0  0  0  0  0  0  0  0  0
  153.8710  138.6964  183.5888 C   0  0  0  0  0  0  0  0  0  0  0  0
  153.1887  139.6333  182.5889 C   0  0  0  0  0  0  0  0  0  0  0  0
  152.2849  138.7555  181.7372 C   0  0  0  0  0  0  0  0  0  0  0  0
  152.1887  139.1075  180.3872 N   0  0  0  0  0  0  0  0  0  0  0  0
  153.1287  139.2557  179.8648 H   0  0  0  0  0  0  0  0  0  0  0  0
  149.9786  138.4306  179.5438 N   0  0  0  0  0  0  0  0  0  0  0  0
  151.0783  139.3165  179.5691 C   0  0  0  0  0  0  0  0  0  0  0  0
  151.0472  140.3721  178.7998 N   0  0  0  0  0  0  0  0  0  0  0  0
  149.4020  138.3460  178.6613 H   0  0  0  0  0  0  0  0  0  0  0  0
  149.7302  137.8736  180.3671 H   0  0  0  0  0  0  0  0  0  0  0  0
  151.8066  141.0490  178.7736 H   0  0  0  0  0  0  0  0  0  0  0  0
 36 37  1  0  0  0
 37 38  2  0  0  0
 37 34  1  0  0  0
 34 33  1  0  0  0
 33 32  1  0  0  0
 32 31  1  0  0  0
 31  1  1  0  0  0
  1 16  1  0  0  0
 16 17  1  0  0  0
 17 18  2  0  0  0
 17 20  1  0  0  0
 20 21  1  0  0  0
 21 22  1  0  0  0
 22 23  2  0  0  0
 23 24  1  0  0  0
 24 25  2  0  0  0
 25 26  1  0  0  0
 26 27  2  0  0  0
 27 28  1  0  0  0
 28 29  1  0  0  0
  1  2  1  0  0  0
  2  3  2  0  0  0
  2  4  1  0  0  0
  4  5  1  0  0  0
  5  6  1  0  0  0
  6  7  1  0  0  0
  7  8  1  0  0  0
  8  9  1  0  0  0
  9 10  2  0  0  0
  9 11  1  0  0  0
 11 12  1  0  0  0
 12 13  1  0  0  0
 13 14  1  0  0  0
 14 15  1  0  0  0
 29 20  1  0  0  0
  8  4  1  0  0  0
 15 11  1  0  0  0
 27 22  1  0  0  0
 36 39  1  0  0  0
 36 40  1  0  0  0
 38 41  1  0  0  0
 34 35  1  0  0  0
 16 19  1  0  0  0
 29 30  1  0  0  0
M  END
> <minimizedAffinity>
-8.42328

> <CNNscore>
0.3515987098

> <CNNaffinity>
6.5266494751

> <CNN_VS>
2.2947614193

> <CNNaffinity_variance>
0.0440183319

$$$$
[H]N=C(N([H])[H])N([H])C([H])([H])C([H])([H])C([H])([H])[C@@]([H])(C(=O)N1C([H])([H])C([H])([H])C([H])([H])[C@@]1([H])C(=O)N1C([H])([H])C([H])([H])C([H])([H])C1([H])[H])N([H])C(=O)[C@@]1([H])N([H])C([H])([H])c2c([H])c([H])c([H])c([H])c2C1([H])[H]


 41 44  0  0  0  0  0  0  0  0999 V2000
  154.6858  139.0322  185.3834 C   0  0  0  0  0  0  0  0  0  0  0  0
  155.6501  138.3483  186.2979 C   0  0  0  0  0  0  0  0  0  0  0  0
  156.8768  138.5639  186.0582 O   0  0  0  0  0  0  0  0  0  0  0  0
  155.2015  137.5798  187.3774 N   0  0  0  0  0  0  0  0  0  0  0  0
  153.9543  136.9446  187.6185 C   0  0  0  0  0  0  0  0  0  0  0  0
  153.3704  137.9074  188.6634 C   0  0  0  0  0  0  0  0  0  0  0  0
  154.6019  138.4984  189.3258 C   0  0  0  0  0  0  0  0  0  0  0  0
  155.8032  137.7097  188.7272 C   0  0  0  0  0  0  0  0  0  0  0  0
  156.2613  136.6251  189.4542 C   0  0  0  0  0  0  0  0  0  0  0  0
  155.9719  136.6597  190.7672 O   0  0  0  0  0  0  0  0  0  0  0  0
  156.9897  135.4981  189.1228 N   0  0  0  0  0  0  0  0  0  0  0  0
  157.4529  134.4341  189.9759 C   0  0  0  0  0  0  0  0  0  0  0  0
  158.6919  133.8783  189.3036 C   0  0  0  0  0  0  0  0  0  0  0  0
  158.9101  134.8119  188.1244 C   0  0  0  0  0  0  0  0  0  0  0  0
  157.4488  135.1101  187.7587 C   0  0  0  0  0  0  0  0  0  0  0  0
  155.6509  139.2828  184.2500 N   0  0  0  0  0  0  0  0  0  0  0  0
  155.5598  140.3992  183.4083 C   0  0  0  0  0  0  0  0  0  0  0  0
  154.6264  141.2094  183.4317 O   0  0  0  0  0  0  0  0  0  0  0  0
  156.3798  138.5662  184.0784 H   0  0  0  0  0  0  0  0  0  0  0  0
  156.7016  140.5937  182.4321 C   0  0  0  0  0  0  0  0  0  0  0  0
  157.9557  140.0954  183.2116 C   0  0  0  0  0  0  0  0  0  0  0  0
  158.8711  141.1941  183.5684 C   0  0  0  0  0  0  0  0  0  0  0  0
  160.1100  140.8877  184.0873 C   0  0  0  0  0  0  0  0  0  0  0  0
  161.0489  141.8834  184.4201 C   0  0  0  0  0  0  0  0  0  0  0  0
  160.7551  143.1788  184.2293 C   0  0  0  0  0  0  0  0  0  0  0  0
  159.5032  143.5289  183.6997 C   0  0  0  0  0  0  0  0  0  0  0  0
  158.6127  142.5348  183.3958 C   0  0  0  0  0  0  0  0  0  0  0  0
  157.2571  142.9109  182.8569 C   0  0  0  0  0  0  0  0  0  0  0  0
  156.8792  141.8901  181.9958 N   0  0  0  0  0  0  0  0  0  0  0  0
  156.1655  142.1542  181.3103 H   0  0  0  0  0  0  0  0  0  0  0  0
  153.4981  138.2997  184.9005 C   0  0  0  0  0  0  0  0  0  0  0  0
  153.8486  137.1471  183.9560 C   0  0  0  0  0  0  0  0  0  0  0  0
  152.8052  136.0683  184.2013 C   0  0  0  0  0  0  0  0  0  0  0  0
  151.5581  136.5163  184.6484 N   0  0  0  0  0  0  0  0  0  0  0  0
  151.0783  137.2767  184.0401 H   0  0  0  0  0  0  0  0  0  0  0  0
  150.5183  134.8181  186.0938 N   0  0  0  0  0  0  0  0  0  0  0  0
  150.8012  136.1624  185.7655 C   0  0  0  0  0  0  0  0  0  0  0  0
  150.3389  137.1053  186.5428 N   0  0  0  0  0  0  0  0  0  0  0  0
  149.6328  134.5902  186.6253 H   0  0  0  0  0  0  0  0  0  0  0  0
  151.1588  134.0637  185.8286 H   0  0  0  0  0  0  0  0  0  0  0  0
  150.5095  138.0921  186.3619 H   0  0  0  0  0  0  0  0  0  0  0  0
 36 37  1  0  0  0
 37 38  2  0  0  0
 37 34  1  0  0  0
 34 33  1  0  0  0
 33 32  1  0  0  0
 32 31  1  0  0  0
 31  1  1  0  0  0
  1 16  1  0  0  0
 16 17  1  0  0  0
 17 18  2  0  0  0
 17 20  1  0  0  0
 20 21  1  0  0  0
 21 22  1  0  0  0
 22 23  2  0  0  0
 23 24  1  0  0  0
 24 25  2  0  0  0
 25 26  1  0  0  0
 26 27  2  0  0  0
 27 28  1  0  0  0
 28 29  1  0  0  0
  1  2  1  0  0  0
  2  3  2  0  0  0
  2  4  1  0  0  0
  4  5  1  0  0  0
  5  6  1  0  0  0
  6  7  1  0  0  0
  7  8  1  0  0  0
  8  9  1  0  0  0
  9 10  2  0  0  0
  9 11  1  0  0  0
 11 12  1  0  0  0
 12 13  1  0  0  0
 13 14  1  0  0  0
 14 15  1  0  0  0
 29 20  1  0  0  0
  8  4  1  0  0  0
 15 11  1  0  0  0
 27 22  1  0  0  0
 36 39  1  0  0  0
 36 40  1  0  0  0
 38 41  1  0  0  0
 34 35  1  0  0  0
 16 19  1  0  0  0
 29 30  1  0  0  0
M  END
> <minimizedAffinity>
-7.06855

> <CNNscore>
0.3136428893

> <CNNaffinity>
6.1824426651

> <CNN_VS>
1.9390791655

> <CNNaffinity_variance>
0.1074301749

$$$$
[H]N=C(N([H])[H])N([H])C([H])([H])C([H])([H])C([H])([H])[C@@]([H])(C(=O)N1C([H])([H])C([H])([H])C([H])([H])[C@@]1([H])C(=O)N1C([H])([H])C([H])([H])C([H])([H])C1([H])[H])N([H])C(=O)[C@@]1([H])N([H])C([H])([H])c2c([H])c([H])c([H])c([H])c2C1([H])[H]


 41 44  0  0  0  0  0  0  0  0999 V2000
  154.7108  138.9688  185.5263 C   0  0  0  0  0  0  0  0  0  0  0  0
  155.7178  138.2817  186.3910 C   0  0  0  0  0  0  0  0  0  0  0  0
  156.9317  138.5077  186.1009 O   0  0  0  0  0  0  0  0  0  0  0  0
  155.3210  137.4992  187.4807 N   0  0  0  0  0  0  0  0  0  0  0  0
  154.0892  136.8535  187.7686 C   0  0  0  0  0  0  0  0  0  0  0  0
  153.5453  137.8016  188.8480 C   0  0  0  0  0  0  0  0  0  0  0  0
  154.8007  138.3936  189.4628 C   0  0  0  0  0  0  0  0  0  0  0  0
  155.9797  137.6190  188.8045 C   0  0  0  0  0  0  0  0  0  0  0  0
  156.4754  136.5299  189.4995 C   0  0  0  0  0  0  0  0  0  0  0  0
  156.2115  136.5311  190.8183 O   0  0  0  0  0  0  0  0  0  0  0  0
  157.2209  135.4261  189.1304 N   0  0  0  0  0  0  0  0  0  0  0  0
  157.7237  134.3551  189.9517 C   0  0  0  0  0  0  0  0  0  0  0  0
  158.9606  133.8405  189.2438 C   0  0  0  0  0  0  0  0  0  0  0  0
  159.1353  134.8027  188.0804 C   0  0  0  0  0  0  0  0  0  0  0  0
  157.6609  135.0764  187.7497 C   0  0  0  0  0  0  0  0  0  0  0  0
  155.6265  139.2443  184.3582 N   0  0  0  0  0  0  0  0  0  0  0  0
  155.4751  140.3576  183.5211 C   0  0  0  0  0  0  0  0  0  0  0  0
  154.5222  141.1430  183.5795 O   0  0  0  0  0  0  0  0  0  0  0  0
  156.3671  138.5470  184.1594 H   0  0  0  0  0  0  0  0  0  0  0  0
  156.5745  140.5816  182.5036 C   0  0  0  0  0  0  0  0  0  0  0  0
  157.8522  140.0192  183.1960 C   0  0  0  0  0  0  0  0  0  0  0  0
  158.8064  141.0799  183.5657 C   0  0  0  0  0  0  0  0  0  0  0  0
  160.0612  140.7231  184.0090 C   0  0  0  0  0  0  0  0  0  0  0  0
  161.0355  141.6818  184.3483 C   0  0  0  0  0  0  0  0  0  0  0  0
  160.7610  142.9908  184.2390 C   0  0  0  0  0  0  0  0  0  0  0  0
  159.4938  143.3921  183.7880 C   0  0  0  0  0  0  0  0  0  0  0  0
  158.5692  142.4325  183.4753 C   0  0  0  0  0  0  0  0  0  0  0  0
  157.1985  142.8622  183.0213 C   0  0  0  0  0  0  0  0  0  0  0  0
  156.7594  141.8957  182.1272 N   0  0  0  0  0  0  0  0  0  0  0  0
  156.0208  142.2092  181.4908 H   0  0  0  0  0  0  0  0  0  0  0  0
  153.5110  138.2316  185.0819 C   0  0  0  0  0  0  0  0  0  0  0  0
  153.8223  137.1539  184.0403 C   0  0  0  0  0  0  0  0  0  0  0  0
  152.7624  137.2940  182.9587 C   0  0  0  0  0  0  0  0  0  0  0  0
  152.3865  138.6024  182.6387 N   0  0  0  0  0  0  0  0  0  0  0  0
  151.9122  139.1702  183.4331 H   0  0  0  0  0  0  0  0  0  0  0  0
  152.6223  140.7359  181.4358 N   0  0  0  0  0  0  0  0  0  0  0  0
  152.5049  139.3285  181.4534 C   0  0  0  0  0  0  0  0  0  0  0  0
  152.5131  138.6873  180.3151 N   0  0  0  0  0  0  0  0  0  0  0  0
  152.2708  141.2744  180.5962 H   0  0  0  0  0  0  0  0  0  0  0  0
  153.0454  141.2403  182.2209 H   0  0  0  0  0  0  0  0  0  0  0  0
  152.4342  137.6741  180.2607 H   0  0  0  0  0  0  0  0  0  0  0  0
 36 37  1  0  0  0
 37 38  2  0  0  0
 37 34  1  0  0  0
 34 33  1  0  0  0
 33 32  1  0  0  0
 32 31  1  0  0  0
 31  1  1  0  0  0
  1 16  1  0  0  0
 16 17  1  0  0  0
 17 18  2  0  0  0
 17 20  1  0  0  0
 20 21  1  0  0  0
 21 22  1  0  0  0
 22 23  2  0  0  0
 23 24  1  0  0  0
 24 25  2  0  0  0
 25 26  1  0  0  0
 26 27  2  0  0  0
 27 28  1  0  0  0
 28 29  1  0  0  0
  1  2  1  0  0  0
  2  3  2  0  0  0
  2  4  1  0  0  0
  4  5  1  0  0  0
  5  6  1  0  0  0
  6  7  1  0  0  0
  7  8  1  0  0  0
  8  9  1  0  0  0
  9 10  2  0  0  0
  9 11  1  0  0  0
 11 12  1  0  0  0
 12 13  1  0  0  0
 13 14  1  0  0  0
 14 15  1  0  0  0
 29 20  1  0  0  0
  8  4  1  0  0  0
 15 11  1  0  0  0
 27 22  1  0  0  0
 36 39  1  0  0  0
 36 40  1  0  0  0
 38 41  1  0  0  0
 34 35  1  0  0  0
 16 19  1  0  0  0
 29 30  1  0  0  0
M  END
> <minimizedAffinity>
-7.68080

> <CNNscore>
0.3048935533

> <CNNaffinity>
6.3114032745

> <CNN_VS>
1.9243061543

> <CNNaffinity_variance>
0.0586075298

$$$$
[H]N=C(N([H])[H])N([H])C([H])([H])C([H])([H])C([H])([H])[C@@]([H])(C(=O)N1C([H])([H])C([H])([H])C([H])([H])[C@@]1([H])C(=O)N1C([H])([H])C([H])([H])C([H])([H])C1([H])[H])N([H])C(=O)[C@@]1([H])N([H])C([H])([H])c2c([H])c([H])c([H])c([H])c2C1([H])[H]


 41 44  0  0  0  0  0  0  0  0999 V2000
  154.0260  139.7240  184.1920 C   0  0  0  0  0  0  0  0  0  0  0  0
  155.0973  140.3468  183.3563 C   0  0  0  0  0  0  0  0  0  0  0  0
  155.7090  139.5569  182.5748 O   0  0  0  0  0  0  0  0  0  0  0  0
  155.3439  141.7231  183.4054 N   0  0  0  0  0  0  0  0  0  0  0  0
  155.0465  142.6911  184.4013 C   0  0  0  0  0  0  0  0  0  0  0  0
  153.8613  143.3999  183.7284 C   0  0  0  0  0  0  0  0  0  0  0  0
  154.1220  143.1943  182.2471 C   0  0  0  0  0  0  0  0  0  0  0  0
  155.5254  142.5249  182.1706 C   0  0  0  0  0  0  0  0  0  0  0  0
  156.6068  143.3648  181.9710 C   0  0  0  0  0  0  0  0  0  0  0  0
  156.4418  144.6194  182.4267 O   0  0  0  0  0  0  0  0  0  0  0  0
  157.8404  143.1995  181.3699 N   0  0  0  0  0  0  0  0  0  0  0  0
  158.8932  144.1637  181.1795 C   0  0  0  0  0  0  0  0  0  0  0  0
  159.6532  143.7049  179.9516 C   0  0  0  0  0  0  0  0  0  0  0  0
  158.8421  142.5225  179.4479 C   0  0  0  0  0  0  0  0  0  0  0  0
  158.3808  141.9368  180.7905 C   0  0  0  0  0  0  0  0  0  0  0  0
  153.5201  138.7539  183.1519 N   0  0  0  0  0  0  0  0  0  0  0  0
  152.6634  139.1355  182.1109 C   0  0  0  0  0  0  0  0  0  0  0  0
  152.1486  140.2551  182.0135 O   0  0  0  0  0  0  0  0  0  0  0  0
  153.7968  137.7602  183.2534 H   0  0  0  0  0  0  0  0  0  0  0  0
  152.3861  138.0846  181.0559 C   0  0  0  0  0  0  0  0  0  0  0  0
  151.5106  138.8272  180.0021 C   0  0  0  0  0  0  0  0  0  0  0  0
  150.1179  138.3449  179.9855 C   0  0  0  0  0  0  0  0  0  0  0  0
  149.2774  138.7691  178.9796 C   0  0  0  0  0  0  0  0  0  0  0  0
  147.9446  138.3246  178.8810 C   0  0  0  0  0  0  0  0  0  0  0  0
  147.4551  137.4551  179.7784 C   0  0  0  0  0  0  0  0  0  0  0  0
  148.2831  136.9987  180.8158 C   0  0  0  0  0  0  0  0  0  0  0  0
  149.5704  137.4587  180.8849 C   0  0  0  0  0  0  0  0  0  0  0  0
  150.4503  136.9938  182.0159 C   0  0  0  0  0  0  0  0  0  0  0  0
  151.7446  136.9536  181.5163 N   0  0  0  0  0  0  0  0  0  0  0  0
  152.3841  136.3489  182.0400 H   0  0  0  0  0  0  0  0  0  0  0  0
  154.3939  139.0104  185.4312 C   0  0  0  0  0  0  0  0  0  0  0  0
  155.9052  138.8239  185.5884 C   0  0  0  0  0  0  0  0  0  0  0  0
  156.1053  138.0954  186.9083 C   0  0  0  0  0  0  0  0  0  0  0  0
  154.9563  137.5370  187.4772 N   0  0  0  0  0  0  0  0  0  0  0  0
  154.5275  136.6894  186.9518 H   0  0  0  0  0  0  0  0  0  0  0  0
  154.8228  138.5718  189.7056 N   0  0  0  0  0  0  0  0  0  0  0  0
  154.2364  137.8828  188.6211 C   0  0  0  0  0  0  0  0  0  0  0  0
  152.9714  137.5645  188.6945 N   0  0  0  0  0  0  0  0  0  0  0  0
  154.4345  138.4313  190.6792 H   0  0  0  0  0  0  0  0  0  0  0  0
  155.6140  139.2067  189.5621 H   0  0  0  0  0  0  0  0  0  0  0  0
  152.4903  137.0700  187.9464 H   0  0  0  0  0  0  0  0  0  0  0  0
 36 37  1  0  0  0
 37 38  2  0  0  0
 37 34  1  0  0  0
 34 33  1  0  0  0
 33 32  1  0  0  0
 32 31  1  0  0  0
 31  1  1  0  0  0
  1 16  1  0  0  0
 16 17  1  0  0  0
 17 18  2  0  0  0
 17 20  1  0  0  0
 20 21  1  0  0  0
 21 22  1  0  0  0
 22 23  2  0  0  0
 23 24  1  0  0  0
 24 25  2  0  0  0
 25 26  1  0  0  0
 26 27  2  0  0  0
 27 28  1  0  0  0
 28 29  1  0  0  0
  1  2  1  0  0  0
  2  3  2  0  0  0
  2  4  1  0  0  0
  4  5  1  0  0  0
  5  6  1  0  0  0
  6  7  1  0  0  0
  7  8  1  0  0  0
  8  9  1  0  0  0
  9 10  2  0  0  0
  9 11  1  0  0  0
 11 12  1  0  0  0
 12 13  1  0  0  0
 13 14  1  0  0  0
 14 15  1  0  0  0
 29 20  1  0  0  0
  8  4  1  0  0  0
 15 11  1  0  0  0
 27 22  1  0  0  0
 36 39  1  0  0  0
 36 40  1  0  0  0
 38 41  1  0  0  0
 34 35  1  0  0  0
 16 19  1  0  0  0
 29 30  1  0  0  0
M  END
> <minimizedAffinity>
-7.32900

> <CNNscore>
0.1989218891

> <CNNaffinity>
5.9589300156

> <CNN_VS>
1.1853616238

> <CNNaffinity_variance>
0.3111699522

$$$$
[H]N=C(N([H])[H])N([H])C([H])([H])C([H])([H])C([H])([H])[C@@]([H])(C(=O)N1C([H])([H])C([H])([H])C([H])([H])[C@@]1([H])C(=O)N1C([H])([H])C([H])([H])C([H])([H])C1([H])[H])N([H])C(=O)[C@@]1([H])N([H])C([H])([H])c2c([H])c([H])c([H])c([H])c2C1([H])[H]


 41 44  0  0  0  0  0  0  0  0999 V2000
  154.1166  138.8703  185.4142 C   0  0  0  0  0  0  0  0  0  0  0  0
  155.3987  139.4187  184.8765 C   0  0  0  0  0  0  0  0  0  0  0  0
  156.4224  138.6922  185.0582 O   0  0  0  0  0  0  0  0  0  0  0  0
  155.4282  140.6245  184.1675 N   0  0  0  0  0  0  0  0  0  0  0  0
  154.5241  141.7197  184.1479 C   0  0  0  0  0  0  0  0  0  0  0  0
  153.8510  141.4762  182.7887 C   0  0  0  0  0  0  0  0  0  0  0  0
  154.9156  140.7413  181.9943 C   0  0  0  0  0  0  0  0  0  0  0  0
  156.1831  140.7614  182.8979 C   0  0  0  0  0  0  0  0  0  0  0  0
  157.0948  141.7773  182.6705 C   0  0  0  0  0  0  0  0  0  0  0  0
  156.9288  142.4391  181.5115 O   0  0  0  0  0  0  0  0  0  0  0  0
  158.1799  142.2568  183.3798 N   0  0  0  0  0  0  0  0  0  0  0  0
  159.0988  143.3093  183.0302 C   0  0  0  0  0  0  0  0  0  0  0  0
  160.3942  142.9771  183.7424 C   0  0  0  0  0  0  0  0  0  0  0  0
  160.1219  141.6193  184.3687 C   0  0  0  0  0  0  0  0  0  0  0  0
  158.6370  141.7916  184.7202 C   0  0  0  0  0  0  0  0  0  0  0  0
  153.7221  138.0844  184.1871 N   0  0  0  0  0  0  0  0  0  0  0  0
  152.5176  137.3745  184.0952 C   0  0  0  0  0  0  0  0  0  0  0  0
  151.7300  137.2229  185.0358 O   0  0  0  0  0  0  0  0  0  0  0  0
  154.4029  138.0474  183.4065 H   0  0  0  0  0  0  0  0  0  0  0  0
  152.1944  136.7818  182.7392 C   0  0  0  0  0  0  0  0  0  0  0  0
  152.7685  137.8176  181.7263 C   0  0  0  0  0  0  0  0  0  0  0  0
  151.7103  138.5355  180.9932 C   0  0  0  0  0  0  0  0  0  0  0  0
  152.0628  139.3400  179.9318 C   0  0  0  0  0  0  0  0  0  0  0  0
  151.1038  140.0300  179.1651 C   0  0  0  0  0  0  0  0  0  0  0  0
  149.7982  139.9119  179.4522 C   0  0  0  0  0  0  0  0  0  0  0  0
  149.4012  139.0985  180.5251 C   0  0  0  0  0  0  0  0  0  0  0  0
  150.3616  138.4497  181.2532 C   0  0  0  0  0  0  0  0  0  0  0  0
  149.9388  137.6016  182.4244 C   0  0  0  0  0  0  0  0  0  0  0  0
  150.8530  136.5604  182.5062 N   0  0  0  0  0  0  0  0  0  0  0  0
  150.5165  135.7380  183.0155 H   0  0  0  0  0  0  0  0  0  0  0  0
  154.1424  137.9959  186.6037 C   0  0  0  0  0  0  0  0  0  0  0  0
  153.3661  138.5749  187.7892 C   0  0  0  0  0  0  0  0  0  0  0  0
  154.0783  138.0841  189.0401 C   0  0  0  0  0  0  0  0  0  0  0  0
  153.3187  137.2856  189.9009 N   0  0  0  0  0  0  0  0  0  0  0  0
  152.2831  137.5815  190.0364 H   0  0  0  0  0  0  0  0  0  0  0  0
  154.3886  136.2301  191.8492 N   0  0  0  0  0  0  0  0  0  0  0  0
  153.6578  136.1540  190.6430 C   0  0  0  0  0  0  0  0  0  0  0  0
  153.2833  134.9783  190.2133 N   0  0  0  0  0  0  0  0  0  0  0  0
  154.9954  135.4141  192.1394 H   0  0  0  0  0  0  0  0  0  0  0  0
  154.3361  137.0607  192.4468 H   0  0  0  0  0  0  0  0  0  0  0  0
  152.7532  134.8568  189.3532 H   0  0  0  0  0  0  0  0  0  0  0  0
 36 37  1  0  0  0
 37 38  2  0  0  0
 37 34  1  0  0  0
 34 33  1  0  0  0
 33 32  1  0  0  0
 32 31  1  0  0  0
 31  1  1  0  0  0
  1 16  1  0  0  0
 16 17  1  0  0  0
 17 18  2  0  0  0
 17 20  1  0  0  0
 20 21  1  0  0  0
 21 22  1  0  0  0
 22 23  2  0  0  0
 23 24  1  0  0  0
 24 25  2  0  0  0
 25 26  1  0  0  0
 26 27  2  0  0  0
 27 28  1  0  0  0
 28 29  1  0  0  0
  1  2  1  0  0  0
  2  3  2  0  0  0
  2  4  1  0  0  0
  4  5  1  0  0  0
  5  6  1  0  0  0
  6  7  1  0  0  0
  7  8  1  0  0  0
  8  9  1  0  0  0
  9 10  2  0  0  0
  9 11  1  0  0  0
 11 12  1  0  0  0
 12 13  1  0  0  0
 13 14  1  0  0  0
 14 15  1  0  0  0
 29 20  1  0  0  0
  8  4  1  0  0  0
 15 11  1  0  0  0
 27 22  1  0  0  0
 36 39  1  0  0  0
 36 40  1  0  0  0
 38 41  1  0  0  0
 34 35  1  0  0  0
 16 19  1  0  0  0
 29 30  1  0  0  0
M  END
> <minimizedAffinity>
-6.77756

> <CNNscore>
0.1974468380

> <CNNaffinity>
6.0269422531

> <CNN_VS>
1.1900006533

> <CNNaffinity_variance>
0.0736056715

$$$$
[H]N=C(N([H])[H])N([H])C([H])([H])C([H])([H])C([H])([H])[C@@]([H])(C(=O)N1C([H])([H])C([H])([H])C([H])([H])[C@@]1([H])C(=O)N1C([H])([H])C([H])([H])C([H])([H])C1([H])[H])N([H])C(=O)[C@@]1([H])N([H])C([H])([H])c2c([H])c([H])c([H])c([H])c2C1([H])[H]


 41 44  0  0  0  0  0  0  0  0999 V2000
  153.9980  139.1737  184.7463 C   0  0  0  0  0  0  0  0  0  0  0  0
  155.3360  139.6794  184.3126 C   0  0  0  0  0  0  0  0  0  0  0  0
  156.2697  138.8209  184.3098 O   0  0  0  0  0  0  0  0  0  0  0  0
  155.5047  140.9996  183.8817 N   0  0  0  0  0  0  0  0  0  0  0  0
  154.7313  142.1668  184.1200 C   0  0  0  0  0  0  0  0  0  0  0  0
  154.0390  142.3024  182.7554 C   0  0  0  0  0  0  0  0  0  0  0  0
  155.0154  141.6442  181.7973 C   0  0  0  0  0  0  0  0  0  0  0  0
  156.2742  141.3250  182.6559 C   0  0  0  0  0  0  0  0  0  0  0  0
  157.2963  142.2575  182.6345 C   0  0  0  0  0  0  0  0  0  0  0  0
  157.2753  143.0977  181.5845 O   0  0  0  0  0  0  0  0  0  0  0  0
  158.3742  142.5053  183.4635 N   0  0  0  0  0  0  0  0  0  0  0  0
  159.4153  143.4912  183.3275 C   0  0  0  0  0  0  0  0  0  0  0  0
  160.6204  142.9176  184.0449 C   0  0  0  0  0  0  0  0  0  0  0  0
  160.1721  141.5201  184.4396 C   0  0  0  0  0  0  0  0  0  0  0  0
  158.6918  141.7997  184.7376 C   0  0  0  0  0  0  0  0  0  0  0  0
  153.6840  138.3856  183.4976 N   0  0  0  0  0  0  0  0  0  0  0  0
  152.7346  138.8028  182.5554 C   0  0  0  0  0  0  0  0  0  0  0  0
  151.9866  139.7747  182.7102 O   0  0  0  0  0  0  0  0  0  0  0  0
  154.1725  137.4803  183.3708 H   0  0  0  0  0  0  0  0  0  0  0  0
  152.6608  137.9914  181.2784 C   0  0  0  0  0  0  0  0  0  0  0  0
  151.8335  138.8868  180.3077 C   0  0  0  0  0  0  0  0  0  0  0  0
  150.4985  138.3293  180.0261 C   0  0  0  0  0  0  0  0  0  0  0  0
  149.7295  138.9064  179.0393 C   0  0  0  0  0  0  0  0  0  0  0  0
  148.4588  138.4075  178.6931 C   0  0  0  0  0  0  0  0  0  0  0  0
  147.9608  137.3330  179.3242 C   0  0  0  0  0  0  0  0  0  0  0  0
  148.7171  136.7167  180.3333 C   0  0  0  0  0  0  0  0  0  0  0  0
  149.9443  137.2342  180.6488 C   0  0  0  0  0  0  0  0  0  0  0  0
  150.7434  136.5927  181.7532 C   0  0  0  0  0  0  0  0  0  0  0  0
  152.0800  136.7476  181.4126 N   0  0  0  0  0  0  0  0  0  0  0  0
  152.7147  136.0866  181.8698 H   0  0  0  0  0  0  0  0  0  0  0  0
  153.8993  138.3124  185.9415 C   0  0  0  0  0  0  0  0  0  0  0  0
  153.0428  138.9255  187.0522 C   0  0  0  0  0  0  0  0  0  0  0  0
  153.3678  138.1441  188.3158 C   0  0  0  0  0  0  0  0  0  0  0  0
  154.4413  138.6255  189.0716 N   0  0  0  0  0  0  0  0  0  0  0  0
  154.3682  139.6573  189.4008 H   0  0  0  0  0  0  0  0  0  0  0  0
  156.3658  137.1538  188.6417 N   0  0  0  0  0  0  0  0  0  0  0  0
  155.6234  138.0102  189.4844 C   0  0  0  0  0  0  0  0  0  0  0  0
  156.0670  138.2354  190.6924 N   0  0  0  0  0  0  0  0  0  0  0  0
  156.9543  136.3873  189.0713 H   0  0  0  0  0  0  0  0  0  0  0  0
  156.3453  137.2669  187.6236 H   0  0  0  0  0  0  0  0  0  0  0  0
  155.5795  138.8436  191.3466 H   0  0  0  0  0  0  0  0  0  0  0  0
 36 37  1  0  0  0
 37 38  2  0  0  0
 37 34  1  0  0  0
 34 33  1  0  0  0
 33 32  1  0  0  0
 32 31  1  0  0  0
 31  1  1  0  0  0
  1 16  1  0  0  0
 16 17  1  0  0  0
 17 18  2  0  0  0
 17 20  1  0  0  0
 20 21  1  0  0  0
 21 22  1  0  0  0
 22 23  2  0  0  0
 23 24  1  0  0  0
 24 25  2  0  0  0
 25 26  1  0  0  0
 26 27  2  0  0  0
 27 28  1  0  0  0
 28 29  1  0  0  0
  1  2  1  0  0  0
  2  3  2  0  0  0
  2  4  1  0  0  0
  4  5  1  0  0  0
  5  6  1  0  0  0
  6  7  1  0  0  0
  7  8  1  0  0  0
  8  9  1  0  0  0
  9 10  2  0  0  0
  9 11  1  0  0  0
 11 12  1  0  0  0
 12 13  1  0  0  0
 13 14  1  0  0  0
 14 15  1  0  0  0
 29 20  1  0  0  0
  8  4  1  0  0  0
 15 11  1  0  0  0
 27 22  1  0  0  0
 36 39  1  0  0  0
 36 40  1  0  0  0
 38 41  1  0  0  0
 34 35  1  0  0  0
 16 19  1  0  0  0
 29 30  1  0  0  0
M  END
> <minimizedAffinity>
-7.39178

> <CNNscore>
0.1843276173

> <CNNaffinity>
6.0113120079

> <CNN_VS>
1.1080508232

> <CNNaffinity_variance>
0.1211606264

$$$$
[H]O[C@@]1([H])C([H])([H])C([H])([H])[C@]2([H])[C@]1(C([H])([H])[H])C([H])([H])C([H])([H])[C@]1([H])[C@@]3(C([H])([H])[H])C(=C([H])C(=O)C([H])([H])C3([H])[H])C([H])([H])C([H])([H])[C@]12[H]


 22 25  0  0  0  0  0  0  0  0999 V2000
  150.5747  134.7489  192.2173 C   0  0  0  0  0  0  0  0  0  0  0  0
  151.4616  135.5059  193.1420 C   0  0  0  0  0  0  0  0  0  0  0  0
  151.4283  136.9939  192.9563 C   0  0  0  0  0  0  0  0  0  0  0  0
  152.0906  137.2920  191.6276 C   0  0  0  0  0  0  0  0  0  0  0  0
  153.5177  136.8413  191.6159 C   0  0  0  0  0  0  0  0  0  0  0  0
  153.5493  135.3210  191.7629 C   0  0  0  0  0  0  0  0  0  0  0  0
  154.9921  134.8237  191.8693 C   0  0  0  0  0  0  0  0  0  0  0  0
  155.8708  135.2770  190.7646 C   0  0  0  0  0  0  0  0  0  0  0  0
  155.3477  136.4214  189.9933 C   0  0  0  0  0  0  0  0  0  0  0  0
  155.9068  136.6494  188.7955 C   0  0  0  0  0  0  0  0  0  0  0  0
  155.4657  137.7502  187.9548 C   0  0  0  0  0  0  0  0  0  0  0  0
  156.2308  138.2232  187.0974 O   0  0  0  0  0  0  0  0  0  0  0  0
  154.1144  138.2886  188.1333 C   0  0  0  0  0  0  0  0  0  0  0  0
  153.3696  137.5988  189.2591 C   0  0  0  0  0  0  0  0  0  0  0  0
  154.2835  137.3197  190.4257 C   0  0  0  0  0  0  0  0  0  0  0  0
  154.9484  138.6398  190.8393 C   0  0  0  0  0  0  0  0  0  0  0  0
  152.9136  135.0431  193.0788 C   0  0  0  0  0  0  0  0  0  0  0  0
  152.7819  133.6289  193.4688 C   0  0  0  0  0  0  0  0  0  0  0  0
  151.7296  133.6657  194.5753 C   0  0  0  0  0  0  0  0  0  0  0  0
  151.1554  135.0710  194.5598 C   0  0  0  0  0  0  0  0  0  0  0  0
  149.8168  135.1120  194.8629 O   0  0  0  0  0  0  0  0  0  0  0  0
  149.4247  134.2257  195.0877 H   0  0  0  0  0  0  0  0  0  0  0  0
  2  1  1  0  0  0
  2  3  1  0  0  0
  3  4  1  0  0  0
  4  5  1  0  0  0
  5  6  1  0  0  0
  6  7  1  0  0  0
  7  8  1  0  0  0
  8  9  1  0  0  0
  9 10  2  0  0  0
 10 11  1  0  0  0
 11 12  2  0  0  0
 11 13  1  0  0  0
 13 14  1  0  0  0
 14 15  1  0  0  0
 15 16  1  0  0  0
  6 17  1  0  0  0
 17 18  1  0  0  0
 18 19  1  0  0  0
 19 20  1  0  0  0
 20 21  1  0  0  0
 17  2  1  0  0  0
 20  2  1  0  0  0
 15  5  1  0  0  0
 15  9  1  0  0  0
 21 22  1  0  0  0
M  END
> <minimizedAffinity>
-6.99054

> <CNNscore>
0.5572437048

> <CNNaffinity>
5.1246180534

> <CNN_VS>
2.8556611538

> <CNNaffinity_variance>
0.0877717659

$$$$
[H]O[C@@]1([H])C([H])([H])C([H])([H])[C@]2([H])[C@]1(C([H])([H])[H])C([H])([H])C([H])([H])[C@]1([H])[C@@]3(C([H])([H])[H])C(=C([H])C(=O)C([H])([H])C3([H])[H])C([H])([H])C([H])([H])[C@]12[H]


 22 25  0  0  0  0  0  0  0  0999 V2000
  158.9826  140.3908  182.5233 C   0  0  0  0  0  0  0  0  0  0  0  0
  158.3187  141.2498  183.5413 C   0  0  0  0  0  0  0  0  0  0  0  0
  158.0046  140.5541  184.8323 C   0  0  0  0  0  0  0  0  0  0  0  0
  156.9010  139.5580  184.5448 C   0  0  0  0  0  0  0  0  0  0  0  0
  155.6621  140.2420  184.0574 C   0  0  0  0  0  0  0  0  0  0  0  0
  155.9713  140.9152  182.7214 C   0  0  0  0  0  0  0  0  0  0  0  0
  154.7654  141.7226  182.2375 C   0  0  0  0  0  0  0  0  0  0  0  0
  153.5048  140.9452  182.1707 C   0  0  0  0  0  0  0  0  0  0  0  0
  153.5187  139.6846  182.9381 C   0  0  0  0  0  0  0  0  0  0  0  0
  152.5666  138.7868  182.6434 C   0  0  0  0  0  0  0  0  0  0  0  0
  152.4902  137.5128  183.3392 C   0  0  0  0  0  0  0  0  0  0  0  0
  151.4118  136.8979  183.3943 O   0  0  0  0  0  0  0  0  0  0  0  0
  153.6966  136.9696  183.9696 C   0  0  0  0  0  0  0  0  0  0  0  0
  154.8853  137.8986  183.8216 C   0  0  0  0  0  0  0  0  0  0  0  0
  154.4734  139.3400  183.9851 C   0  0  0  0  0  0  0  0  0  0  0  0
  153.7406  139.4791  185.3266 C   0  0  0  0  0  0  0  0  0  0  0  0
  157.0423  141.9032  183.0211 C   0  0  0  0  0  0  0  0  0  0  0  0
  157.5617  142.6862  181.8869 C   0  0  0  0  0  0  0  0  0  0  0  0
  158.8899  143.2275  182.4120 C   0  0  0  0  0  0  0  0  0  0  0  0
  159.1479  142.5040  183.7215 C   0  0  0  0  0  0  0  0  0  0  0  0
  160.4783  142.2475  183.9450 O   0  0  0  0  0  0  0  0  0  0  0  0
  161.0839  142.6053  183.2416 H   0  0  0  0  0  0  0  0  0  0  0  0
  2  1  1  0  0  0
  2  3  1  0  0  0
  3  4  1  0  0  0
  4  5  1  0  0  0
  5  6  1  0  0  0
  6  7  1  0  0  0
  7  8  1  0  0  0
  8  9  1  0  0  0
  9 10  2  0  0  0
 10 11  1  0  0  0
 11 12  2  0  0  0
 11 13  1  0  0  0
 13 14  1  0  0  0
 14 15  1  0  0  0
 15 16  1  0  0  0
  6 17  1  0  0  0
 17 18  1  0  0  0
 18 19  1  0  0  0
 19 20  1  0  0  0
 20 21  1  0  0  0
 17  2  1  0  0  0
 20  2  1  0  0  0
 15  5  1  0  0  0
 15  9  1  0  0  0
 21 22  1  0  0  0
M  END
> <minimizedAffinity>
-8.26452

> <CNNscore>
0.5300259590

> <CNNaffinity>
5.9194650650

> <CNN_VS>
3.1374702454

> <CNNaffinity_variance>
0.0926132947

$$$$
[H]O[C@@]1([H])C([H])([H])C([H])([H])[C@]2([H])[C@]1(C([H])([H])[H])C([H])([H])C([H])([H])[C@]1([H])[C@@]3(C([H])([H])[H])C(=C([H])C(=O)C([H])([H])C3([H])[H])C([H])([H])C([H])([H])[C@]12[H]


 22 25  0  0  0  0  0  0  0  0999 V2000
  153.1691  138.7802  187.4284 C   0  0  0  0  0  0  0  0  0  0  0  0
  153.6732  137.3815  187.3613 C   0  0  0  0  0  0  0  0  0  0  0  0
  152.5995  136.3350  187.3215 C   0  0  0  0  0  0  0  0  0  0  0  0
  151.9342  136.3272  188.6817 C   0  0  0  0  0  0  0  0  0  0  0  0
  152.9067  135.9725  189.7627 C   0  0  0  0  0  0  0  0  0  0  0  0
  153.9768  137.0605  189.8310 C   0  0  0  0  0  0  0  0  0  0  0  0
  155.0574  136.6852  190.8468 C   0  0  0  0  0  0  0  0  0  0  0  0
  154.5329  136.3594  192.1946 C   0  0  0  0  0  0  0  0  0  0  0  0
  153.0885  136.0590  192.2360 C   0  0  0  0  0  0  0  0  0  0  0  0
  152.4962  136.1019  193.4388 C   0  0  0  0  0  0  0  0  0  0  0  0
  151.0778  135.8232  193.5912 C   0  0  0  0  0  0  0  0  0  0  0  0
  150.6340  135.4365  194.6856 O   0  0  0  0  0  0  0  0  0  0  0  0
  150.1865  136.0045  192.4421 C   0  0  0  0  0  0  0  0  0  0  0  0
  150.9390  136.4366  191.1991 C   0  0  0  0  0  0  0  0  0  0  0  0
  152.2601  135.7184  191.0853 C   0  0  0  0  0  0  0  0  0  0  0  0
  151.9916  134.2088  191.1544 C   0  0  0  0  0  0  0  0  0  0  0  0
  154.6345  137.0451  188.4967 C   0  0  0  0  0  0  0  0  0  0  0  0
  155.7038  138.0324  188.2703 C   0  0  0  0  0  0  0  0  0  0  0  0
  155.8334  138.0679  186.7488 C   0  0  0  0  0  0  0  0  0  0  0  0
  154.6517  137.2816  186.2101 C   0  0  0  0  0  0  0  0  0  0  0  0
  154.1577  137.7863  185.0324 O   0  0  0  0  0  0  0  0  0  0  0  0
  154.6658  138.5659  184.6807 H   0  0  0  0  0  0  0  0  0  0  0  0
  2  1  1  0  0  0
  2  3  1  0  0  0
  3  4  1  0  0  0
  4  5  1  0  0  0
  5  6  1  0  0  0
  6  7  1  0  0  0
  7  8  1  0  0  0
  8  9  1  0  0  0
  9 10  2  0  0  0
 10 11  1  0  0  0
 11 12  2  0  0  0
 11 13  1  0  0  0
 13 14  1  0  0  0
 14 15  1  0  0  0
 15 16  1  0  0  0
  6 17  1  0  0  0
 17 18  1  0  0  0
 18 19  1  0  0  0
 19 20  1  0  0  0
 20 21  1  0  0  0
 17  2  1  0  0  0
 20  2  1  0  0  0
 15  5  1  0  0  0
 15  9  1  0  0  0
 21 22  1  0  0  0
M  END
> <minimizedAffinity>
-6.38134

> <CNNscore>
0.5230559111

> <CNNaffinity>
5.1373343468

> <CNN_VS>
2.6871130466

> <CNNaffinity_variance>
0.1158226281

$$$$
[H]O[C@@]1([H])C([H])([H])C([H])([H])[C@]2([H])[C@]1(C([H])([H])[H])C([H])([H])C([H])([H])[C@]1([H])[C@@]3(C([H])([H])[H])C(=C([H])C(=O)C([H])([H])C3([H])[H])C([H])([H])C([H])([H])[C@]12[H]


 22 25  0  0  0  0  0  0  0  0999 V2000
  152.6455  136.0668  187.2148 C   0  0  0  0  0  0  0  0  0  0  0  0
  153.9113  136.7301  186.7994 C   0  0  0  0  0  0  0  0  0  0  0  0
  154.9087  135.8160  186.1519 C   0  0  0  0  0  0  0  0  0  0  0  0
  155.4225  134.8830  187.2282 C   0  0  0  0  0  0  0  0  0  0  0  0
  156.1079  135.6384  188.3235 C   0  0  0  0  0  0  0  0  0  0  0  0
  155.0820  136.5382  189.0101 C   0  0  0  0  0  0  0  0  0  0  0  0
  155.7601  137.4146  190.0649 C   0  0  0  0  0  0  0  0  0  0  0  0
  156.5618  136.6573  191.0555 C   0  0  0  0  0  0  0  0  0  0  0  0
  156.9034  135.2809  190.6467 C   0  0  0  0  0  0  0  0  0  0  0  0
  157.3113  134.4463  191.6143 C   0  0  0  0  0  0  0  0  0  0  0  0
  157.6714  133.0691  191.3200 C   0  0  0  0  0  0  0  0  0  0  0  0
  158.4371  132.4507  192.0786 O   0  0  0  0  0  0  0  0  0  0  0  0
  157.1210  132.4268  190.1232 C   0  0  0  0  0  0  0  0  0  0  0  0
  156.2500  133.3711  189.3185 C   0  0  0  0  0  0  0  0  0  0  0  0
  156.8376  134.7596  189.2864 C   0  0  0  0  0  0  0  0  0  0  0  0
  158.2804  134.6569  188.7730 C   0  0  0  0  0  0  0  0  0  0  0  0
  154.5996  137.4610  187.9478 C   0  0  0  0  0  0  0  0  0  0  0  0
  153.5626  138.4340  188.3319 C   0  0  0  0  0  0  0  0  0  0  0  0
  152.9827  138.8781  186.9905 C   0  0  0  0  0  0  0  0  0  0  0  0
  153.5627  137.9352  185.9515 C   0  0  0  0  0  0  0  0  0  0  0  0
  152.6873  137.6476  184.9333 O   0  0  0  0  0  0  0  0  0  0  0  0
  151.8176  138.1261  184.9991 H   0  0  0  0  0  0  0  0  0  0  0  0
  2  1  1  0  0  0
  2  3  1  0  0  0
  3  4  1  0  0  0
  4  5  1  0  0  0
  5  6  1  0  0  0
  6  7  1  0  0  0
  7  8  1  0  0  0
  8  9  1  0  0  0
  9 10  2  0  0  0
 10 11  1  0  0  0
 11 12  2  0  0  0
 11 13  1  0  0  0
 13 14  1  0  0  0
 14 15  1  0  0  0
 15 16  1  0  0  0
  6 17  1  0  0  0
 17 18  1  0  0  0
 18 19  1  0  0  0
 19 20  1  0  0  0
 20 21  1  0  0  0
 17  2  1  0  0  0
 20  2  1  0  0  0
 15  5  1  0  0  0
 15  9  1  0  0  0
 21 22  1  0  0  0
M  END
> <minimizedAffinity>
-5.64674

> <CNNscore>
0.4606313705

> <CNNaffinity>
5.0398645401

> <CNN_VS>
2.3215196133

> <CNNaffinity_variance>
0.2580369711

$$$$
[H]O[C@@]1([H])C([H])([H])C([H])([H])[C@]2([H])[C@]1(C([H])([H])[H])C([H])([H])C([H])([H])[C@]1([H])[C@@]3(C([H])([H])[H])C(=C([H])C(=O)C([H])([H])C3([H])[H])C([H])([H])C([H])([H])[C@]12[H]


 22 25  0  0  0  0  0  0  0  0999 V2000
  155.4965  136.0561  188.4449 C   0  0  0  0  0  0  0  0  0  0  0  0
  154.5655  137.2124  188.5506 C   0  0  0  0  0  0  0  0  0  0  0  0
  154.6884  137.9952  189.8240 C   0  0  0  0  0  0  0  0  0  0  0  0
  154.1679  137.1147  190.9405 C   0  0  0  0  0  0  0  0  0  0  0  0
  152.7277  136.7643  190.7327 C   0  0  0  0  0  0  0  0  0  0  0  0
  152.6084  135.9311  189.4578 C   0  0  0  0  0  0  0  0  0  0  0  0
  151.1395  135.6433  189.1422 C   0  0  0  0  0  0  0  0  0  0  0  0
  150.3904  135.0252  190.2623 C   0  0  0  0  0  0  0  0  0  0  0  0
  151.0381  135.1574  191.5819 C   0  0  0  0  0  0  0  0  0  0  0  0
  150.6046  134.3398  192.5529 C   0  0  0  0  0  0  0  0  0  0  0  0
  151.1751  134.3871  193.8891 C   0  0  0  0  0  0  0  0  0  0  0  0
  150.5170  133.9793  194.8611 O   0  0  0  0  0  0  0  0  0  0  0  0
  152.5286  134.9193  194.0697 C   0  0  0  0  0  0  0  0  0  0  0  0
  153.1310  135.4009  192.7646 C   0  0  0  0  0  0  0  0  0  0  0  0
  152.1002  136.0998  191.9144 C   0  0  0  0  0  0  0  0  0  0  0  0
  151.4649  137.2167  192.7539 C   0  0  0  0  0  0  0  0  0  0  0  0
  153.1047  136.8132  188.3675 C   0  0  0  0  0  0  0  0  0  0  0  0
  153.1305  136.2428  187.0097 C   0  0  0  0  0  0  0  0  0  0  0  0
  154.0759  137.1749  186.2545 C   0  0  0  0  0  0  0  0  0  0  0  0
  154.7169  138.0623  187.3065 C   0  0  0  0  0  0  0  0  0  0  0  0
  156.0220  138.3815  187.0228 O   0  0  0  0  0  0  0  0  0  0  0  0
  156.3478  138.0219  186.1544 H   0  0  0  0  0  0  0  0  0  0  0  0
  2  1  1  0  0  0
  2  3  1  0  0  0
  3  4  1  0  0  0
  4  5  1  0  0  0
  5  6  1  0  0  0
  6  7  1  0  0  0
  7  8  1  0  0  0
  8  9  1  0  0  0
  9 10  2  0  0  0
 10 11  1  0  0  0
 11 12  2  0  0  0
 11 13  1  0  0  0
 13 14  1  0  0  0
 14 15  1  0  0  0
 15 16  1  0  0  0
  6 17  1  0  0  0
 17 18  1  0  0  0
 18 19  1  0  0  0
 19 20  1  0  0  0
 20 21  1  0  0  0
 17  2  1  0  0  0
 20  2  1  0  0  0
 15  5  1  0  0  0
 15  9  1  0  0  0
 21 22  1  0  0  0
M  END
> <minimizedAffinity>
-6.04404

> <CNNscore>
0.4588114023

> <CNNaffinity>
5.0562758446

> <CNN_VS>
2.3198769093

> <CNNaffinity_variance>
0.0739600062

$$$$
[H]O[C@@]1([H])C([H])([H])C([H])([H])[C@]2([H])[C@]1(C([H])([H])[H])C([H])([H])C([H])([H])[C@]1([H])[C@@]3(C([H])([H])[H])C(=C([H])C(=O)C([H])([H])C3([H])[H])C([H])([H])C([H])([H])[C@]12[H]


 22 25  0  0  0  0  0  0  0  0999 V2000
  151.5962  137.3070  193.1487 C   0  0  0  0  0  0  0  0  0  0  0  0
  151.9200  135.9192  192.7198 C   0  0  0  0  0  0  0  0  0  0  0  0
  153.3796  135.5776  192.7699 C   0  0  0  0  0  0  0  0  0  0  0  0
  154.0614  136.3738  191.6772 C   0  0  0  0  0  0  0  0  0  0  0  0
  153.5320  136.0095  190.3255 C   0  0  0  0  0  0  0  0  0  0  0  0
  152.0555  136.3963  190.2605 C   0  0  0  0  0  0  0  0  0  0  0  0
  151.4409  135.9406  188.9357 C   0  0  0  0  0  0  0  0  0  0  0  0
  152.1745  136.4098  187.7359 C   0  0  0  0  0  0  0  0  0  0  0  0
  153.5508  136.8734  187.9992 C   0  0  0  0  0  0  0  0  0  0  0  0
  154.1302  137.6194  187.0468 C   0  0  0  0  0  0  0  0  0  0  0  0
  155.4828  138.1275  187.2056 C   0  0  0  0  0  0  0  0  0  0  0  0
  156.1592  138.4189  186.2047 O   0  0  0  0  0  0  0  0  0  0  0  0
  156.0314  138.2894  188.5549 C   0  0  0  0  0  0  0  0  0  0  0  0
  155.0586  137.8341  189.6246 C   0  0  0  0  0  0  0  0  0  0  0  0
  154.3272  136.5857  189.1996 C   0  0  0  0  0  0  0  0  0  0  0  0
  155.3703  135.5263  188.8182 C   0  0  0  0  0  0  0  0  0  0  0  0
  151.3950  135.5943  191.3251 C   0  0  0  0  0  0  0  0  0  0  0  0
  149.9475  135.7957  191.5086 C   0  0  0  0  0  0  0  0  0  0  0  0
  149.6857  135.2201  192.8990 C   0  0  0  0  0  0  0  0  0  0  0  0
  151.0520  134.9612  193.5084 C   0  0  0  0  0  0  0  0  0  0  0  0
  151.0910  135.1829  194.8630 O   0  0  0  0  0  0  0  0  0  0  0  0
  150.2148  135.4409  195.2570 H   0  0  0  0  0  0  0  0  0  0  0  0
  2  1  1  0  0  0
  2  3  1  0  0  0
  3  4  1  0  0  0
  4  5  1  0  0  0
  5  6  1  0  0  0
  6  7  1  0  0  0
  7  8  1  0  0  0
  8  9  1  0  0  0
  9 10  2  0  0  0
 10 11  1  0  0  0
 11 12  2  0  0  0
 11 13  1  0  0  0
 13 14  1  0  0  0
 14 15  1  0  0  0
 15 16  1  0  0  0
  6 17  1  0  0  0
 17 18  1  0  0  0
 18 19  1  0  0  0
 19 20  1  0  0  0
 20 21  1  0  0  0
 17  2  1  0  0  0
 20  2  1  0  0  0
 15  5  1  0  0  0
 15  9  1  0  0  0
 21 22  1  0  0  0
M  END
> <minimizedAffinity>
-6.45462

> <CNNscore>
0.4541971087

> <CNNaffinity>
5.0752644539

> <CNN_VS>
2.3051705360

> <CNNaffinity_variance>
0.0917206854

$$$$
[H]O[C@@]1([H])C([H])([H])C([H])([H])[C@]2([H])[C@]1(C([H])([H])[H])C([H])([H])C([H])([H])[C@]1([H])[C@@]3(C([H])([H])[H])C(=C([H])C(=O)C([H])([H])C3([H])[H])C([H])([H])C([H])([H])[C@]12[H]


 22 25  0  0  0  0  0  0  0  0999 V2000
  155.0170  135.0378  187.9401 C   0  0  0  0  0  0  0  0  0  0  0  0
  155.8150  134.9419  189.1926 C   0  0  0  0  0  0  0  0  0  0  0  0
  155.5214  133.7295  190.0254 C   0  0  0  0  0  0  0  0  0  0  0  0
  154.1292  133.9061  190.5942 C   0  0  0  0  0  0  0  0  0  0  0  0
  154.0468  135.1177  191.4691 C   0  0  0  0  0  0  0  0  0  0  0  0
  154.3044  136.3556  190.6118 C   0  0  0  0  0  0  0  0  0  0  0  0
  154.3418  137.6119  191.4839 C   0  0  0  0  0  0  0  0  0  0  0  0
  153.1449  137.7889  192.3406 C   0  0  0  0  0  0  0  0  0  0  0  0
  152.3305  136.5708  192.5181 C   0  0  0  0  0  0  0  0  0  0  0  0
  151.0813  136.7402  192.9764 C   0  0  0  0  0  0  0  0  0  0  0  0
  150.1951  135.6073  193.1865 C   0  0  0  0  0  0  0  0  0  0  0  0
  149.2510  135.6966  193.9895 O   0  0  0  0  0  0  0  0  0  0  0  0
  150.4314  134.3676  192.4414 C   0  0  0  0  0  0  0  0  0  0  0  0
  151.6571  134.4600  191.5542 C   0  0  0  0  0  0  0  0  0  0  0  0
  152.7713  135.2086  192.2415 C   0  0  0  0  0  0  0  0  0  0  0  0
  153.0351  134.5366  193.5960 C   0  0  0  0  0  0  0  0  0  0  0  0
  155.6804  136.1788  190.0749 C   0  0  0  0  0  0  0  0  0  0  0  0
  156.1838  137.2303  189.1746 C   0  0  0  0  0  0  0  0  0  0  0  0
  157.3585  136.5562  188.4685 C   0  0  0  0  0  0  0  0  0  0  0  0
  157.2799  135.0856  188.8373 C   0  0  0  0  0  0  0  0  0  0  0  0
  157.6764  134.2511  187.8214 O   0  0  0  0  0  0  0  0  0  0  0  0
  157.9950  134.7262  187.0075 H   0  0  0  0  0  0  0  0  0  0  0  0
  2  1  1  0  0  0
  2  3  1  0  0  0
  3  4  1  0  0  0
  4  5  1  0  0  0
  5  6  1  0  0  0
  6  7  1  0  0  0
  7  8  1  0  0  0
  8  9  1  0  0  0
  9 10  2  0  0  0
 10 11  1  0  0  0
 11 12  2  0  0  0
 11 13  1  0  0  0
 13 14  1  0  0  0
 14 15  1  0  0  0
 15 16  1  0  0  0
  6 17  1  0  0  0
 17 18  1  0  0  0
 18 19  1  0  0  0
 19 20  1  0  0  0
 20 21  1  0  0  0
 17  2  1  0  0  0
 20  2  1  0  0  0
 15  5  1  0  0  0
 15  9  1  0  0  0
 21 22  1  0  0  0
M  END
> <minimizedAffinity>
-5.39153

> <CNNscore>
0.4522835314

> <CNNaffinity>
5.0312108994

> <CNN_VS>
2.2755339146

> <CNNaffinity_variance>
0.2783617377

$$$$
[H]O[C@@]1([H])C([H])([H])C([H])([H])[C@]2([H])[C@]1(C([H])([H])[H])C([H])([H])C([H])([H])[C@]1([H])[C@@]3(C([H])([H])[H])C(=C([H])C(=O)C([H])([H])C3([H])[H])C([H])([H])C([H])([H])[C@]12[H]


 22 25  0  0  0  0  0  0  0  0999 V2000
  152.4275  134.8949  194.0470 C   0  0  0  0  0  0  0  0  0  0  0  0
  152.0853  135.0644  192.6086 C   0  0  0  0  0  0  0  0  0  0  0  0
  151.9887  133.7817  191.8373 C   0  0  0  0  0  0  0  0  0  0  0  0
  153.3911  133.2216  191.7265 C   0  0  0  0  0  0  0  0  0  0  0  0
  154.2953  134.1568  190.9863 C   0  0  0  0  0  0  0  0  0  0  0  0
  154.4269  135.4473  191.7932 C   0  0  0  0  0  0  0  0  0  0  0  0
  155.2526  136.4787  191.0219 C   0  0  0  0  0  0  0  0  0  0  0  0
  156.5773  135.9828  190.5780 C   0  0  0  0  0  0  0  0  0  0  0  0
  156.7184  134.5137  190.5875 C   0  0  0  0  0  0  0  0  0  0  0  0
  157.9670  134.0258  190.5383 C   0  0  0  0  0  0  0  0  0  0  0  0
  158.2178  132.5940  190.5431 C   0  0  0  0  0  0  0  0  0  0  0  0
  159.2757  132.1463  190.0691 O   0  0  0  0  0  0  0  0  0  0  0  0
  157.2106  131.6941  191.1118 C   0  0  0  0  0  0  0  0  0  0  0  0
  155.9824  132.4425  191.5907 C   0  0  0  0  0  0  0  0  0  0  0  0
  155.6194  133.5568  190.6418 C   0  0  0  0  0  0  0  0  0  0  0  0
  155.4725  132.9592  189.2357 C   0  0  0  0  0  0  0  0  0  0  0  0
  153.0469  135.9964  191.8784 C   0  0  0  0  0  0  0  0  0  0  0  0
  152.8731  137.2442  192.6416 C   0  0  0  0  0  0  0  0  0  0  0  0
  151.3719  137.2794  192.9211 C   0  0  0  0  0  0  0  0  0  0  0  0
  150.8384  135.9182  192.5121 C   0  0  0  0  0  0  0  0  0  0  0  0
  149.8142  135.4756  193.3126 O   0  0  0  0  0  0  0  0  0  0  0  0
  149.5419  136.1227  194.0173 H   0  0  0  0  0  0  0  0  0  0  0  0
  2  1  1  0  0  0
  2  3  1  0  0  0
  3  4  1  0  0  0
  4  5  1  0  0  0
  5  6  1  0  0  0
  6  7  1  0  0  0
  7  8  1  0  0  0
  8  9  1  0  0  0
  9 10  2  0  0  0
 10 11  1  0  0  0
 11 12  2  0  0  0
 11 13  1  0  0  0
 13 14  1  0  0  0
 14 15  1  0  0  0
 15 16  1  0  0  0
  6 17  1  0  0  0
 17 18  1  0  0  0
 18 19  1  0  0  0
 19 20  1  0  0  0
 20 21  1  0  0  0
 17  2  1  0  0  0
 20  2  1  0  0  0
 15  5  1  0  0  0
 15  9  1  0  0  0
 21 22  1  0  0  0
M  END
> <minimizedAffinity>
-5.61957

> <CNNscore>
0.4227575362

> <CNNaffinity>
4.9292821884

> <CNN_VS>
2.0838911533

> <CNNaffinity_variance>
0.0857542679

$$$$
[H]O[C@@]1([H])C([H])([H])C([H])([H])[C@]2([H])[C@]1(C([H])([H])[H])C([H])([H])C([H])([H])[C@]1([H])[C@@]3(C([H])([H])[H])C(=C([H])C(=O)C([H])([H])C3([H])[H])C([H])([H])C([H])([H])[C@]12[H]


 22 25  0  0  0  0  0  0  0  0999 V2000
  153.7093  138.5699  184.4151 C   0  0  0  0  0  0  0  0  0  0  0  0
  152.8258  137.4886  184.9300 C   0  0  0  0  0  0  0  0  0  0  0  0
  151.9900  137.8792  186.1125 C   0  0  0  0  0  0  0  0  0  0  0  0
  152.9313  138.0531  187.2857 C   0  0  0  0  0  0  0  0  0  0  0  0
  153.6453  136.7773  187.6062 C   0  0  0  0  0  0  0  0  0  0  0  0
  154.5289  136.4021  186.4178 C   0  0  0  0  0  0  0  0  0  0  0  0
  155.1938  135.0446  186.6530 C   0  0  0  0  0  0  0  0  0  0  0  0
  155.9398  134.9501  187.9307 C   0  0  0  0  0  0  0  0  0  0  0  0
  155.5968  135.9894  188.9209 C   0  0  0  0  0  0  0  0  0  0  0  0
  156.4607  136.1707  189.9310 C   0  0  0  0  0  0  0  0  0  0  0  0
  156.2189  137.1685  190.9600 C   0  0  0  0  0  0  0  0  0  0  0  0
  156.7441  137.0471  192.0797 O   0  0  0  0  0  0  0  0  0  0  0  0
  155.3525  138.3112  190.6578 C   0  0  0  0  0  0  0  0  0  0  0  0
  154.7827  138.2397  189.2548 C   0  0  0  0  0  0  0  0  0  0  0  0
  154.4027  136.8260  188.8930 C   0  0  0  0  0  0  0  0  0  0  0  0
  153.4540  136.2934  189.9756 C   0  0  0  0  0  0  0  0  0  0  0  0
  153.5913  136.2160  185.2780 C   0  0  0  0  0  0  0  0  0  0  0  0
  154.1870  135.8735  183.9752 C   0  0  0  0  0  0  0  0  0  0  0  0
  153.0738  136.2013  182.9822 C   0  0  0  0  0  0  0  0  0  0  0  0
  152.0131  136.9452  183.7737 C   0  0  0  0  0  0  0  0  0  0  0  0
  151.3823  137.9242  183.0461 O   0  0  0  0  0  0  0  0  0  0  0  0
  151.6794  137.9799  182.0984 H   0  0  0  0  0  0  0  0  0  0  0  0
  2  1  1  0  0  0
  2  3  1  0  0  0
  3  4  1  0  0  0
  4  5  1  0  0  0
  5  6  1  0  0  0
  6  7  1  0  0  0
  7  8  1  0  0  0
  8  9  1  0  0  0
  9 10  2  0  0  0
 10 11  1  0  0  0
 11 12  2  0  0  0
 11 13  1  0  0  0
 13 14  1  0  0  0
 14 15  1  0  0  0
 15 16  1  0  0  0
  6 17  1  0  0  0
 17 18  1  0  0  0
 18 19  1  0  0  0
 19 20  1  0  0  0
 20 21  1  0  0  0
 17  2  1  0  0  0
 20  2  1  0  0  0
 15  5  1  0  0  0
 15  9  1  0  0  0
 21 22  1  0  0  0
M  END
> <minimizedAffinity>
-6.07051

> <CNNscore>
0.4184076488

> <CNNaffinity>
4.9656047821

> <CNN_VS>
2.0776469707

> <CNNaffinity_variance>
0.0424317829

$$$$
[H]OC(=O)C([H])([H])C([H])([H])[C@@]([H])(C(=O)N([H])[C@]([H])(C(=O)O[H])C([H])([H])c1c([H])c([H])c([H])c([H])c1[H])N([H])C(=O)[C@@]([H])(N([H])C(=O)[C@@]([H])(N([H])C(=O)[C@@]([H])(N([H])C(=O)[C@@]([H])(N([H])C(=O)c1c(O[H])c2c([H])c([H])c([H])c([H])c2n1[H])C([H])([H])c1c([H])c([H])c([H])c([H])c1[H])C([H])([H])C([H])(C([H])([H])[H])C([H])([H])[H])C([H])([H])C(=O)O[H])C([H])(C([H])([H])[H])C([H])([H])[H]


 78 81  0  0  0  0  0  0  0  0999 V2000
  155.1199  139.0119  185.0696 C   0  0  0  0  0  0  0  0  0  0  0  0
  153.9435  138.4263  184.4306 C   0  0  0  0  0  0  0  0  0  0  0  0
  153.5423  138.8688  183.3300 O   0  0  0  0  0  0  0  0  0  0  0  0
  153.2113  137.3470  185.0167 N   0  0  0  0  0  0  0  0  0  0  0  0
  153.5541  136.9692  185.9218 H   0  0  0  0  0  0  0  0  0  0  0  0
  152.0461  136.7629  184.4209 C   0  0  0  0  0  0  0  0  0  0  0  0
  150.8925  136.7772  185.3937 C   0  0  0  0  0  0  0  0  0  0  0  0
  149.8043  137.2719  184.9762 O   0  0  0  0  0  0  0  0  0  0  0  0
  151.0209  136.2774  186.6828 N   0  0  0  0  0  0  0  0  0  0  0  0
  152.0328  135.8643  186.8794 H   0  0  0  0  0  0  0  0  0  0  0  0
  150.1800  136.1292  187.7986 C   0  0  0  0  0  0  0  0  0  0  0  0
  150.6968  135.6417  189.0769 C   0  0  0  0  0  0  0  0  0  0  0  0
  151.9637  135.4767  189.1985 O   0  0  0  0  0  0  0  0  0  0  0  0
  149.9590  135.3234  190.2406 N   0  0  0  0  0  0  0  0  0  0  0  0
  148.9344  135.4013  190.2715 H   0  0  0  0  0  0  0  0  0  0  0  0
  150.6403  134.8663  191.4585 C   0  0  0  0  0  0  0  0  0  0  0  0
  150.3788  133.4480  191.7147 C   0  0  0  0  0  0  0  0  0  0  0  0
  149.1404  132.8555  191.7622 O   0  0  0  0  0  0  0  0  0  0  0  0
  151.3697  132.6724  191.9149 O   0  0  0  0  0  0  0  0  0  0  0  0
  148.9400  131.9370  192.0808 H   0  0  0  0  0  0  0  0  0  0  0  0
  150.2466  135.8254  192.5376 C   0  0  0  0  0  0  0  0  0  0  0  0
  150.7173  135.4765  193.8903 C   0  0  0  0  0  0  0  0  0  0  0  0
  149.7712  135.1215  194.8684 C   0  0  0  0  0  0  0  0  0  0  0  0
  150.1783  134.7678  196.1398 C   0  0  0  0  0  0  0  0  0  0  0  0
  151.5086  134.7440  196.5078 C   0  0  0  0  0  0  0  0  0  0  0  0
  152.4370  135.0948  195.5320 C   0  0  0  0  0  0  0  0  0  0  0  0
  152.0352  135.4483  194.2664 C   0  0  0  0  0  0  0  0  0  0  0  0
  148.7998  135.6249  187.4731 C   0  0  0  0  0  0  0  0  0  0  0  0
  147.7446  136.6538  187.8746 C   0  0  0  0  0  0  0  0  0  0  0  0
  146.8765  136.9123  186.7038 C   0  0  0  0  0  0  0  0  0  0  0  0
  147.0085  138.1057  186.0198 O   0  0  0  0  0  0  0  0  0  0  0  0
  146.0454  136.0684  186.3481 O   0  0  0  0  0  0  0  0  0  0  0  0
  146.8752  138.1766  185.0155 H   0  0  0  0  0  0  0  0  0  0  0  0
  152.3281  135.4372  183.8317 C   0  0  0  0  0  0  0  0  0  0  0  0
  152.5972  135.6153  182.3318 C   0  0  0  0  0  0  0  0  0  0  0  0
  153.4684  134.6718  184.4205 C   0  0  0  0  0  0  0  0  0  0  0  0
  155.1067  138.0591  187.3549 C   0  0  0  0  0  0  0  0  0  0  0  0
  154.0285  138.6877  187.5695 O   0  0  0  0  0  0  0  0  0  0  0  0
  155.7122  138.2084  186.0813 N   0  0  0  0  0  0  0  0  0  0  0  0
  156.6054  137.7109  185.9065 H   0  0  0  0  0  0  0  0  0  0  0  0
  155.6268  137.2367  188.4378 C   0  0  0  0  0  0  0  0  0  0  0  0
  156.5015  136.1518  188.0338 N   0  0  0  0  0  0  0  0  0  0  0  0
  156.1465  134.8524  188.5152 C   0  0  0  0  0  0  0  0  0  0  0  0
  155.1175  134.7566  189.2399 O   0  0  0  0  0  0  0  0  0  0  0  0
  157.3318  136.2445  187.4317 H   0  0  0  0  0  0  0  0  0  0  0  0
  156.9076  133.6074  188.2319 C   0  0  0  0  0  0  0  0  0  0  0  0
  156.9430  133.5313  186.7557 N   0  0  0  0  0  0  0  0  0  0  0  0
  157.0353  132.3019  186.0754 C   0  0  0  0  0  0  0  0  0  0  0  0
  157.1040  131.2318  186.7020 O   0  0  0  0  0  0  0  0  0  0  0  0
  156.9024  134.4054  186.2121 H   0  0  0  0  0  0  0  0  0  0  0  0
  157.0451  132.2644  184.5870 C   0  0  0  0  0  0  0  0  0  0  0  0
  156.2167  132.9227  183.7802 N   0  0  0  0  0  0  0  0  0  0  0  0
  156.4756  132.6408  182.4794 C   0  0  0  0  0  0  0  0  0  0  0  0
  155.9171  133.0421  181.2857 C   0  0  0  0  0  0  0  0  0  0  0  0
  156.4168  132.5529  180.0909 C   0  0  0  0  0  0  0  0  0  0  0  0
  157.4868  131.6520  180.0833 C   0  0  0  0  0  0  0  0  0  0  0  0
  158.0264  131.2669  181.2812 C   0  0  0  0  0  0  0  0  0  0  0  0
  157.5338  131.7508  182.4883 C   0  0  0  0  0  0  0  0  0  0  0  0
  157.8882  131.5177  183.8066 C   0  0  0  0  0  0  0  0  0  0  0  0
  158.9059  130.6839  184.2719 O   0  0  0  0  0  0  0  0  0  0  0  0
  155.4439  133.5813  184.0409 H   0  0  0  0  0  0  0  0  0  0  0  0
  159.4498  130.1860  183.5849 H   0  0  0  0  0  0  0  0  0  0  0  0
  158.3082  133.7589  188.7153 C   0  0  0  0  0  0  0  0  0  0  0  0
  158.6685  132.8527  189.8374 C   0  0  0  0  0  0  0  0  0  0  0  0
  159.6468  131.9029  189.6157 C   0  0  0  0  0  0  0  0  0  0  0  0
  160.0546  131.0048  190.5878 C   0  0  0  0  0  0  0  0  0  0  0  0
  159.4495  131.0812  191.8161 C   0  0  0  0  0  0  0  0  0  0  0  0
  158.4590  132.0405  192.0458 C   0  0  0  0  0  0  0  0  0  0  0  0
  158.0514  132.9277  191.0869 C   0  0  0  0  0  0  0  0  0  0  0  0
  156.3303  138.0888  189.4949 C   0  0  0  0  0  0  0  0  0  0  0  0
  154.4077  137.6712  190.8952 C   0  0  0  0  0  0  0  0  0  0  0  0
  155.9378  137.8880  190.8835 C   0  0  0  0  0  0  0  0  0  0  0  0
  156.5014  136.7578  191.6637 C   0  0  0  0  0  0  0  0  0  0  0  0
  156.1188  139.4319  184.0031 C   0  0  0  0  0  0  0  0  0  0  0  0
  157.4476  139.7664  184.4831 C   0  0  0  0  0  0  0  0  0  0  0  0
  158.6184  139.3931  183.7933 O   0  0  0  0  0  0  0  0  0  0  0  0
  157.6577  140.4097  185.5447 O   0  0  0  0  0  0  0  0  0  0  0  0
  159.2636  138.7245  184.2485 H   0  0  0  0  0  0  0  0  0  0  0  0
 71 72  1  0  0  0
 72 73  1  0  0  0
 72 70  1  0  0  0
 70 41  1  0  0  0
 41 42  1  0  0  0
 42 43  1  0  0  0
 43 44  2  0  0  0
 43 46  1  0  0  0
 46 63  1  0  0  0
 63 64  1  0  0  0
 64 65  2  0  0  0
 65 66  1  0  0  0
 66 67  2  0  0  0
 67 68  1  0  0  0
 68 69  2  0  0  0
 46 47  1  0  0  0
 47 48  1  0  0  0
 48 49  2  0  0  0
 48 51  1  0  0  0
 51 52  1  0  0  0
 52 53  1  0  0  0
 53 54  2  0  0  0
 54 55  1  0  0  0
 55 56  2  0  0  0
 56 57  1  0  0  0
 57 58  2  0  0  0
 58 59  1  0  0  0
 59 60  1  0  0  0
 41 37  1  0  0  0
 37 38  2  0  0  0
 37 39  1  0  0  0
 39  1  1  0  0  0
  1 74  1  0  0  0
 74 75  1  0  0  0
 75 76  1  0  0  0
 75 77  2  0  0  0
  1  2  1  0  0  0
  2  3  2  0  0  0
  2  4  1  0  0  0
  4  6  1  0  0  0
  6 34  1  0  0  0
 34 35  1  0  0  0
 34 36  1  0  0  0
  6  7  1  0  0  0
  7  8  2  0  0  0
  7  9  1  0  0  0
  9 11  1  0  0  0
 11 28  1  0  0  0
 28 29  1  0  0  0
 29 30  1  0  0  0
 30 31  1  0  0  0
 30 32  2  0  0  0
 11 12  1  0  0  0
 12 13  2  0  0  0
 12 14  1  0  0  0
 14 16  1  0  0  0
 16 21  1  0  0  0
 21 22  1  0  0  0
 22 23  2  0  0  0
 23 24  1  0  0  0
 24 25  2  0  0  0
 25 26  1  0  0  0
 26 27  2  0  0  0
 16 17  1  0  0  0
 17 18  1  0  0  0
 17 19  2  0  0  0
 69 64  1  0  0  0
 59 51  2  0  0  0
 27 22  1  0  0  0
 58 53  1  0  0  0
 42 45  1  0  0  0
 47 50  1  0  0  0
 52 61  1  0  0  0
 60 62  1  0  0  0
 39 40  1  0  0  0
 76 78  1  0  0  0
  4  5  1  0  0  0
  9 10  1  0  0  0
 31 33  1  0  0  0
 14 15  1  0  0  0
 18 20  1  0  0  0
M  END
> <minimizedAffinity>
-6.97927

> <CNNscore>
0.1699413359

> <CNNaffinity>
6.6236457825

> <CNN_VS>
1.1256312132

> <CNNaffinity_variance>
1.0780957937

$$$$
[H]OC(=O)C([H])([H])C([H])([H])[C@@]([H])(C(=O)N([H])[C@]([H])(C(=O)O[H])C([H])([H])c1c([H])c([H])c([H])c([H])c1[H])N([H])C(=O)[C@@]([H])(N([H])C(=O)[C@@]([H])(N([H])C(=O)[C@@]([H])(N([H])C(=O)[C@@]([H])(N([H])C(=O)c1c(O[H])c2c([H])c([H])c([H])c([H])c2n1[H])C([H])([H])c1c([H])c([H])c([H])c([H])c1[H])C([H])([H])C([H])(C([H])([H])[H])C([H])([H])[H])C([H])([H])C(=O)O[H])C([H])(C([H])([H])[H])C([H])([H])[H]


 78 81  0  0  0  0  0  0  0  0999 V2000
  154.5448  134.0440  184.1034 C   0  0  0  0  0  0  0  0  0  0  0  0
  153.9779  135.3733  184.3194 C   0  0  0  0  0  0  0  0  0  0  0  0
  153.1748  135.8551  183.4881 O   0  0  0  0  0  0  0  0  0  0  0  0
  154.3050  136.1690  185.4615 N   0  0  0  0  0  0  0  0  0  0  0  0
  154.9585  135.7623  186.1593 H   0  0  0  0  0  0  0  0  0  0  0  0
  153.7765  137.4810  185.6922 C   0  0  0  0  0  0  0  0  0  0  0  0
  154.4486  138.4866  184.7896 C   0  0  0  0  0  0  0  0  0  0  0  0
  155.6238  138.8363  185.1056 O   0  0  0  0  0  0  0  0  0  0  0  0
  153.8075  139.0051  183.6724 N   0  0  0  0  0  0  0  0  0  0  0  0
  152.7919  138.5792  183.5296 H   0  0  0  0  0  0  0  0  0  0  0  0
  154.1324  139.9124  182.6500 C   0  0  0  0  0  0  0  0  0  0  0  0
  155.3733  140.6853  182.6897 C   0  0  0  0  0  0  0  0  0  0  0  0
  155.3117  141.9187  183.0389 O   0  0  0  0  0  0  0  0  0  0  0  0
  156.6799  140.2349  182.3899 N   0  0  0  0  0  0  0  0  0  0  0  0
  156.8649  139.2702  182.0864 H   0  0  0  0  0  0  0  0  0  0  0  0
  157.8299  141.1409  182.5044 C   0  0  0  0  0  0  0  0  0  0  0  0
  158.2589  141.6257  181.1904 C   0  0  0  0  0  0  0  0  0  0  0  0
  157.5748  141.4605  180.0108 O   0  0  0  0  0  0  0  0  0  0  0  0
  159.3608  142.2599  181.1052 O   0  0  0  0  0  0  0  0  0  0  0  0
  157.9207  141.6480  179.0994 H   0  0  0  0  0  0  0  0  0  0  0  0
  158.8533  140.4100  183.3154 C   0  0  0  0  0  0  0  0  0  0  0  0
  159.5035  141.2067  184.3716 C   0  0  0  0  0  0  0  0  0  0  0  0
  158.8314  141.3933  185.5928 C   0  0  0  0  0  0  0  0  0  0  0  0
  159.4201  142.1156  186.6121 C   0  0  0  0  0  0  0  0  0  0  0  0
  160.6740  142.6793  186.4872 C   0  0  0  0  0  0  0  0  0  0  0  0
  161.3316  142.4870  185.2756 C   0  0  0  0  0  0  0  0  0  0  0  0
  160.7483  141.7698  184.2590 C   0  0  0  0  0  0  0  0  0  0  0  0
  152.9584  140.6818  182.1068 C   0  0  0  0  0  0  0  0  0  0  0  0
  152.3054  139.9205  180.9547 C   0  0  0  0  0  0  0  0  0  0  0  0
  151.1455  139.1720  181.4890 C   0  0  0  0  0  0  0  0  0  0  0  0
  151.3690  138.0606  182.2791 O   0  0  0  0  0  0  0  0  0  0  0  0
  149.9943  139.5403  181.2271 O   0  0  0  0  0  0  0  0  0  0  0  0
  150.7581  137.8074  183.0499 H   0  0  0  0  0  0  0  0  0  0  0  0
  153.7934  137.8433  187.1248 C   0  0  0  0  0  0  0  0  0  0  0  0
  152.9442  139.1060  187.3205 C   0  0  0  0  0  0  0  0  0  0  0  0
  153.3091  136.8047  188.0838 C   0  0  0  0  0  0  0  0  0  0  0  0
  156.5298  132.8198  184.9350 C   0  0  0  0  0  0  0  0  0  0  0  0
  156.8496  132.5968  183.7302 O   0  0  0  0  0  0  0  0  0  0  0  0
  155.3394  133.5523  185.1743 N   0  0  0  0  0  0  0  0  0  0  0  0
  155.0626  133.7216  186.1595 H   0  0  0  0  0  0  0  0  0  0  0  0
  157.4170  132.3039  185.9677 C   0  0  0  0  0  0  0  0  0  0  0  0
  157.0016  132.5608  187.3339 N   0  0  0  0  0  0  0  0  0  0  0  0
  157.4756  133.7809  187.9108 C   0  0  0  0  0  0  0  0  0  0  0  0
  158.2043  134.5232  187.1957 O   0  0  0  0  0  0  0  0  0  0  0  0
  156.3964  131.9501  187.9007 H   0  0  0  0  0  0  0  0  0  0  0  0
  157.1803  134.2336  189.2955 C   0  0  0  0  0  0  0  0  0  0  0  0
  158.1139  133.4568  190.1386 N   0  0  0  0  0  0  0  0  0  0  0  0
  157.6577  132.5598  191.1234 C   0  0  0  0  0  0  0  0  0  0  0  0
  156.4426  132.4014  191.3256 O   0  0  0  0  0  0  0  0  0  0  0  0
  159.1274  133.5806  190.0014 H   0  0  0  0  0  0  0  0  0  0  0  0
  158.6290  131.7780  191.9373 C   0  0  0  0  0  0  0  0  0  0  0  0
  158.6061  131.6321  193.2597 N   0  0  0  0  0  0  0  0  0  0  0  0
  159.6549  130.8864  193.6867 C   0  0  0  0  0  0  0  0  0  0  0  0
  160.0835  130.4617  194.9252 C   0  0  0  0  0  0  0  0  0  0  0  0
  161.2328  129.6974  195.0332 C   0  0  0  0  0  0  0  0  0  0  0  0
  161.9658  129.3507  193.8935 C   0  0  0  0  0  0  0  0  0  0  0  0
  161.5214  129.7834  192.6729 C   0  0  0  0  0  0  0  0  0  0  0  0
  160.3688  130.5517  192.5508 C   0  0  0  0  0  0  0  0  0  0  0  0
  159.7252  131.1096  191.4588 C   0  0  0  0  0  0  0  0  0  0  0  0
  160.1055  131.0206  190.1190 O   0  0  0  0  0  0  0  0  0  0  0  0
  157.9089  132.0147  193.9427 H   0  0  0  0  0  0  0  0  0  0  0  0
  160.9415  130.4992  189.9065 H   0  0  0  0  0  0  0  0  0  0  0  0
  157.5306  135.6745  189.4338 C   0  0  0  0  0  0  0  0  0  0  0  0
  156.4936  136.4926  190.1162 C   0  0  0  0  0  0  0  0  0  0  0  0
  155.5457  135.8355  190.8766 C   0  0  0  0  0  0  0  0  0  0  0  0
  154.5321  136.4981  191.5486 C   0  0  0  0  0  0  0  0  0  0  0  0
  154.4881  137.8647  191.4425 C   0  0  0  0  0  0  0  0  0  0  0  0
  155.4449  138.5345  190.6744 C   0  0  0  0  0  0  0  0  0  0  0  0
  156.4462  137.8831  190.0067 C   0  0  0  0  0  0  0  0  0  0  0  0
  157.6692  130.8065  185.7871 C   0  0  0  0  0  0  0  0  0  0  0  0
  159.5164  130.4592  184.2708 C   0  0  0  0  0  0  0  0  0  0  0  0
  159.0566  130.3639  185.7432 C   0  0  0  0  0  0  0  0  0  0  0  0
  160.0947  131.0795  186.5267 C   0  0  0  0  0  0  0  0  0  0  0  0
  153.4371  133.0789  183.7119 C   0  0  0  0  0  0  0  0  0  0  0  0
  152.6450  132.5525  184.8090 C   0  0  0  0  0  0  0  0  0  0  0  0
  151.3638  133.0476  185.1239 O   0  0  0  0  0  0  0  0  0  0  0  0
  153.0367  131.6211  185.5600 O   0  0  0  0  0  0  0  0  0  0  0  0
  151.2318  133.5228  186.0334 H   0  0  0  0  0  0  0  0  0  0  0  0
 71 72  1  0  0  0
 72 73  1  0  0  0
 72 70  1  0  0  0
 70 41  1  0  0  0
 41 42  1  0  0  0
 42 43  1  0  0  0
 43 44  2  0  0  0
 43 46  1  0  0  0
 46 63  1  0  0  0
 63 64  1  0  0  0
 64 65  2  0  0  0
 65 66  1  0  0  0
 66 67  2  0  0  0
 67 68  1  0  0  0
 68 69  2  0  0  0
 46 47  1  0  0  0
 47 48  1  0  0  0
 48 49  2  0  0  0
 48 51  1  0  0  0
 51 52  1  0  0  0
 52 53  1  0  0  0
 53 54  2  0  0  0
 54 55  1  0  0  0
 55 56  2  0  0  0
 56 57  1  0  0  0
 57 58  2  0  0  0
 58 59  1  0  0  0
 59 60  1  0  0  0
 41 37  1  0  0  0
 37 38  2  0  0  0
 37 39  1  0  0  0
 39  1  1  0  0  0
  1 74  1  0  0  0
 74 75  1  0  0  0
 75 76  1  0  0  0
 75 77  2  0  0  0
  1  2  1  0  0  0
  2  3  2  0  0  0
  2  4  1  0  0  0
  4  6  1  0  0  0
  6 34  1  0  0  0
 34 35  1  0  0  0
 34 36  1  0  0  0
  6  7  1  0  0  0
  7  8  2  0  0  0
  7  9  1  0  0  0
  9 11  1  0  0  0
 11 28  1  0  0  0
 28 29  1  0  0  0
 29 30  1  0  0  0
 30 31  1  0  0  0
 30 32  2  0  0  0
 11 12  1  0  0  0
 12 13  2  0  0  0
 12 14  1  0  0  0
 14 16  1  0  0  0
 16 21  1  0  0  0
 21 22  1  0  0  0
 22 23  2  0  0  0
 23 24  1  0  0  0
 24 25  2  0  0  0
 25 26  1  0  0  0
 26 27  2  0  0  0
 16 17  1  0  0  0
 17 18  1  0  0  0
 17 19  2  0  0  0
 69 64  1  0  0  0
 59 51  2  0  0  0
 27 22  1  0  0  0
 58 53  1  0  0  0
 42 45  1  0  0  0
 47 50  1  0  0  0
 52 61  1  0  0  0
 60 62  1  0  0  0
 39 40  1  0  0  0
 76 78  1  0  0  0
  4  5  1  0  0  0
  9 10  1  0  0  0
 31 33  1  0  0  0
 14 15  1  0  0  0
 18 20  1  0  0  0
M  END
> <minimizedAffinity>
-8.49164

> <CNNscore>
0.1630119383

> <CNNaffinity>
7.0270395279

> <CNN_VS>
1.1454913616

> <CNNaffinity_variance>
0.8455785513

$$$$
[H]OC(=O)C([H])([H])C([H])([H])[C@@]([H])(C(=O)N([H])[C@]([H])(C(=O)O[H])C([H])([H])c1c([H])c([H])c([H])c([H])c1[H])N([H])C(=O)[C@@]([H])(N([H])C(=O)[C@@]([H])(N([H])C(=O)[C@@]([H])(N([H])C(=O)[C@@]([H])(N([H])C(=O)c1c(O[H])c2c([H])c([H])c([H])c([H])c2n1[H])C([H])([H])c1c([H])c([H])c([H])c([H])c1[H])C([H])([H])C([H])(C([H])([H])[H])C([H])([H])[H])C([H])([H])C(=O)O[H])C([H])(C([H])([H])[H])C([H])([H])[H]


 78 81  0  0  0  0  0  0  0  0999 V2000
  154.6595  133.5135  185.8657 C   0  0  0  0  0  0  0  0  0  0  0  0
  154.0318  134.8047  186.1373 C   0  0  0  0  0  0  0  0  0  0  0  0
  152.8465  134.8537  186.5387 O   0  0  0  0  0  0  0  0  0  0  0  0
  154.7229  136.0442  185.9620 N   0  0  0  0  0  0  0  0  0  0  0  0
  155.7114  136.0025  185.6449 H   0  0  0  0  0  0  0  0  0  0  0  0
  154.1288  137.3253  186.2060 C   0  0  0  0  0  0  0  0  0  0  0  0
  153.9959  138.0993  184.9174 C   0  0  0  0  0  0  0  0  0  0  0  0
  153.0916  137.7181  184.1172 O   0  0  0  0  0  0  0  0  0  0  0  0
  154.8271  139.1719  184.6230 N   0  0  0  0  0  0  0  0  0  0  0  0
  155.5505  139.3848  185.4384 H   0  0  0  0  0  0  0  0  0  0  0  0
  154.9643  140.0843  183.5635 C   0  0  0  0  0  0  0  0  0  0  0  0
  156.1667  140.9045  183.4213 C   0  0  0  0  0  0  0  0  0  0  0  0
  156.2365  142.0026  184.0818 O   0  0  0  0  0  0  0  0  0  0  0  0
  157.3065  140.6341  182.6291 N   0  0  0  0  0  0  0  0  0  0  0  0
  157.3723  139.7921  182.0427 H   0  0  0  0  0  0  0  0  0  0  0  0
  158.4481  141.5577  182.6181 C   0  0  0  0  0  0  0  0  0  0  0  0
  158.7259  142.0451  181.2649 C   0  0  0  0  0  0  0  0  0  0  0  0
  159.0986  143.3248  180.9331 O   0  0  0  0  0  0  0  0  0  0  0  0
  158.6198  141.2309  180.2905 O   0  0  0  0  0  0  0  0  0  0  0  0
  159.1426  143.7055  180.0173 H   0  0  0  0  0  0  0  0  0  0  0  0
  159.5639  140.8447  183.3152 C   0  0  0  0  0  0  0  0  0  0  0  0
  160.1062  141.5340  184.5000 C   0  0  0  0  0  0  0  0  0  0  0  0
  161.4468  141.9591  184.4845 C   0  0  0  0  0  0  0  0  0  0  0  0
  161.9815  142.6271  185.5685 C   0  0  0  0  0  0  0  0  0  0  0  0
  161.2418  142.9072  186.6998 C   0  0  0  0  0  0  0  0  0  0  0  0
  159.9158  142.4843  186.7044 C   0  0  0  0  0  0  0  0  0  0  0  0
  159.3809  141.8184  185.6279 C   0  0  0  0  0  0  0  0  0  0  0  0
  153.6948  140.8045  183.1962 C   0  0  0  0  0  0  0  0  0  0  0  0
  153.6049  140.9948  181.6833 C   0  0  0  0  0  0  0  0  0  0  0  0
  152.5770  140.0685  181.1573 C   0  0  0  0  0  0  0  0  0  0  0  0
  152.6346  139.6834  179.8315 O   0  0  0  0  0  0  0  0  0  0  0  0
  151.6805  139.6493  181.8990 O   0  0  0  0  0  0  0  0  0  0  0  0
  152.3531  138.7590  179.5192 H   0  0  0  0  0  0  0  0  0  0  0  0
  154.8165  138.0600  187.2883 C   0  0  0  0  0  0  0  0  0  0  0  0
  153.7924  138.3939  188.3809 C   0  0  0  0  0  0  0  0  0  0  0  0
  155.9758  137.3720  187.9329 C   0  0  0  0  0  0  0  0  0  0  0  0
  156.9045  132.6487  186.4511 C   0  0  0  0  0  0  0  0  0  0  0  0
  157.1688  132.6061  185.2134 O   0  0  0  0  0  0  0  0  0  0  0  0
  155.6149  133.0986  186.8326 N   0  0  0  0  0  0  0  0  0  0  0  0
  155.3864  133.1177  187.8442 H   0  0  0  0  0  0  0  0  0  0  0  0
  157.9523  132.2327  187.3723 C   0  0  0  0  0  0  0  0  0  0  0  0
  157.5406  132.0678  188.7538 N   0  0  0  0  0  0  0  0  0  0  0  0
  158.1984  132.9095  189.7051 C   0  0  0  0  0  0  0  0  0  0  0  0
  159.0689  133.7146  189.2724 O   0  0  0  0  0  0  0  0  0  0  0  0
  156.8195  131.4139  189.0898 H   0  0  0  0  0  0  0  0  0  0  0  0
  157.9381  132.8978  191.1686 C   0  0  0  0  0  0  0  0  0  0  0  0
  156.5376  133.3553  191.2921 N   0  0  0  0  0  0  0  0  0  0  0  0
  156.1951  134.7209  191.2658 C   0  0  0  0  0  0  0  0  0  0  0  0
  157.0707  135.5940  191.1499 O   0  0  0  0  0  0  0  0  0  0  0  0
  155.7933  132.6520  191.4042 H   0  0  0  0  0  0  0  0  0  0  0  0
  154.7707  135.1417  191.3700 C   0  0  0  0  0  0  0  0  0  0  0  0
  154.2434  135.8941  192.3325 N   0  0  0  0  0  0  0  0  0  0  0  0
  152.9109  136.0618  192.1462 C   0  0  0  0  0  0  0  0  0  0  0  0
  151.9255  136.7276  192.8416 C   0  0  0  0  0  0  0  0  0  0  0  0
  150.6193  136.7007  192.3839 C   0  0  0  0  0  0  0  0  0  0  0  0
  150.2885  136.0018  191.2182 C   0  0  0  0  0  0  0  0  0  0  0  0
  151.2836  135.3474  190.5430 C   0  0  0  0  0  0  0  0  0  0  0  0
  152.5996  135.3665  190.9922 C   0  0  0  0  0  0  0  0  0  0  0  0
  153.7638  134.7930  190.5088 C   0  0  0  0  0  0  0  0  0  0  0  0
  153.9047  134.0056  189.3652 O   0  0  0  0  0  0  0  0  0  0  0  0
  154.7270  136.3283  193.1550 H   0  0  0  0  0  0  0  0  0  0  0  0
  153.0758  133.8214  188.8223 H   0  0  0  0  0  0  0  0  0  0  0  0
  158.0083  131.4993  191.6758 C   0  0  0  0  0  0  0  0  0  0  0  0
  159.2332  131.1951  192.4613 C   0  0  0  0  0  0  0  0  0  0  0  0
  159.1922  131.3898  193.8284 C   0  0  0  0  0  0  0  0  0  0  0  0
  160.2768  131.1448  194.6539 C   0  0  0  0  0  0  0  0  0  0  0  0
  161.4297  130.6877  194.0683 C   0  0  0  0  0  0  0  0  0  0  0  0
  161.4765  130.4889  192.6854 C   0  0  0  0  0  0  0  0  0  0  0  0
  160.4078  130.7326  191.8660 C   0  0  0  0  0  0  0  0  0  0  0  0
  158.6398  130.9541  186.8917 C   0  0  0  0  0  0  0  0  0  0  0  0
  160.5232  129.9495  188.0210 C   0  0  0  0  0  0  0  0  0  0  0  0
  160.0965  130.9330  186.9079 C   0  0  0  0  0  0  0  0  0  0  0  0
  160.8514  130.5127  185.7007 C   0  0  0  0  0  0  0  0  0  0  0  0
  153.5824  132.4671  185.6280 C   0  0  0  0  0  0  0  0  0  0  0  0
  153.2827  131.6054  186.7575 C   0  0  0  0  0  0  0  0  0  0  0  0
  152.3544  131.9611  187.7563 O   0  0  0  0  0  0  0  0  0  0  0  0
  153.8244  130.4826  186.9334 O   0  0  0  0  0  0  0  0  0  0  0  0
  152.7033  132.1121  188.7186 H   0  0  0  0  0  0  0  0  0  0  0  0
 71 72  1  0  0  0
 72 73  1  0  0  0
 72 70  1  0  0  0
 70 41  1  0  0  0
 41 42  1  0  0  0
 42 43  1  0  0  0
 43 44  2  0  0  0
 43 46  1  0  0  0
 46 63  1  0  0  0
 63 64  1  0  0  0
 64 65  2  0  0  0
 65 66  1  0  0  0
 66 67  2  0  0  0
 67 68  1  0  0  0
 68 69  2  0  0  0
 46 47  1  0  0  0
 47 48  1  0  0  0
 48 49  2  0  0  0
 48 51  1  0  0  0
 51 52  1  0  0  0
 52 53  1  0  0  0
 53 54  2  0  0  0
 54 55  1  0  0  0
 55 56  2  0  0  0
 56 57  1  0  0  0
 57 58  2  0  0  0
 58 59  1  0  0  0
 59 60  1  0  0  0
 41 37  1  0  0  0
 37 38  2  0  0  0
 37 39  1  0  0  0
 39  1  1  0  0  0
  1 74  1  0  0  0
 74 75  1  0  0  0
 75 76  1  0  0  0
 75 77  2  0  0  0
  1  2  1  0  0  0
  2  3  2  0  0  0
  2  4  1  0  0  0
  4  6  1  0  0  0
  6 34  1  0  0  0
 34 35  1  0  0  0
 34 36  1  0  0  0
  6  7  1  0  0  0
  7  8  2  0  0  0
  7  9  1  0  0  0
  9 11  1  0  0  0
 11 28  1  0  0  0
 28 29  1  0  0  0
 29 30  1  0  0  0
 30 31  1  0  0  0
 30 32  2  0  0  0
 11 12  1  0  0  0
 12 13  2  0  0  0
 12 14  1  0  0  0
 14 16  1  0  0  0
 16 21  1  0  0  0
 21 22  1  0  0  0
 22 23  2  0  0  0
 23 24  1  0  0  0
 24 25  2  0  0  0
 25 26  1  0  0  0
 26 27  2  0  0  0
 16 17  1  0  0  0
 17 18  1  0  0  0
 17 19  2  0  0  0
 69 64  1  0  0  0
 59 51  2  0  0  0
 27 22  1  0  0  0
 58 53  1  0  0  0
 42 45  1  0  0  0
 47 50  1  0  0  0
 52 61  1  0  0  0
 60 62  1  0  0  0
 39 40  1  0  0  0
 76 78  1  0  0  0
  4  5  1  0  0  0
  9 10  1  0  0  0
 31 33  1  0  0  0
 14 15  1  0  0  0
 18 20  1  0  0  0
M  END
> <minimizedAffinity>
-8.66409

> <CNNscore>
0.1627346873

> <CNNaffinity>
6.8185167313

> <CNN_VS>
1.1096092463

> <CNNaffinity_variance>
1.1043045521

$$$$
[H]OC(=O)C([H])([H])C([H])([H])[C@@]([H])(C(=O)N([H])[C@]([H])(C(=O)O[H])C([H])([H])c1c([H])c([H])c([H])c([H])c1[H])N([H])C(=O)[C@@]([H])(N([H])C(=O)[C@@]([H])(N([H])C(=O)[C@@]([H])(N([H])C(=O)[C@@]([H])(N([H])C(=O)c1c(O[H])c2c([H])c([H])c([H])c([H])c2n1[H])C([H])([H])c1c([H])c([H])c([H])c([H])c1[H])C([H])([H])C([H])(C([H])([H])[H])C([H])([H])[H])C([H])([H])C(=O)O[H])C([H])(C([H])([H])[H])C([H])([H])[H]


 78 81  0  0  0  0  0  0  0  0999 V2000
  155.8653  136.8638  187.1669 C   0  0  0  0  0  0  0  0  0  0  0  0
  156.3134  135.5509  187.6258 C   0  0  0  0  0  0  0  0  0  0  0  0
  155.6792  134.5220  187.2980 O   0  0  0  0  0  0  0  0  0  0  0  0
  157.4686  135.3814  188.4512 N   0  0  0  0  0  0  0  0  0  0  0  0
  158.0040  136.2335  188.7094 H   0  0  0  0  0  0  0  0  0  0  0  0
  157.9230  134.1087  188.9283 C   0  0  0  0  0  0  0  0  0  0  0  0
  157.3194  133.8050  190.2777 C   0  0  0  0  0  0  0  0  0  0  0  0
  157.3366  134.7408  191.1306 O   0  0  0  0  0  0  0  0  0  0  0  0
  156.7776  132.5603  190.5696 N   0  0  0  0  0  0  0  0  0  0  0  0
  156.8260  131.8630  189.7065 H   0  0  0  0  0  0  0  0  0  0  0  0
  156.1482  131.9654  191.6758 C   0  0  0  0  0  0  0  0  0  0  0  0
  156.8585  131.0143  192.5301 C   0  0  0  0  0  0  0  0  0  0  0  0
  156.1686  130.2558  193.3020 O   0  0  0  0  0  0  0  0  0  0  0  0
  158.2549  130.8078  192.6157 N   0  0  0  0  0  0  0  0  0  0  0  0
  158.9200  131.3588  192.0580 H   0  0  0  0  0  0  0  0  0  0  0  0
  158.8080  129.7867  193.5145 C   0  0  0  0  0  0  0  0  0  0  0  0
  159.5384  130.3965  194.6281 C   0  0  0  0  0  0  0  0  0  0  0  0
  159.9923  131.6920  194.6773 O   0  0  0  0  0  0  0  0  0  0  0  0
  159.7887  129.6846  195.6549 O   0  0  0  0  0  0  0  0  0  0  0  0
  160.6133  132.0721  195.3521 H   0  0  0  0  0  0  0  0  0  0  0  0
  159.5785  128.8436  192.6448 C   0  0  0  0  0  0  0  0  0  0  0  0
  160.9939  129.1976  192.4343 C   0  0  0  0  0  0  0  0  0  0  0  0
  161.9899  128.3762  192.9922 C   0  0  0  0  0  0  0  0  0  0  0  0
  163.3260  128.6657  192.7966 C   0  0  0  0  0  0  0  0  0  0  0  0
  163.7439  129.7540  192.0573 C   0  0  0  0  0  0  0  0  0  0  0  0
  162.7505  130.5593  191.5078 C   0  0  0  0  0  0  0  0  0  0  0  0
  161.4202  130.2747  191.7013 C   0  0  0  0  0  0  0  0  0  0  0  0
  154.7020  131.6136  191.4523 C   0  0  0  0  0  0  0  0  0  0  0  0
  154.3089  131.8610  189.9971 C   0  0  0  0  0  0  0  0  0  0  0  0
  153.4275  133.0492  189.9480 C   0  0  0  0  0  0  0  0  0  0  0  0
  152.0752  132.8741  189.7240 O   0  0  0  0  0  0  0  0  0  0  0  0
  153.9009  134.1809  190.1048 O   0  0  0  0  0  0  0  0  0  0  0  0
  151.3705  133.4712  190.1461 H   0  0  0  0  0  0  0  0  0  0  0  0
  159.3953  133.9904  188.8804 C   0  0  0  0  0  0  0  0  0  0  0  0
  159.7601  132.5247  188.6109 C   0  0  0  0  0  0  0  0  0  0  0  0
  160.1027  134.8378  187.8732 C   0  0  0  0  0  0  0  0  0  0  0  0
  154.5286  137.6923  185.2544 C   0  0  0  0  0  0  0  0  0  0  0  0
  155.4829  138.4772  184.9768 O   0  0  0  0  0  0  0  0  0  0  0  0
  154.6781  136.8503  186.3857 N   0  0  0  0  0  0  0  0  0  0  0  0
  153.8919  136.2189  186.6288 H   0  0  0  0  0  0  0  0  0  0  0  0
  153.3626  137.7247  184.3833 C   0  0  0  0  0  0  0  0  0  0  0  0
  152.0780  137.6935  185.0573 N   0  0  0  0  0  0  0  0  0  0  0  0
  151.3251  136.4864  184.9087 C   0  0  0  0  0  0  0  0  0  0  0  0
  151.8315  135.5612  184.2151 O   0  0  0  0  0  0  0  0  0  0  0  0
  151.6836  138.4532  185.6298 H   0  0  0  0  0  0  0  0  0  0  0  0
  149.9843  136.2461  185.5039 C   0  0  0  0  0  0  0  0  0  0  0  0
  150.2008  136.3952  186.9588 N   0  0  0  0  0  0  0  0  0  0  0  0
  149.9501  135.3434  187.8608 C   0  0  0  0  0  0  0  0  0  0  0  0
  149.5217  134.2492  187.4586 O   0  0  0  0  0  0  0  0  0  0  0  0
  150.5416  137.2976  187.3204 H   0  0  0  0  0  0  0  0  0  0  0  0
  150.2021  135.5246  189.3170 C   0  0  0  0  0  0  0  0  0  0  0  0
  151.2913  136.0584  189.8642 N   0  0  0  0  0  0  0  0  0  0  0  0
  151.2152  136.0426  191.2178 C   0  0  0  0  0  0  0  0  0  0  0  0
  152.0576  136.4556  192.2267 C   0  0  0  0  0  0  0  0  0  0  0  0
  151.6847  136.2879  193.5493 C   0  0  0  0  0  0  0  0  0  0  0  0
  150.4569  135.7011  193.8730 C   0  0  0  0  0  0  0  0  0  0  0  0
  149.6355  135.2983  192.8544 C   0  0  0  0  0  0  0  0  0  0  0  0
  149.9982  135.4610  191.5219 C   0  0  0  0  0  0  0  0  0  0  0  0
  149.3668  135.1387  190.3321 C   0  0  0  0  0  0  0  0  0  0  0  0
  148.1185  134.5346  190.1761 O   0  0  0  0  0  0  0  0  0  0  0  0
  152.1335  136.4530  189.3806 H   0  0  0  0  0  0  0  0  0  0  0  0
  147.6092  134.2966  191.0126 H   0  0  0  0  0  0  0  0  0  0  0  0
  149.0468  137.3185  185.0691 C   0  0  0  0  0  0  0  0  0  0  0  0
  148.8673  137.4128  183.5963 C   0  0  0  0  0  0  0  0  0  0  0  0
  148.8065  138.6711  183.0295 C   0  0  0  0  0  0  0  0  0  0  0  0
  148.6349  138.8743  181.6704 C   0  0  0  0  0  0  0  0  0  0  0  0
  148.5253  137.7647  180.8718 C   0  0  0  0  0  0  0  0  0  0  0  0
  148.5864  136.4891  181.4402 C   0  0  0  0  0  0  0  0  0  0  0  0
  148.7529  136.2844  182.7831 C   0  0  0  0  0  0  0  0  0  0  0  0
  153.4094  138.9240  183.4358 C   0  0  0  0  0  0  0  0  0  0  0  0
  152.6246  140.3109  181.6213 C   0  0  0  0  0  0  0  0  0  0  0  0
  152.3747  139.0077  182.4135 C   0  0  0  0  0  0  0  0  0  0  0  0
  152.2492  137.9417  181.3880 C   0  0  0  0  0  0  0  0  0  0  0  0
  155.7682  137.8089  188.3539 C   0  0  0  0  0  0  0  0  0  0  0  0
  154.6055  137.6317  189.2052 C   0  0  0  0  0  0  0  0  0  0  0  0
  153.2875  137.6982  188.7108 O   0  0  0  0  0  0  0  0  0  0  0  0
  154.6815  137.4077  190.4418 O   0  0  0  0  0  0  0  0  0  0  0  0
  152.6786  138.4671  189.0401 H   0  0  0  0  0  0  0  0  0  0  0  0
 71 72  1  0  0  0
 72 73  1  0  0  0
 72 70  1  0  0  0
 70 41  1  0  0  0
 41 42  1  0  0  0
 42 43  1  0  0  0
 43 44  2  0  0  0
 43 46  1  0  0  0
 46 63  1  0  0  0
 63 64  1  0  0  0
 64 65  2  0  0  0
 65 66  1  0  0  0
 66 67  2  0  0  0
 67 68  1  0  0  0
 68 69  2  0  0  0
 46 47  1  0  0  0
 47 48  1  0  0  0
 48 49  2  0  0  0
 48 51  1  0  0  0
 51 52  1  0  0  0
 52 53  1  0  0  0
 53 54  2  0  0  0
 54 55  1  0  0  0
 55 56  2  0  0  0
 56 57  1  0  0  0
 57 58  2  0  0  0
 58 59  1  0  0  0
 59 60  1  0  0  0
 41 37  1  0  0  0
 37 38  2  0  0  0
 37 39  1  0  0  0
 39  1  1  0  0  0
  1 74  1  0  0  0
 74 75  1  0  0  0
 75 76  1  0  0  0
 75 77  2  0  0  0
  1  2  1  0  0  0
  2  3  2  0  0  0
  2  4  1  0  0  0
  4  6  1  0  0  0
  6 34  1  0  0  0
 34 35  1  0  0  0
 34 36  1  0  0  0
  6  7  1  0  0  0
  7  8  2  0  0  0
  7  9  1  0  0  0
  9 11  1  0  0  0
 11 28  1  0  0  0
 28 29  1  0  0  0
 29 30  1  0  0  0
 30 31  1  0  0  0
 30 32  2  0  0  0
 11 12  1  0  0  0
 12 13  2  0  0  0
 12 14  1  0  0  0
 14 16  1  0  0  0
 16 21  1  0  0  0
 21 22  1  0  0  0
 22 23  2  0  0  0
 23 24  1  0  0  0
 24 25  2  0  0  0
 25 26  1  0  0  0
 26 27  2  0  0  0
 16 17  1  0  0  0
 17 18  1  0  0  0
 17 19  2  0  0  0
 69 64  1  0  0  0
 59 51  2  0  0  0
 27 22  1  0  0  0
 58 53  1  0  0  0
 42 45  1  0  0  0
 47 50  1  0  0  0
 52 61  1  0  0  0
 60 62  1  0  0  0
 39 40  1  0  0  0
 76 78  1  0  0  0
  4  5  1  0  0  0
  9 10  1  0  0  0
 31 33  1  0  0  0
 14 15  1  0  0  0
 18 20  1  0  0  0
M  END
> <minimizedAffinity>
-6.49736

> <CNNscore>
0.1306779236

> <CNNaffinity>
6.1646723747

> <CNN_VS>
0.8055865765

> <CNNaffinity_variance>
0.7287742496

$$$$
[H]OC(=O)C([H])([H])C([H])([H])[C@@]([H])(C(=O)N([H])[C@]([H])(C(=O)O[H])C([H])([H])c1c([H])c([H])c([H])c([H])c1[H])N([H])C(=O)[C@@]([H])(N([H])C(=O)[C@@]([H])(N([H])C(=O)[C@@]([H])(N([H])C(=O)[C@@]([H])(N([H])C(=O)c1c(O[H])c2c([H])c([H])c([H])c([H])c2n1[H])C([H])([H])c1c([H])c([H])c([H])c([H])c1[H])C([H])([H])C([H])(C([H])([H])[H])C([H])([H])[H])C([H])([H])C(=O)O[H])C([H])(C([H])([H])[H])C([H])([H])[H]


 78 81  0  0  0  0  0  0  0  0999 V2000
  152.2816  135.3684  187.7026 C   0  0  0  0  0  0  0  0  0  0  0  0
  150.8445  135.2612  187.4615 C   0  0  0  0  0  0  0  0  0  0  0  0
  150.3315  134.1456  187.2153 O   0  0  0  0  0  0  0  0  0  0  0  0
  149.9758  136.3965  187.4935 N   0  0  0  0  0  0  0  0  0  0  0  0
  150.3990  137.3194  187.7140 H   0  0  0  0  0  0  0  0  0  0  0  0
  148.5660  136.3241  187.2465 C   0  0  0  0  0  0  0  0  0  0  0  0
  148.1368  137.4278  186.3111 C   0  0  0  0  0  0  0  0  0  0  0  0
  148.1031  138.5985  186.7925 O   0  0  0  0  0  0  0  0  0  0  0  0
  147.7918  137.1706  184.9909 N   0  0  0  0  0  0  0  0  0  0  0  0
  147.8944  136.0968  184.7266 H   0  0  0  0  0  0  0  0  0  0  0  0
  147.3758  137.9337  183.8871 C   0  0  0  0  0  0  0  0  0  0  0  0
  148.3447  138.4968  182.9475 C   0  0  0  0  0  0  0  0  0  0  0  0
  148.2054  139.7214  182.5897 O   0  0  0  0  0  0  0  0  0  0  0  0
  149.4589  137.8488  182.3656 N   0  0  0  0  0  0  0  0  0  0  0  0
  149.6761  136.8630  182.5608 H   0  0  0  0  0  0  0  0  0  0  0  0
  150.3540  138.5713  181.4529 C   0  0  0  0  0  0  0  0  0  0  0  0
  149.9151  138.4399  180.0615 C   0  0  0  0  0  0  0  0  0  0  0  0
  150.2434  139.2884  179.0324 O   0  0  0  0  0  0  0  0  0  0  0  0
  149.1611  137.4611  179.7506 O   0  0  0  0  0  0  0  0  0  0  0  0
  149.8365  139.2993  178.1270 H   0  0  0  0  0  0  0  0  0  0  0  0
  151.7374  138.0946  181.7664 C   0  0  0  0  0  0  0  0  0  0  0  0
  152.6508  139.1229  182.2967 C   0  0  0  0  0  0  0  0  0  0  0  0
  152.7566  140.3516  181.6206 C   0  0  0  0  0  0  0  0  0  0  0  0
  153.5860  141.3457  182.1014 C   0  0  0  0  0  0  0  0  0  0  0  0
  154.3378  141.1876  183.2483 C   0  0  0  0  0  0  0  0  0  0  0  0
  154.2244  139.9690  183.9112 C   0  0  0  0  0  0  0  0  0  0  0  0
  153.4009  138.9774  183.4348 C   0  0  0  0  0  0  0  0  0  0  0  0
  146.2061  138.8394  184.1640 C   0  0  0  0  0  0  0  0  0  0  0  0
  144.8941  138.0618  184.0789 C   0  0  0  0  0  0  0  0  0  0  0  0
  144.1913  138.1902  185.3754 C   0  0  0  0  0  0  0  0  0  0  0  0
  144.7714  137.6562  186.5101 O   0  0  0  0  0  0  0  0  0  0  0  0
  143.0994  138.7677  185.4357 O   0  0  0  0  0  0  0  0  0  0  0  0
  144.6749  138.0849  187.4257 H   0  0  0  0  0  0  0  0  0  0  0  0
  147.7851  136.2508  188.4990 C   0  0  0  0  0  0  0  0  0  0  0  0
  146.6123  135.2841  188.2889 C   0  0  0  0  0  0  0  0  0  0  0  0
  148.5249  135.8239  189.7252 C   0  0  0  0  0  0  0  0  0  0  0  0
  153.1813  136.5477  189.6852 C   0  0  0  0  0  0  0  0  0  0  0  0
  153.3249  137.5763  188.9605 O   0  0  0  0  0  0  0  0  0  0  0  0
  152.6580  135.3804  189.0731 N   0  0  0  0  0  0  0  0  0  0  0  0
  152.5559  134.5295  189.6573 H   0  0  0  0  0  0  0  0  0  0  0  0
  153.5656  136.6583  191.0850 C   0  0  0  0  0  0  0  0  0  0  0  0
  152.9214  135.7208  191.9858 N   0  0  0  0  0  0  0  0  0  0  0  0
  152.2348  136.2981  193.1000 C   0  0  0  0  0  0  0  0  0  0  0  0
  152.2443  137.5559  193.2068 O   0  0  0  0  0  0  0  0  0  0  0  0
  152.9129  134.6967  191.8784 H   0  0  0  0  0  0  0  0  0  0  0  0
  151.5188  135.5234  194.1472 C   0  0  0  0  0  0  0  0  0  0  0  0
  151.0349  134.3183  193.4405 N   0  0  0  0  0  0  0  0  0  0  0  0
  149.7036  134.1989  192.9976 C   0  0  0  0  0  0  0  0  0  0  0  0
  148.8817  135.1074  193.2013 O   0  0  0  0  0  0  0  0  0  0  0  0
  151.6926  133.5436  193.2718 H   0  0  0  0  0  0  0  0  0  0  0  0
  149.2595  132.9788  192.2688 C   0  0  0  0  0  0  0  0  0  0  0  0
  148.3539  132.0995  192.6900 N   0  0  0  0  0  0  0  0  0  0  0  0
  148.2083  131.0855  191.8017 C   0  0  0  0  0  0  0  0  0  0  0  0
  147.4285  129.9503  191.7675 C   0  0  0  0  0  0  0  0  0  0  0  0
  147.5197  129.0823  190.6929 C   0  0  0  0  0  0  0  0  0  0  0  0
  148.3988  129.3472  189.6376 C   0  0  0  0  0  0  0  0  0  0  0  0
  149.1641  130.4811  189.6924 C   0  0  0  0  0  0  0  0  0  0  0  0
  149.0820  131.3610  190.7661 C   0  0  0  0  0  0  0  0  0  0  0  0
  149.7373  132.5451  191.0602 C   0  0  0  0  0  0  0  0  0  0  0  0
  150.7040  133.1891  190.2867 O   0  0  0  0  0  0  0  0  0  0  0  0
  147.7938  132.1188  193.5759 H   0  0  0  0  0  0  0  0  0  0  0  0
  150.9684  132.7548  189.4165 H   0  0  0  0  0  0  0  0  0  0  0  0
  152.4865  135.0835  195.1904 C   0  0  0  0  0  0  0  0  0  0  0  0
  151.9500  135.1218  196.5764 C   0  0  0  0  0  0  0  0  0  0  0  0
  150.6188  134.8047  196.7656 C   0  0  0  0  0  0  0  0  0  0  0  0
  150.0149  134.8150  198.0119 C   0  0  0  0  0  0  0  0  0  0  0  0
  150.7910  135.1551  199.0903 C   0  0  0  0  0  0  0  0  0  0  0  0
  152.1386  135.4767  198.9043 C   0  0  0  0  0  0  0  0  0  0  0  0
  152.7381  135.4704  197.6741 C   0  0  0  0  0  0  0  0  0  0  0  0
  155.0824  136.5641  191.2544 C   0  0  0  0  0  0  0  0  0  0  0  0
  156.7075  137.8784  190.0447 C   0  0  0  0  0  0  0  0  0  0  0  0
  155.8265  137.8153  191.3129 C   0  0  0  0  0  0  0  0  0  0  0  0
  155.1057  139.1123  191.3562 C   0  0  0  0  0  0  0  0  0  0  0  0
  153.0093  134.2940  186.9103 C   0  0  0  0  0  0  0  0  0  0  0  0
  154.3712  134.6136  186.5213 C   0  0  0  0  0  0  0  0  0  0  0  0
  155.0235  135.7893  186.9434 O   0  0  0  0  0  0  0  0  0  0  0  0
  155.0709  133.8730  185.7818 O   0  0  0  0  0  0  0  0  0  0  0  0
  155.2802  136.4913  186.2281 H   0  0  0  0  0  0  0  0  0  0  0  0
 71 72  1  0  0  0
 72 73  1  0  0  0
 72 70  1  0  0  0
 70 41  1  0  0  0
 41 42  1  0  0  0
 42 43  1  0  0  0
 43 44  2  0  0  0
 43 46  1  0  0  0
 46 63  1  0  0  0
 63 64  1  0  0  0
 64 65  2  0  0  0
 65 66  1  0  0  0
 66 67  2  0  0  0
 67 68  1  0  0  0
 68 69  2  0  0  0
 46 47  1  0  0  0
 47 48  1  0  0  0
 48 49  2  0  0  0
 48 51  1  0  0  0
 51 52  1  0  0  0
 52 53  1  0  0  0
 53 54  2  0  0  0
 54 55  1  0  0  0
 55 56  2  0  0  0
 56 57  1  0  0  0
 57 58  2  0  0  0
 58 59  1  0  0  0
 59 60  1  0  0  0
 41 37  1  0  0  0
 37 38  2  0  0  0
 37 39  1  0  0  0
 39  1  1  0  0  0
  1 74  1  0  0  0
 74 75  1  0  0  0
 75 76  1  0  0  0
 75 77  2  0  0  0
  1  2  1  0  0  0
  2  3  2  0  0  0
  2  4  1  0  0  0
  4  6  1  0  0  0
  6 34  1  0  0  0
 34 35  1  0  0  0
 34 36  1  0  0  0
  6  7  1  0  0  0
  7  8  2  0  0  0
  7  9  1  0  0  0
  9 11  1  0  0  0
 11 28  1  0  0  0
 28 29  1  0  0  0
 29 30  1  0  0  0
 30 31  1  0  0  0
 30 32  2  0  0  0
 11 12  1  0  0  0
 12 13  2  0  0  0
 12 14  1  0  0  0
 14 16  1  0  0  0
 16 21  1  0  0  0
 21 22  1  0  0  0
 22 23  2  0  0  0
 23 24  1  0  0  0
 24 25  2  0  0  0
 25 26  1  0  0  0
 26 27  2  0  0  0
 16 17  1  0  0  0
 17 18  1  0  0  0
 17 19  2  0  0  0
 69 64  1  0  0  0
 59 51  2  0  0  0
 27 22  1  0  0  0
 58 53  1  0  0  0
 42 45  1  0  0  0
 47 50  1  0  0  0
 52 61  1  0  0  0
 60 62  1  0  0  0
 39 40  1  0  0  0
 76 78  1  0  0  0
  4  5  1  0  0  0
  9 10  1  0  0  0
 31 33  1  0  0  0
 14 15  1  0  0  0
 18 20  1  0  0  0
M  END
> <minimizedAffinity>
-7.82253

> <CNNscore>
0.1140203103

> <CNNaffinity>
6.2259812355

> <CNN_VS>
0.7098883390

> <CNNaffinity_variance>
0.9859201312

$$$$
[H]OC(=O)C([H])([H])C([H])([H])[C@@]([H])(C(=O)N([H])[C@]([H])(C(=O)O[H])C([H])([H])c1c([H])c([H])c([H])c([H])c1[H])N([H])C(=O)[C@@]([H])(N([H])C(=O)[C@@]([H])(N([H])C(=O)[C@@]([H])(N([H])C(=O)[C@@]([H])(N([H])C(=O)c1c(O[H])c2c([H])c([H])c([H])c([H])c2n1[H])C([H])([H])c1c([H])c([H])c([H])c([H])c1[H])C([H])([H])C([H])(C([H])([H])[H])C([H])([H])[H])C([H])([H])C(=O)O[H])C([H])(C([H])([H])[H])C([H])([H])[H]


 78 81  0  0  0  0  0  0  0  0999 V2000
  154.3086  138.8541  184.1140 C   0  0  0  0  0  0  0  0  0  0  0  0
  155.2120  138.5801  185.2293 C   0  0  0  0  0  0  0  0  0  0  0  0
  156.3157  139.1674  185.3011 O   0  0  0  0  0  0  0  0  0  0  0  0
  154.8880  137.6508  186.2666 N   0  0  0  0  0  0  0  0  0  0  0  0
  153.9653  137.1760  186.2155 H   0  0  0  0  0  0  0  0  0  0  0  0
  155.7597  137.3510  187.3639 C   0  0  0  0  0  0  0  0  0  0  0  0
  155.7508  135.8704  187.6556 C   0  0  0  0  0  0  0  0  0  0  0  0
  154.6551  135.2627  187.4726 O   0  0  0  0  0  0  0  0  0  0  0  0
  156.8860  135.2101  188.1065 N   0  0  0  0  0  0  0  0  0  0  0  0
  157.7633  135.8854  188.1944 H   0  0  0  0  0  0  0  0  0  0  0  0
  157.2184  133.8889  188.4495 C   0  0  0  0  0  0  0  0  0  0  0  0
  157.1556  133.4279  189.8360 C   0  0  0  0  0  0  0  0  0  0  0  0
  156.8765  134.2840  190.7504 O   0  0  0  0  0  0  0  0  0  0  0  0
  157.3624  132.1148  190.3186 N   0  0  0  0  0  0  0  0  0  0  0  0
  157.6039  131.3377  189.6902 H   0  0  0  0  0  0  0  0  0  0  0  0
  157.2367  131.8138  191.7503 C   0  0  0  0  0  0  0  0  0  0  0  0
  158.5466  131.5766  192.3617 C   0  0  0  0  0  0  0  0  0  0  0  0
  159.6986  131.2472  191.6900 O   0  0  0  0  0  0  0  0  0  0  0  0
  158.6554  131.6779  193.6272 O   0  0  0  0  0  0  0  0  0  0  0  0
  160.5491  130.9384  192.0981 H   0  0  0  0  0  0  0  0  0  0  0  0
  156.2387  130.7036  191.8538 C   0  0  0  0  0  0  0  0  0  0  0  0
  154.9965  131.0408  192.5724 C   0  0  0  0  0  0  0  0  0  0  0  0
  154.1655  132.0509  192.0555 C   0  0  0  0  0  0  0  0  0  0  0  0
  152.9836  132.3777  192.6908 C   0  0  0  0  0  0  0  0  0  0  0  0
  152.5652  131.7414  193.8422 C   0  0  0  0  0  0  0  0  0  0  0  0
  153.3936  130.7419  194.3443 C   0  0  0  0  0  0  0  0  0  0  0  0
  154.5708  130.4151  193.7153 C   0  0  0  0  0  0  0  0  0  0  0  0
  158.3765  133.3191  187.6753 C   0  0  0  0  0  0  0  0  0  0  0  0
  157.8824  132.6114  186.4150 C   0  0  0  0  0  0  0  0  0  0  0  0
  157.0770  131.4388  186.8243 C   0  0  0  0  0  0  0  0  0  0  0  0
  155.7721  131.3324  186.3823 O   0  0  0  0  0  0  0  0  0  0  0  0
  157.5703  130.5701  187.5533 O   0  0  0  0  0  0  0  0  0  0  0  0
  155.3392  130.4386  186.1701 H   0  0  0  0  0  0  0  0  0  0  0  0
  155.4870  138.2038  188.5397 C   0  0  0  0  0  0  0  0  0  0  0  0
  153.9732  138.4339  188.6370 C   0  0  0  0  0  0  0  0  0  0  0  0
  155.9654  137.6954  189.8609 C   0  0  0  0  0  0  0  0  0  0  0  0
  152.3390  137.7110  183.1421 C   0  0  0  0  0  0  0  0  0  0  0  0
  152.9309  137.7252  182.0228 O   0  0  0  0  0  0  0  0  0  0  0  0
  153.0086  138.2954  184.2471 N   0  0  0  0  0  0  0  0  0  0  0  0
  152.5206  138.3034  185.1624 H   0  0  0  0  0  0  0  0  0  0  0  0
  151.0221  137.0924  183.1931 C   0  0  0  0  0  0  0  0  0  0  0  0
  150.2318  137.4011  184.3702 N   0  0  0  0  0  0  0  0  0  0  0  0
  149.3275  136.3795  184.7997 C   0  0  0  0  0  0  0  0  0  0  0  0
  149.2916  135.3094  184.1311 O   0  0  0  0  0  0  0  0  0  0  0  0
  150.2812  138.2754  184.9122 H   0  0  0  0  0  0  0  0  0  0  0  0
  148.4192  136.4904  185.9712 C   0  0  0  0  0  0  0  0  0  0  0  0
  149.3287  136.4948  187.1368 N   0  0  0  0  0  0  0  0  0  0  0  0
  149.0286  135.7901  188.3183 C   0  0  0  0  0  0  0  0  0  0  0  0
  147.9718  135.1463  188.4238 O   0  0  0  0  0  0  0  0  0  0  0  0
  150.2052  137.0332  187.0810 H   0  0  0  0  0  0  0  0  0  0  0  0
  149.9808  135.7998  189.4630 C   0  0  0  0  0  0  0  0  0  0  0  0
  149.6582  135.8862  190.7510 N   0  0  0  0  0  0  0  0  0  0  0  0
  150.7666  135.9033  191.5317 C   0  0  0  0  0  0  0  0  0  0  0  0
  150.9766  135.9876  192.8906 C   0  0  0  0  0  0  0  0  0  0  0  0
  152.2675  135.9902  193.3907 C   0  0  0  0  0  0  0  0  0  0  0  0
  153.3648  135.9078  192.5272 C   0  0  0  0  0  0  0  0  0  0  0  0
  153.1328  135.8247  191.1804 C   0  0  0  0  0  0  0  0  0  0  0  0
  151.8412  135.8212  190.6653 C   0  0  0  0  0  0  0  0  0  0  0  0
  151.3472  135.7560  189.3730 C   0  0  0  0  0  0  0  0  0  0  0  0
  152.0843  135.6642  188.1916 O   0  0  0  0  0  0  0  0  0  0  0  0
  148.7025  135.9418  191.1782 H   0  0  0  0  0  0  0  0  0  0  0  0
  153.0890  135.6465  188.2704 H   0  0  0  0  0  0  0  0  0  0  0  0
  147.7171  137.8034  185.9345 C   0  0  0  0  0  0  0  0  0  0  0  0
  146.2623  137.7102  185.6434 C   0  0  0  0  0  0  0  0  0  0  0  0
  145.6987  138.6797  184.8367 C   0  0  0  0  0  0  0  0  0  0  0  0
  144.3536  138.6928  184.5073 C   0  0  0  0  0  0  0  0  0  0  0  0
  143.5667  137.6897  185.0127 C   0  0  0  0  0  0  0  0  0  0  0  0
  144.1320  136.7060  185.8294 C   0  0  0  0  0  0  0  0  0  0  0  0
  145.4601  136.6913  186.1594 C   0  0  0  0  0  0  0  0  0  0  0  0
  150.2088  137.4112  181.9380 C   0  0  0  0  0  0  0  0  0  0  0  0
  150.0877  139.2202  180.3429 C   0  0  0  0  0  0  0  0  0  0  0  0
  149.7328  138.7792  181.7809 C   0  0  0  0  0  0  0  0  0  0  0  0
  148.2908  139.0922  181.9439 C   0  0  0  0  0  0  0  0  0  0  0  0
  154.2728  140.3505  183.8476 C   0  0  0  0  0  0  0  0  0  0  0  0
  154.4343  140.7462  182.4600 C   0  0  0  0  0  0  0  0  0  0  0  0
  153.3666  140.7364  181.5403 O   0  0  0  0  0  0  0  0  0  0  0  0
  155.5314  141.1250  181.9722 O   0  0  0  0  0  0  0  0  0  0  0  0
  153.4118  140.0778  180.7436 H   0  0  0  0  0  0  0  0  0  0  0  0
 71 72  1  0  0  0
 72 73  1  0  0  0
 72 70  1  0  0  0
 70 41  1  0  0  0
 41 42  1  0  0  0
 42 43  1  0  0  0
 43 44  2  0  0  0
 43 46  1  0  0  0
 46 63  1  0  0  0
 63 64  1  0  0  0
 64 65  2  0  0  0
 65 66  1  0  0  0
 66 67  2  0  0  0
 67 68  1  0  0  0
 68 69  2  0  0  0
 46 47  1  0  0  0
 47 48  1  0  0  0
 48 49  2  0  0  0
 48 51  1  0  0  0
 51 52  1  0  0  0
 52 53  1  0  0  0
 53 54  2  0  0  0
 54 55  1  0  0  0
 55 56  2  0  0  0
 56 57  1  0  0  0
 57 58  2  0  0  0
 58 59  1  0  0  0
 59 60  1  0  0  0
 41 37  1  0  0  0
 37 38  2  0  0  0
 37 39  1  0  0  0
 39  1  1  0  0  0
  1 74  1  0  0  0
 74 75  1  0  0  0
 75 76  1  0  0  0
 75 77  2  0  0  0
  1  2  1  0  0  0
  2  3  2  0  0  0
  2  4  1  0  0  0
  4  6  1  0  0  0
  6 34  1  0  0  0
 34 35  1  0  0  0
 34 36  1  0  0  0
  6  7  1  0  0  0
  7  8  2  0  0  0
  7  9  1  0  0  0
  9 11  1  0  0  0
 11 28  1  0  0  0
 28 29  1  0  0  0
 29 30  1  0  0  0
 30 31  1  0  0  0
 30 32  2  0  0  0
 11 12  1  0  0  0
 12 13  2  0  0  0
 12 14  1  0  0  0
 14 16  1  0  0  0
 16 21  1  0  0  0
 21 22  1  0  0  0
 22 23  2  0  0  0
 23 24  1  0  0  0
 24 25  2  0  0  0
 25 26  1  0  0  0
 26 27  2  0  0  0
 16 17  1  0  0  0
 17 18  1  0  0  0
 17 19  2  0  0  0
 69 64  1  0  0  0
 59 51  2  0  0  0
 27 22  1  0  0  0
 58 53  1  0  0  0
 42 45  1  0  0  0
 47 50  1  0  0  0
 52 61  1  0  0  0
 60 62  1  0  0  0
 39 40  1  0  0  0
 76 78  1  0  0  0
  4  5  1  0  0  0
  9 10  1  0  0  0
 31 33  1  0  0  0
 14 15  1  0  0  0
 18 20  1  0  0  0
M  END
> <minimizedAffinity>
-6.50571

> <CNNscore>
0.0933424309

> <CNNaffinity>
6.5507211685

> <CNN_VS>
0.6114602089

> <CNNaffinity_variance>
1.0094381571

$$$$
[H]OC(=O)C([H])([H])C([H])([H])[C@@]([H])(C(=O)N([H])[C@]([H])(C(=O)O[H])C([H])([H])c1c([H])c([H])c([H])c([H])c1[H])N([H])C(=O)[C@@]([H])(N([H])C(=O)[C@@]([H])(N([H])C(=O)[C@@]([H])(N([H])C(=O)[C@@]([H])(N([H])C(=O)c1c(O[H])c2c([H])c([H])c([H])c([H])c2n1[H])C([H])([H])c1c([H])c([H])c([H])c([H])c1[H])C([H])([H])C([H])(C([H])([H])[H])C([H])([H])[H])C([H])([H])C(=O)O[H])C([H])(C([H])([H])[H])C([H])([H])[H]


 78 81  0  0  0  0  0  0  0  0999 V2000
  155.3909  136.8875  189.2117 C   0  0  0  0  0  0  0  0  0  0  0  0
  155.3688  136.7329  187.7588 C   0  0  0  0  0  0  0  0  0  0  0  0
  156.1178  135.8954  187.2059 O   0  0  0  0  0  0  0  0  0  0  0  0
  154.5125  137.5113  186.9189 N   0  0  0  0  0  0  0  0  0  0  0  0
  153.8793  138.1944  187.3792 H   0  0  0  0  0  0  0  0  0  0  0  0
  154.4799  137.3921  185.4911 C   0  0  0  0  0  0  0  0  0  0  0  0
  155.0356  138.6375  184.8449 C   0  0  0  0  0  0  0  0  0  0  0  0
  156.0953  139.1136  185.3486 O   0  0  0  0  0  0  0  0  0  0  0  0
  154.4125  139.2330  183.7562 N   0  0  0  0  0  0  0  0  0  0  0  0
  153.5076  138.6786  183.4291 H   0  0  0  0  0  0  0  0  0  0  0  0
  154.6566  140.3474  182.9361 C   0  0  0  0  0  0  0  0  0  0  0  0
  155.7382  141.2852  183.2350 C   0  0  0  0  0  0  0  0  0  0  0  0
  155.4495  142.3696  183.8576 O   0  0  0  0  0  0  0  0  0  0  0  0
  157.1107  141.1466  182.9235 N   0  0  0  0  0  0  0  0  0  0  0  0
  157.4718  140.3287  182.4158 H   0  0  0  0  0  0  0  0  0  0  0  0
  158.0774  142.1783  183.3202 C   0  0  0  0  0  0  0  0  0  0  0  0
  158.1051  143.2811  182.3565 C   0  0  0  0  0  0  0  0  0  0  0  0
  157.1584  144.2694  182.2395 O   0  0  0  0  0  0  0  0  0  0  0  0
  159.0826  143.3541  181.5423 O   0  0  0  0  0  0  0  0  0  0  0  0
  157.0853  144.9291  181.5014 H   0  0  0  0  0  0  0  0  0  0  0  0
  159.3708  141.4640  183.5578 C   0  0  0  0  0  0  0  0  0  0  0  0
  160.1495  141.9430  184.7141 C   0  0  0  0  0  0  0  0  0  0  0  0
  161.5354  142.1328  184.5683 C   0  0  0  0  0  0  0  0  0  0  0  0
  162.2923  142.6013  185.6242 C   0  0  0  0  0  0  0  0  0  0  0  0
  161.7380  142.9022  186.8521 C   0  0  0  0  0  0  0  0  0  0  0  0
  160.3655  142.7130  186.9854 C   0  0  0  0  0  0  0  0  0  0  0  0
  159.6096  142.2460  185.9372 C   0  0  0  0  0  0  0  0  0  0  0  0
  153.4147  141.0081  182.4008 C   0  0  0  0  0  0  0  0  0  0  0  0
  152.9474  140.3151  181.1223 C   0  0  0  0  0  0  0  0  0  0  0  0
  151.6775  139.6115  181.4111 C   0  0  0  0  0  0  0  0  0  0  0  0
  151.6649  138.6120  182.3651 O   0  0  0  0  0  0  0  0  0  0  0  0
  150.6453  139.9176  180.8026 O   0  0  0  0  0  0  0  0  0  0  0  0
  150.8645  138.4418  182.9665 H   0  0  0  0  0  0  0  0  0  0  0  0
  153.1451  136.9946  184.9967 C   0  0  0  0  0  0  0  0  0  0  0  0
  153.1832  135.5058  184.6277 C   0  0  0  0  0  0  0  0  0  0  0  0
  151.9948  137.2137  185.9250 C   0  0  0  0  0  0  0  0  0  0  0  0
  153.7280  136.8401  191.0456 C   0  0  0  0  0  0  0  0  0  0  0  0
  154.2081  137.9371  191.4577 O   0  0  0  0  0  0  0  0  0  0  0  0
  154.3175  136.2554  189.8960 N   0  0  0  0  0  0  0  0  0  0  0  0
  153.9407  135.3475  189.5651 H   0  0  0  0  0  0  0  0  0  0  0  0
  152.6103  136.2787  191.7906 C   0  0  0  0  0  0  0  0  0  0  0  0
  151.6793  135.4814  191.0140 N   0  0  0  0  0  0  0  0  0  0  0  0
  150.2997  135.8389  191.1359 C   0  0  0  0  0  0  0  0  0  0  0  0
  150.0090  136.8038  191.8961 O   0  0  0  0  0  0  0  0  0  0  0  0
  151.9337  134.7039  190.3885 H   0  0  0  0  0  0  0  0  0  0  0  0
  149.1817  135.1499  190.4395 C   0  0  0  0  0  0  0  0  0  0  0  0
  149.1515  135.7711  189.0981 N   0  0  0  0  0  0  0  0  0  0  0  0
  147.9573  136.2494  188.5256 C   0  0  0  0  0  0  0  0  0  0  0  0
  146.8776  136.1509  189.1314 O   0  0  0  0  0  0  0  0  0  0  0  0
  150.0311  135.8515  188.5680 H   0  0  0  0  0  0  0  0  0  0  0  0
  147.9708  136.8899  187.1816 C   0  0  0  0  0  0  0  0  0  0  0  0
  147.4533  138.0762  186.8727 N   0  0  0  0  0  0  0  0  0  0  0  0
  147.6059  138.3466  185.5529 C   0  0  0  0  0  0  0  0  0  0  0  0
  147.2494  139.4059  184.7474 C   0  0  0  0  0  0  0  0  0  0  0  0
  147.5481  139.3765  183.3960 C   0  0  0  0  0  0  0  0  0  0  0  0
  148.2106  138.2782  182.8379 C   0  0  0  0  0  0  0  0  0  0  0  0
  148.5555  137.2368  183.6569 C   0  0  0  0  0  0  0  0  0  0  0  0
  148.2613  137.2539  185.0159 C   0  0  0  0  0  0  0  0  0  0  0  0
  148.4886  136.3452  186.0360 C   0  0  0  0  0  0  0  0  0  0  0  0
  149.1215  135.1054  185.9361 O   0  0  0  0  0  0  0  0  0  0  0  0
  146.9746  138.7602  187.5067 H   0  0  0  0  0  0  0  0  0  0  0  0
  149.4519  134.8238  185.0266 H   0  0  0  0  0  0  0  0  0  0  0  0
  149.5147  133.7084  190.2680 C   0  0  0  0  0  0  0  0  0  0  0  0
  148.8938  132.8135  191.2799 C   0  0  0  0  0  0  0  0  0  0  0  0
  149.5774  131.6681  191.6393 C   0  0  0  0  0  0  0  0  0  0  0  0
  149.0886  130.7624  192.5660 C   0  0  0  0  0  0  0  0  0  0  0  0
  147.8735  131.0354  193.1403 C   0  0  0  0  0  0  0  0  0  0  0  0
  147.1777  132.1931  192.7802 C   0  0  0  0  0  0  0  0  0  0  0  0
  147.6561  133.0890  191.8629 C   0  0  0  0  0  0  0  0  0  0  0  0
  153.0948  135.4662  192.9920 C   0  0  0  0  0  0  0  0  0  0  0  0
  152.1202  133.3571  193.6508 C   0  0  0  0  0  0  0  0  0  0  0  0
  153.2326  134.0269  192.8126 C   0  0  0  0  0  0  0  0  0  0  0  0
  153.1198  133.4282  191.4589 C   0  0  0  0  0  0  0  0  0  0  0  0
  156.7497  136.4626  189.7452 C   0  0  0  0  0  0  0  0  0  0  0  0
  156.7433  135.3253  190.6477 C   0  0  0  0  0  0  0  0  0  0  0  0
  156.7692  135.4702  192.0492 O   0  0  0  0  0  0  0  0  0  0  0  0
  156.7153  134.1299  190.2534 O   0  0  0  0  0  0  0  0  0  0  0  0
  157.5979  135.1236  192.5627 H   0  0  0  0  0  0  0  0  0  0  0  0
 71 72  1  0  0  0
 72 73  1  0  0  0
 72 70  1  0  0  0
 70 41  1  0  0  0
 41 42  1  0  0  0
 42 43  1  0  0  0
 43 44  2  0  0  0
 43 46  1  0  0  0
 46 63  1  0  0  0
 63 64  1  0  0  0
 64 65  2  0  0  0
 65 66  1  0  0  0
 66 67  2  0  0  0
 67 68  1  0  0  0
 68 69  2  0  0  0
 46 47  1  0  0  0
 47 48  1  0  0  0
 48 49  2  0  0  0
 48 51  1  0  0  0
 51 52  1  0  0  0
 52 53  1  0  0  0
 53 54  2  0  0  0
 54 55  1  0  0  0
 55 56  2  0  0  0
 56 57  1  0  0  0
 57 58  2  0  0  0
 58 59  1  0  0  0
 59 60  1  0  0  0
 41 37  1  0  0  0
 37 38  2  0  0  0
 37 39  1  0  0  0
 39  1  1  0  0  0
  1 74  1  0  0  0
 74 75  1  0  0  0
 75 76  1  0  0  0
 75 77  2  0  0  0
  1  2  1  0  0  0
  2  3  2  0  0  0
  2  4  1  0  0  0
  4  6  1  0  0  0
  6 34  1  0  0  0
 34 35  1  0  0  0
 34 36  1  0  0  0
  6  7  1  0  0  0
  7  8  2  0  0  0
  7  9  1  0  0  0
  9 11  1  0  0  0
 11 28  1  0  0  0
 28 29  1  0  0  0
 29 30  1  0  0  0
 30 31  1  0  0  0
 30 32  2  0  0  0
 11 12  1  0  0  0
 12 13  2  0  0  0
 12 14  1  0  0  0
 14 16  1  0  0  0
 16 21  1  0  0  0
 21 22  1  0  0  0
 22 23  2  0  0  0
 23 24  1  0  0  0
 24 25  2  0  0  0
 25 26  1  0  0  0
 26 27  2  0  0  0
 16 17  1  0  0  0
 17 18  1  0  0  0
 17 19  2  0  0  0
 69 64  1  0  0  0
 59 51  2  0  0  0
 27 22  1  0  0  0
 58 53  1  0  0  0
 42 45  1  0  0  0
 47 50  1  0  0  0
 52 61  1  0  0  0
 60 62  1  0  0  0
 39 40  1  0  0  0
 76 78  1  0  0  0
  4  5  1  0  0  0
  9 10  1  0  0  0
 31 33  1  0  0  0
 14 15  1  0  0  0
 18 20  1  0  0  0
M  END
> <minimizedAffinity>
-8.19245

> <CNNscore>
0.0860634893

> <CNNaffinity>
6.6676950455

> <CNN_VS>
0.5738450885

> <CNNaffinity_variance>
1.0008529425

$$$$
[H]OC(=O)C([H])([H])C([H])([H])[C@@]([H])(C(=O)N([H])[C@]([H])(C(=O)O[H])C([H])([H])c1c([H])c([H])c([H])c([H])c1[H])N([H])C(=O)[C@@]([H])(N([H])C(=O)[C@@]([H])(N([H])C(=O)[C@@]([H])(N([H])C(=O)[C@@]([H])(N([H])C(=O)c1c(O[H])c2c([H])c([H])c([H])c([H])c2n1[H])C([H])([H])c1c([H])c([H])c([H])c([H])c1[H])C([H])([H])C([H])(C([H])([H])[H])C([H])([H])[H])C([H])([H])C(=O)O[H])C([H])(C([H])([H])[H])C([H])([H])[H]


 78 81  0  0  0  0  0  0  0  0999 V2000
  153.5954  134.6072  192.3498 C   0  0  0  0  0  0  0  0  0  0  0  0
  153.4187  135.7627  191.4731 C   0  0  0  0  0  0  0  0  0  0  0  0
  152.3144  136.3516  191.4267 O   0  0  0  0  0  0  0  0  0  0  0  0
  154.4715  136.2644  190.6457 N   0  0  0  0  0  0  0  0  0  0  0  0
  155.3923  135.7858  190.6967 H   0  0  0  0  0  0  0  0  0  0  0  0
  154.3231  137.3856  189.7656 C   0  0  0  0  0  0  0  0  0  0  0  0
  154.2682  136.9254  188.3294 C   0  0  0  0  0  0  0  0  0  0  0  0
  155.1431  136.0837  187.9695 O   0  0  0  0  0  0  0  0  0  0  0  0
  153.3094  137.4052  187.4471 N   0  0  0  0  0  0  0  0  0  0  0  0
  152.6092  138.1203  187.9285 H   0  0  0  0  0  0  0  0  0  0  0  0
  152.9765  137.1888  186.0994 C   0  0  0  0  0  0  0  0  0  0  0  0
  153.7448  137.8090  185.0206 C   0  0  0  0  0  0  0  0  0  0  0  0
  154.5131  137.0631  184.3132 O   0  0  0  0  0  0  0  0  0  0  0  0
  153.7477  139.1698  184.6358 N   0  0  0  0  0  0  0  0  0  0  0  0
  153.1841  139.8742  185.1289 H   0  0  0  0  0  0  0  0  0  0  0  0
  154.5651  139.6274  183.5049 C   0  0  0  0  0  0  0  0  0  0  0  0
  155.8724  140.1119  183.9541 C   0  0  0  0  0  0  0  0  0  0  0  0
  156.6376  139.5530  184.9487 O   0  0  0  0  0  0  0  0  0  0  0  0
  156.3672  141.1415  183.3898 O   0  0  0  0  0  0  0  0  0  0  0  0
  157.4458  139.9530  185.3635 H   0  0  0  0  0  0  0  0  0  0  0  0
  153.7157  140.5983  182.7464 C   0  0  0  0  0  0  0  0  0  0  0  0
  152.7564  139.9919  181.8056 C   0  0  0  0  0  0  0  0  0  0  0  0
  152.5122  138.6089  181.8814 C   0  0  0  0  0  0  0  0  0  0  0  0
  151.6037  138.0112  181.0302 C   0  0  0  0  0  0  0  0  0  0  0  0
  150.9017  138.7268  180.0811 C   0  0  0  0  0  0  0  0  0  0  0  0
  151.1490  140.0949  180.0157 C   0  0  0  0  0  0  0  0  0  0  0  0
  152.0532  140.6927  180.8604 C   0  0  0  0  0  0  0  0  0  0  0  0
  151.4975  137.1241  185.8280 C   0  0  0  0  0  0  0  0  0  0  0  0
  151.1063  135.7386  185.3176 C   0  0  0  0  0  0  0  0  0  0  0  0
  150.7552  134.8950  186.4821 C   0  0  0  0  0  0  0  0  0  0  0  0
  150.9357  135.3990  187.7560 O   0  0  0  0  0  0  0  0  0  0  0  0
  150.3080  133.7547  186.3110 O   0  0  0  0  0  0  0  0  0  0  0  0
  150.3161  135.1684  188.5269 H   0  0  0  0  0  0  0  0  0  0  0  0
  155.3285  138.4362  190.0292 C   0  0  0  0  0  0  0  0  0  0  0  0
  154.9232  139.1936  191.3004 C   0  0  0  0  0  0  0  0  0  0  0  0
  156.7436  137.9836  190.1895 C   0  0  0  0  0  0  0  0  0  0  0  0
  151.9821  134.3518  194.2106 C   0  0  0  0  0  0  0  0  0  0  0  0
  152.7408  135.0788  194.9174 O   0  0  0  0  0  0  0  0  0  0  0  0
  152.3914  134.0716  192.8821 N   0  0  0  0  0  0  0  0  0  0  0  0
  151.7832  133.4612  192.3047 H   0  0  0  0  0  0  0  0  0  0  0  0
  150.7545  133.8703  194.8274 C   0  0  0  0  0  0  0  0  0  0  0  0
  149.8941  133.0765  193.9701 N   0  0  0  0  0  0  0  0  0  0  0  0
  148.9121  133.8039  193.2268 C   0  0  0  0  0  0  0  0  0  0  0  0
  148.8750  135.0571  193.3740 O   0  0  0  0  0  0  0  0  0  0  0  0
  149.9446  132.0547  193.8519 H   0  0  0  0  0  0  0  0  0  0  0  0
  147.9251  133.1898  192.3003 C   0  0  0  0  0  0  0  0  0  0  0  0
  148.0933  133.9428  191.0391 N   0  0  0  0  0  0  0  0  0  0  0  0
  147.0218  134.1572  190.1511 C   0  0  0  0  0  0  0  0  0  0  0  0
  145.8920  133.7036  190.3964 O   0  0  0  0  0  0  0  0  0  0  0  0
  149.0239  134.3171  190.8044 H   0  0  0  0  0  0  0  0  0  0  0  0
  147.2253  134.9405  188.9013 C   0  0  0  0  0  0  0  0  0  0  0  0
  147.6391  136.2029  188.8253 N   0  0  0  0  0  0  0  0  0  0  0  0
  147.6845  136.6249  187.5376 C   0  0  0  0  0  0  0  0  0  0  0  0
  148.0268  137.8150  186.9339 C   0  0  0  0  0  0  0  0  0  0  0  0
  147.9576  137.9354  185.5565 C   0  0  0  0  0  0  0  0  0  0  0  0
  147.5421  136.8570  184.7686 C   0  0  0  0  0  0  0  0  0  0  0  0
  147.2067  135.6838  185.3895 C   0  0  0  0  0  0  0  0  0  0  0  0
  147.2719  135.5499  186.7721 C   0  0  0  0  0  0  0  0  0  0  0  0
  146.9861  134.4982  187.6268 C   0  0  0  0  0  0  0  0  0  0  0  0
  146.5377  133.2240  187.2763 O   0  0  0  0  0  0  0  0  0  0  0  0
  147.9063  136.8464  189.6085 H   0  0  0  0  0  0  0  0  0  0  0  0
  146.3973  133.0335  186.2966 H   0  0  0  0  0  0  0  0  0  0  0  0
  148.3012  131.7725  192.0400 C   0  0  0  0  0  0  0  0  0  0  0  0
  147.5005  130.7782  192.8018 C   0  0  0  0  0  0  0  0  0  0  0  0
  146.1256  130.9124  192.7978 C   0  0  0  0  0  0  0  0  0  0  0  0
  145.2853  130.0472  193.4785 C   0  0  0  0  0  0  0  0  0  0  0  0
  145.8643  129.0192  194.1777 C   0  0  0  0  0  0  0  0  0  0  0  0
  147.2551  128.8788  194.1850 C   0  0  0  0  0  0  0  0  0  0  0  0
  148.0888  129.7333  193.5160 C   0  0  0  0  0  0  0  0  0  0  0  0
  151.0450  133.0946  196.1128 C   0  0  0  0  0  0  0  0  0  0  0  0
  151.3111  133.0509  198.5126 C   0  0  0  0  0  0  0  0  0  0  0  0
  150.4613  133.6045  197.3465 C   0  0  0  0  0  0  0  0  0  0  0  0
  150.3737  135.0674  197.5832 C   0  0  0  0  0  0  0  0  0  0  0  0
  154.4339  133.5565  191.6395 C   0  0  0  0  0  0  0  0  0  0  0  0
  153.8477  132.9917  190.4372 C   0  0  0  0  0  0  0  0  0  0  0  0
  154.2094  133.4207  189.1445 O   0  0  0  0  0  0  0  0  0  0  0  0
  152.9768  132.0827  190.4539 O   0  0  0  0  0  0  0  0  0  0  0  0
  153.4920  133.8898  188.5651 H   0  0  0  0  0  0  0  0  0  0  0  0
 71 72  1  0  0  0
 72 73  1  0  0  0
 72 70  1  0  0  0
 70 41  1  0  0  0
 41 42  1  0  0  0
 42 43  1  0  0  0
 43 44  2  0  0  0
 43 46  1  0  0  0
 46 63  1  0  0  0
 63 64  1  0  0  0
 64 65  2  0  0  0
 65 66  1  0  0  0
 66 67  2  0  0  0
 67 68  1  0  0  0
 68 69  2  0  0  0
 46 47  1  0  0  0
 47 48  1  0  0  0
 48 49  2  0  0  0
 48 51  1  0  0  0
 51 52  1  0  0  0
 52 53  1  0  0  0
 53 54  2  0  0  0
 54 55  1  0  0  0
 55 56  2  0  0  0
 56 57  1  0  0  0
 57 58  2  0  0  0
 58 59  1  0  0  0
 59 60  1  0  0  0
 41 37  1  0  0  0
 37 38  2  0  0  0
 37 39  1  0  0  0
 39  1  1  0  0  0
  1 74  1  0  0  0
 74 75  1  0  0  0
 75 76  1  0  0  0
 75 77  2  0  0  0
  1  2  1  0  0  0
  2  3  2  0  0  0
  2  4  1  0  0  0
  4  6  1  0  0  0
  6 34  1  0  0  0
 34 35  1  0  0  0
 34 36  1  0  0  0
  6  7  1  0  0  0
  7  8  2  0  0  0
  7  9  1  0  0  0
  9 11  1  0  0  0
 11 28  1  0  0  0
 28 29  1  0  0  0
 29 30  1  0  0  0
 30 31  1  0  0  0
 30 32  2  0  0  0
 11 12  1  0  0  0
 12 13  2  0  0  0
 12 14  1  0  0  0
 14 16  1  0  0  0
 16 21  1  0  0  0
 21 22  1  0  0  0
 22 23  2  0  0  0
 23 24  1  0  0  0
 24 25  2  0  0  0
 25 26  1  0  0  0
 26 27  2  0  0  0
 16 17  1  0  0  0
 17 18  1  0  0  0
 17 19  2  0  0  0
 69 64  1  0  0  0
 59 51  2  0  0  0
 27 22  1  0  0  0
 58 53  1  0  0  0
 42 45  1  0  0  0
 47 50  1  0  0  0
 52 61  1  0  0  0
 60 62  1  0  0  0
 39 40  1  0  0  0
 76 78  1  0  0  0
  4  5  1  0  0  0
  9 10  1  0  0  0
 31 33  1  0  0  0
 14 15  1  0  0  0
 18 20  1  0  0  0
M  END
> <minimizedAffinity>
-6.24455

> <CNNscore>
0.0815108865

> <CNNaffinity>
6.3055086136

> <CNN_VS>
0.5139675736

> <CNNaffinity_variance>
0.8919875026

$$$$
[H]OC(=O)C([H])([H])C([H])([H])[C@@]([H])(C(=O)N([H])[C@]([H])(C(=O)O[H])C([H])([H])c1c([H])c([H])c([H])c([H])c1[H])N([H])C(=O)[C@@]([H])(N([H])C(=O)[C@@]([H])(N([H])C(=O)[C@@]([H])(N([H])C(=O)[C@@]([H])(N([H])C(=O)c1c(O[H])c2c([H])c([H])c([H])c([H])c2n1[H])C([H])([H])c1c([H])c([H])c([H])c([H])c1[H])C([H])([H])C([H])(C([H])([H])[H])C([H])([H])[H])C([H])([H])C(=O)O[H])C([H])(C([H])([H])[H])C([H])([H])[H]


 78 81  0  0  0  0  0  0  0  0999 V2000
  154.6439  133.6782  185.6998 C   0  0  0  0  0  0  0  0  0  0  0  0
  154.1423  135.0400  185.8701 C   0  0  0  0  0  0  0  0  0  0  0  0
  152.9371  135.2968  185.6467 O   0  0  0  0  0  0  0  0  0  0  0  0
  154.9823  136.1187  186.2889 N   0  0  0  0  0  0  0  0  0  0  0  0
  155.9783  135.9021  186.4900 H   0  0  0  0  0  0  0  0  0  0  0  0
  154.5220  137.4663  186.4499 C   0  0  0  0  0  0  0  0  0  0  0  0
  154.8731  138.2923  185.2367 C   0  0  0  0  0  0  0  0  0  0  0  0
  154.1507  138.1277  184.2099 O   0  0  0  0  0  0  0  0  0  0  0  0
  155.9378  139.1836  185.2458 N   0  0  0  0  0  0  0  0  0  0  0  0
  156.4532  139.2195  186.2289 H   0  0  0  0  0  0  0  0  0  0  0  0
  156.5117  140.0830  184.3318 C   0  0  0  0  0  0  0  0  0  0  0  0
  157.9009  140.5190  184.4693 C   0  0  0  0  0  0  0  0  0  0  0  0
  158.8324  139.6681  184.2345 O   0  0  0  0  0  0  0  0  0  0  0  0
  158.3701  141.8026  184.8330 N   0  0  0  0  0  0  0  0  0  0  0  0
  157.7263  142.5718  185.0582 H   0  0  0  0  0  0  0  0  0  0  0  0
  159.8100  142.0829  184.9012 C   0  0  0  0  0  0  0  0  0  0  0  0
  160.2487  142.2831  186.2843 C   0  0  0  0  0  0  0  0  0  0  0  0
  161.5310  142.5666  186.6870 O   0  0  0  0  0  0  0  0  0  0  0  0
  159.3850  142.1915  187.2166 O   0  0  0  0  0  0  0  0  0  0  0  0
  161.8703  142.5553  187.6199 H   0  0  0  0  0  0  0  0  0  0  0  0
  160.0573  143.2116  183.9503 C   0  0  0  0  0  0  0  0  0  0  0  0
  159.3284  143.1266  182.6718 C   0  0  0  0  0  0  0  0  0  0  0  0
  159.6633  142.1047  181.7654 C   0  0  0  0  0  0  0  0  0  0  0  0
  158.9863  141.9820  180.5680 C   0  0  0  0  0  0  0  0  0  0  0  0
  157.9658  142.8387  180.2071 C   0  0  0  0  0  0  0  0  0  0  0  0
  157.6407  143.8452  181.1118 C   0  0  0  0  0  0  0  0  0  0  0  0
  158.3130  143.9707  182.3037 C   0  0  0  0  0  0  0  0  0  0  0  0
  155.5814  141.1688  183.8619 C   0  0  0  0  0  0  0  0  0  0  0  0
  155.4256  141.1211  182.3431 C   0  0  0  0  0  0  0  0  0  0  0  0
  153.9942  141.3082  182.0154 C   0  0  0  0  0  0  0  0  0  0  0  0
  153.3746  142.4935  182.3627 O   0  0  0  0  0  0  0  0  0  0  0  0
  153.3663  140.4118  181.4396 O   0  0  0  0  0  0  0  0  0  0  0  0
  152.6442  142.9138  181.7961 H   0  0  0  0  0  0  0  0  0  0  0  0
  154.9604  138.0540  187.7331 C   0  0  0  0  0  0  0  0  0  0  0  0
  153.7284  138.2575  188.6246 C   0  0  0  0  0  0  0  0  0  0  0  0
  155.9746  137.2807  188.5118 C   0  0  0  0  0  0  0  0  0  0  0  0
  156.8621  132.7662  186.3150 C   0  0  0  0  0  0  0  0  0  0  0  0
  157.1289  132.6853  185.0798 O   0  0  0  0  0  0  0  0  0  0  0  0
  155.5844  133.2612  186.6804 N   0  0  0  0  0  0  0  0  0  0  0  0
  155.3535  133.3119  187.6903 H   0  0  0  0  0  0  0  0  0  0  0  0
  157.8951  132.3442  187.2502 C   0  0  0  0  0  0  0  0  0  0  0  0
  157.4660  132.1909  188.6277 N   0  0  0  0  0  0  0  0  0  0  0  0
  158.1995  132.9451  189.5969 C   0  0  0  0  0  0  0  0  0  0  0  0
  159.1446  133.6716  189.1815 O   0  0  0  0  0  0  0  0  0  0  0  0
  156.6845  131.6026  188.9496 H   0  0  0  0  0  0  0  0  0  0  0  0
  157.9357  132.9279  191.0596 C   0  0  0  0  0  0  0  0  0  0  0  0
  156.5406  133.4017  191.1828 N   0  0  0  0  0  0  0  0  0  0  0  0
  156.2294  134.7633  191.3610 C   0  0  0  0  0  0  0  0  0  0  0  0
  157.1285  135.6169  191.4343 O   0  0  0  0  0  0  0  0  0  0  0  0
  155.7763  132.7123  191.1402 H   0  0  0  0  0  0  0  0  0  0  0  0
  154.8107  135.2047  191.4579 C   0  0  0  0  0  0  0  0  0  0  0  0
  154.2738  135.9072  192.4523 N   0  0  0  0  0  0  0  0  0  0  0  0
  152.9495  136.1118  192.2458 C   0  0  0  0  0  0  0  0  0  0  0  0
  151.9597  136.7531  192.9579 C   0  0  0  0  0  0  0  0  0  0  0  0
  150.6646  136.7796  192.4693 C   0  0  0  0  0  0  0  0  0  0  0  0
  150.3497  136.1595  191.2557 C   0  0  0  0  0  0  0  0  0  0  0  0
  151.3490  135.5282  190.5648 C   0  0  0  0  0  0  0  0  0  0  0  0
  152.6537  135.4943  191.0445 C   0  0  0  0  0  0  0  0  0  0  0  0
  153.8188  134.9287  190.5538 C   0  0  0  0  0  0  0  0  0  0  0  0
  153.9732  134.2099  189.3677 O   0  0  0  0  0  0  0  0  0  0  0  0
  154.7451  136.2810  193.3108 H   0  0  0  0  0  0  0  0  0  0  0  0
  153.1546  134.0752  188.7955 H   0  0  0  0  0  0  0  0  0  0  0  0
  157.9878  131.5257  191.5587 C   0  0  0  0  0  0  0  0  0  0  0  0
  159.0998  131.2560  192.5078 C   0  0  0  0  0  0  0  0  0  0  0  0
  160.2799  130.7504  191.9976 C   0  0  0  0  0  0  0  0  0  0  0  0
  161.3759  130.4570  192.7918 C   0  0  0  0  0  0  0  0  0  0  0  0
  161.2634  130.6883  194.1390 C   0  0  0  0  0  0  0  0  0  0  0  0
  160.0716  131.2000  194.6604 C   0  0  0  0  0  0  0  0  0  0  0  0
  158.9856  131.4884  193.8792 C   0  0  0  0  0  0  0  0  0  0  0  0
  158.5747  131.0561  186.7841 C   0  0  0  0  0  0  0  0  0  0  0  0
  160.4904  130.4054  188.1026 C   0  0  0  0  0  0  0  0  0  0  0  0
  160.0314  131.0377  186.7692 C   0  0  0  0  0  0  0  0  0  0  0  0
  160.7589  130.2942  185.7101 C   0  0  0  0  0  0  0  0  0  0  0  0
  153.4711  132.7187  185.5755 C   0  0  0  0  0  0  0  0  0  0  0  0
  152.9583  132.1871  186.8255 C   0  0  0  0  0  0  0  0  0  0  0  0
  152.0211  132.8817  187.6162 O   0  0  0  0  0  0  0  0  0  0  0  0
  153.3080  131.0741  187.2987 O   0  0  0  0  0  0  0  0  0  0  0  0
  152.3141  133.2032  188.5549 H   0  0  0  0  0  0  0  0  0  0  0  0
 71 72  1  0  0  0
 72 73  1  0  0  0
 72 70  1  0  0  0
 70 41  1  0  0  0
 41 42  1  0  0  0
 42 43  1  0  0  0
 43 44  2  0  0  0
 43 46  1  0  0  0
 46 63  1  0  0  0
 63 64  1  0  0  0
 64 65  2  0  0  0
 65 66  1  0  0  0
 66 67  2  0  0  0
 67 68  1  0  0  0
 68 69  2  0  0  0
 46 47  1  0  0  0
 47 48  1  0  0  0
 48 49  2  0  0  0
 48 51  1  0  0  0
 51 52  1  0  0  0
 52 53  1  0  0  0
 53 54  2  0  0  0
 54 55  1  0  0  0
 55 56  2  0  0  0
 56 57  1  0  0  0
 57 58  2  0  0  0
 58 59  1  0  0  0
 59 60  1  0  0  0
 41 37  1  0  0  0
 37 38  2  0  0  0
 37 39  1  0  0  0
 39  1  1  0  0  0
  1 74  1  0  0  0
 74 75  1  0  0  0
 75 76  1  0  0  0
 75 77  2  0  0  0
  1  2  1  0  0  0
  2  3  2  0  0  0
  2  4  1  0  0  0
  4  6  1  0  0  0
  6 34  1  0  0  0
 34 35  1  0  0  0
 34 36  1  0  0  0
  6  7  1  0  0  0
  7  8  2  0  0  0
  7  9  1  0  0  0
  9 11  1  0  0  0
 11 28  1  0  0  0
 28 29  1  0  0  0
 29 30  1  0  0  0
 30 31  1  0  0  0
 30 32  2  0  0  0
 11 12  1  0  0  0
 12 13  2  0  0  0
 12 14  1  0  0  0
 14 16  1  0  0  0
 16 21  1  0  0  0
 21 22  1  0  0  0
 22 23  2  0  0  0
 23 24  1  0  0  0
 24 25  2  0  0  0
 25 26  1  0  0  0
 26 27  2  0  0  0
 16 17  1  0  0  0
 17 18  1  0  0  0
 17 19  2  0  0  0
 69 64  1  0  0  0
 59 51  2  0  0  0
 27 22  1  0  0  0
 58 53  1  0  0  0
 42 45  1  0  0  0
 47 50  1  0  0  0
 52 61  1  0  0  0
 60 62  1  0  0  0
 39 40  1  0  0  0
 76 78  1  0  0  0
  4  5  1  0  0  0
  9 10  1  0  0  0
 31 33  1  0  0  0
 14 15  1  0  0  0
 18 20  1  0  0  0
M  END
> <minimizedAffinity>
-8.04300

> <CNNscore>
0.0799201652

> <CNNaffinity>
6.6783614159

> <CNN_VS>
0.5337357521

> <CNNaffinity_variance>
0.9195988774

$$$$
[H]c1c([H])c(S(=O)(=O)C([H])([H])[H])c([H])c([H])c1N([H])c1nc(N([H])C([H])(C([H])([H])[H])C([H])([H])[H])c2c(C([H])([H])[H])nn([H])c2n1


 28 30  0  0  0  0  0  0  0  0999 V2000
  151.0179  138.1366  181.9267 C   0  0  0  0  0  0  0  0  0  0  0  0
  152.0534  138.6069  182.6627 N   0  0  0  0  0  0  0  0  0  0  0  0
  152.8785  139.6039  182.3043 C   0  0  0  0  0  0  0  0  0  0  0  0
  152.6420  140.1609  181.1277 N   0  0  0  0  0  0  0  0  0  0  0  0
  151.6427  139.7621  180.3337 C   0  0  0  0  0  0  0  0  0  0  0  0
  151.2176  140.1779  179.1066 N   0  0  0  0  0  0  0  0  0  0  0  0
  150.1877  139.4781  178.7265 N   0  0  0  0  0  0  0  0  0  0  0  0
  149.8833  138.5575  179.6983 C   0  0  0  0  0  0  0  0  0  0  0  0
  148.7918  137.5732  179.6628 C   0  0  0  0  0  0  0  0  0  0  0  0
  150.7943  138.7405  180.6968 C   0  0  0  0  0  0  0  0  0  0  0  0
  151.6680  140.9521  178.5621 H   0  0  0  0  0  0  0  0  0  0  0  0
  150.2181  137.0781  182.4165 N   0  0  0  0  0  0  0  0  0  0  0  0
  150.1396  136.1780  181.9839 H   0  0  0  0  0  0  0  0  0  0  0  0
  149.0865  136.0157  184.3286 C   0  0  0  0  0  0  0  0  0  0  0  0
  149.4482  137.3054  183.6390 C   0  0  0  0  0  0  0  0  0  0  0  0
  148.1915  138.0764  183.3703 C   0  0  0  0  0  0  0  0  0  0  0  0
  153.9268  139.9708  183.1660 N   0  0  0  0  0  0  0  0  0  0  0  0
  154.0084  139.4755  184.1196 H   0  0  0  0  0  0  0  0  0  0  0  0
  154.9094  140.9483  182.9169 C   0  0  0  0  0  0  0  0  0  0  0  0
  156.2586  140.5428  182.7950 C   0  0  0  0  0  0  0  0  0  0  0  0
  157.2887  141.4192  182.5769 C   0  0  0  0  0  0  0  0  0  0  0  0
  157.0509  142.7527  182.4653 C   0  0  0  0  0  0  0  0  0  0  0  0
  155.7578  143.1776  182.5787 C   0  0  0  0  0  0  0  0  0  0  0  0
  154.6908  142.2959  182.8022 C   0  0  0  0  0  0  0  0  0  0  0  0
  158.3056  143.9406  182.1866 S   0  0  0  0  0  0  0  0  0  0  0  0
  159.6083  143.8051  183.3520 C   0  0  0  0  0  0  0  0  0  0  0  0
  157.6804  145.3048  182.3218 O   0  0  0  0  0  0  0  0  0  0  0  0
  158.8414  143.7878  180.7843 O   0  0  0  0  0  0  0  0  0  0  0  0
 14 15  1  0  0  0
 15 16  1  0  0  0
 15 12  1  0  0  0
 12  1  1  0  0  0
  1  2  2  0  0  0
  2  3  1  0  0  0
  3 17  1  0  0  0
 17 19  1  0  0  0
 19 20  2  0  0  0
 20 21  1  0  0  0
 21 22  2  0  0  0
 22 23  1  0  0  0
 23 24  2  0  0  0
 22 25  1  0  0  0
 25 26  1  0  0  0
 25 27  2  0  0  0
 25 28  2  0  0  0
  3  4  2  0  0  0
  4  5  1  0  0  0
  5  6  1  0  0  0
  6  7  1  0  0  0
  7  8  2  0  0  0
  8  9  1  0  0  0
  8 10  1  0  0  0
 10  1  1  0  0  0
 24 19  1  0  0  0
 10  5  2  0  0  0
 12 13  1  0  0  0
 17 18  1  0  0  0
  6 11  1  0  0  0
M  END
> <minimizedAffinity>
-6.63662

> <CNNscore>
0.4218812585

> <CNNaffinity>
5.8913888931

> <CNN_VS>
2.4854664803

> <CNNaffinity_variance>
0.0408473089

$$$$
[H]c1c([H])c(S(=O)(=O)C([H])([H])[H])c([H])c([H])c1N([H])c1nc(N([H])C([H])(C([H])([H])[H])C([H])([H])[H])c2c(C([H])([H])[H])nn([H])c2n1


 28 30  0  0  0  0  0  0  0  0999 V2000
  151.1781  138.0390  182.1478 C   0  0  0  0  0  0  0  0  0  0  0  0
  152.2205  138.4898  182.8862 N   0  0  0  0  0  0  0  0  0  0  0  0
  153.0628  139.4736  182.5314 C   0  0  0  0  0  0  0  0  0  0  0  0
  152.8372  140.0376  181.3560 N   0  0  0  0  0  0  0  0  0  0  0  0
  151.8323  139.6580  180.5598 C   0  0  0  0  0  0  0  0  0  0  0  0
  151.4157  140.0841  179.3333 N   0  0  0  0  0  0  0  0  0  0  0  0
  150.3745  139.4029  178.9502 N   0  0  0  0  0  0  0  0  0  0  0  0
  150.0534  138.4850  179.9192 C   0  0  0  0  0  0  0  0  0  0  0  0
  148.9454  137.5195  179.8799 C   0  0  0  0  0  0  0  0  0  0  0  0
  150.9662  138.6499  180.9192 C   0  0  0  0  0  0  0  0  0  0  0  0
  151.8799  140.8519  178.7914 H   0  0  0  0  0  0  0  0  0  0  0  0
  150.3599  136.9930  182.6339 N   0  0  0  0  0  0  0  0  0  0  0  0
  149.4309  137.1160  182.9879 H   0  0  0  0  0  0  0  0  0  0  0  0
  152.0905  135.5050  181.7084 C   0  0  0  0  0  0  0  0  0  0  0  0
  150.9003  135.6341  182.6230 C   0  0  0  0  0  0  0  0  0  0  0  0
  149.8678  134.6276  182.2145 C   0  0  0  0  0  0  0  0  0  0  0  0
  154.1162  139.8205  183.3952 N   0  0  0  0  0  0  0  0  0  0  0  0
  154.1529  139.3672  184.3723 H   0  0  0  0  0  0  0  0  0  0  0  0
  155.1581  140.7269  183.1200 C   0  0  0  0  0  0  0  0  0  0  0  0
  154.8766  142.1127  183.1311 C   0  0  0  0  0  0  0  0  0  0  0  0
  155.8150  143.0712  182.8532 C   0  0  0  0  0  0  0  0  0  0  0  0
  157.0920  142.7212  182.5465 C   0  0  0  0  0  0  0  0  0  0  0  0
  157.3970  141.3900  182.5268 C   0  0  0  0  0  0  0  0  0  0  0  0
  156.4502  140.3948  182.8081 C   0  0  0  0  0  0  0  0  0  0  0  0
  158.3523  143.8786  182.1792 S   0  0  0  0  0  0  0  0  0  0  0  0
  158.9648  143.6864  180.5478 C   0  0  0  0  0  0  0  0  0  0  0  0
  159.4829  143.6446  183.1472 O   0  0  0  0  0  0  0  0  0  0  0  0
  157.8241  145.2782  182.3772 O   0  0  0  0  0  0  0  0  0  0  0  0
 14 15  1  0  0  0
 15 16  1  0  0  0
 15 12  1  0  0  0
 12  1  1  0  0  0
  1  2  2  0  0  0
  2  3  1  0  0  0
  3 17  1  0  0  0
 17 19  1  0  0  0
 19 20  2  0  0  0
 20 21  1  0  0  0
 21 22  2  0  0  0
 22 23  1  0  0  0
 23 24  2  0  0  0
 22 25  1  0  0  0
 25 26  1  0  0  0
 25 27  2  0  0  0
 25 28  2  0  0  0
  3  4  2  0  0  0
  4  5  1  0  0  0
  5  6  1  0  0  0
  6  7  1  0  0  0
  7  8  2  0  0  0
  8  9  1  0  0  0
  8 10  1  0  0  0
 10  1  1  0  0  0
 24 19  1  0  0  0
 10  5  2  0  0  0
 12 13  1  0  0  0
 17 18  1  0  0  0
  6 11  1  0  0  0
M  END
> <minimizedAffinity>
-6.52075

> <CNNscore>
0.3702378571

> <CNNaffinity>
5.8562211990

> <CNN_VS>
2.1681947708

> <CNNaffinity_variance>
0.0114194416

$$$$
[H]c1c([H])c(S(=O)(=O)C([H])([H])[H])c([H])c([H])c1N([H])c1nc(N([H])C([H])(C([H])([H])[H])C([H])([H])[H])c2c(C([H])([H])[H])nn([H])c2n1


 28 30  0  0  0  0  0  0  0  0999 V2000
  151.0671  138.1959  182.4316 C   0  0  0  0  0  0  0  0  0  0  0  0
  151.3340  137.4816  183.5512 N   0  0  0  0  0  0  0  0  0  0  0  0
  152.4616  137.5569  184.2767 C   0  0  0  0  0  0  0  0  0  0  0  0
  153.3772  138.4079  183.8432 N   0  0  0  0  0  0  0  0  0  0  0  0
  153.2007  139.1543  182.7479 C   0  0  0  0  0  0  0  0  0  0  0  0
  153.9865  140.0782  182.1248 N   0  0  0  0  0  0  0  0  0  0  0  0
  153.3802  140.5485  181.0731 N   0  0  0  0  0  0  0  0  0  0  0  0
  152.1513  139.9483  180.9537 C   0  0  0  0  0  0  0  0  0  0  0  0
  151.1528  140.1957  179.9034 C   0  0  0  0  0  0  0  0  0  0  0  0
  152.0465  139.0806  182.0009 C   0  0  0  0  0  0  0  0  0  0  0  0
  154.9399  140.3572  182.4593 H   0  0  0  0  0  0  0  0  0  0  0  0
  149.8370  138.0270  181.7548 N   0  0  0  0  0  0  0  0  0  0  0  0
  149.7208  137.5018  180.9096 H   0  0  0  0  0  0  0  0  0  0  0  0
  147.7124  137.6559  182.9441 C   0  0  0  0  0  0  0  0  0  0  0  0
  148.6466  138.6604  182.3210 C   0  0  0  0  0  0  0  0  0  0  0  0
  147.8916  139.4466  181.2925 C   0  0  0  0  0  0  0  0  0  0  0  0
  152.6063  136.7350  185.4079 N   0  0  0  0  0  0  0  0  0  0  0  0
  152.1463  135.7604  185.3999 H   0  0  0  0  0  0  0  0  0  0  0  0
  153.3017  137.0554  186.5897 C   0  0  0  0  0  0  0  0  0  0  0  0
  154.5213  136.3940  186.8635 C   0  0  0  0  0  0  0  0  0  0  0  0
  155.2587  136.6184  187.9960 C   0  0  0  0  0  0  0  0  0  0  0  0
  154.8377  137.5110  188.9304 C   0  0  0  0  0  0  0  0  0  0  0  0
  153.6628  138.1670  188.6964 C   0  0  0  0  0  0  0  0  0  0  0  0
  152.8944  137.9504  187.5437 C   0  0  0  0  0  0  0  0  0  0  0  0
  155.7165  137.8587  190.4035 S   0  0  0  0  0  0  0  0  0  0  0  0
  155.6605  136.5188  191.5328 C   0  0  0  0  0  0  0  0  0  0  0  0
  155.0702  139.0573  191.0482 O   0  0  0  0  0  0  0  0  0  0  0  0
  157.1476  138.1992  190.0679 O   0  0  0  0  0  0  0  0  0  0  0  0
 14 15  1  0  0  0
 15 16  1  0  0  0
 15 12  1  0  0  0
 12  1  1  0  0  0
  1  2  2  0  0  0
  2  3  1  0  0  0
  3 17  1  0  0  0
 17 19  1  0  0  0
 19 20  2  0  0  0
 20 21  1  0  0  0
 21 22  2  0  0  0
 22 23  1  0  0  0
 23 24  2  0  0  0
 22 25  1  0  0  0
 25 26  1  0  0  0
 25 27  2  0  0  0
 25 28  2  0  0  0
  3  4  2  0  0  0
  4  5  1  0  0  0
  5  6  1  0  0  0
  6  7  1  0  0  0
  7  8  2  0  0  0
  8  9  1  0  0  0
  8 10  1  0  0  0
 10  1  1  0  0  0
 24 19  1  0  0  0
 10  5  2  0  0  0
 12 13  1  0  0  0
 17 18  1  0  0  0
  6 11  1  0  0  0
M  END
> <minimizedAffinity>
-6.35990

> <CNNscore>
0.2572418153

> <CNNaffinity>
5.3029527664

> <CNN_VS>
1.3641412258

> <CNNaffinity_variance>
0.0927916318

$$$$
[H]c1c([H])c(S(=O)(=O)C([H])([H])[H])c([H])c([H])c1N([H])c1nc(N([H])C([H])(C([H])([H])[H])C([H])([H])[H])c2c(C([H])([H])[H])nn([H])c2n1


 28 30  0  0  0  0  0  0  0  0999 V2000
  157.0066  140.9356  183.3824 C   0  0  0  0  0  0  0  0  0  0  0  0
  156.5193  139.8532  184.0351 N   0  0  0  0  0  0  0  0  0  0  0  0
  155.2290  139.6388  184.3393 C   0  0  0  0  0  0  0  0  0  0  0  0
  154.3774  140.5776  183.9597 N   0  0  0  0  0  0  0  0  0  0  0  0
  154.7679  141.6795  183.3107 C   0  0  0  0  0  0  0  0  0  0  0  0
  154.0853  142.7584  182.8315 N   0  0  0  0  0  0  0  0  0  0  0  0
  154.9062  143.5936  182.2628 N   0  0  0  0  0  0  0  0  0  0  0  0
  156.1835  143.0969  182.3424 C   0  0  0  0  0  0  0  0  0  0  0  0
  157.4047  143.7304  181.8239 C   0  0  0  0  0  0  0  0  0  0  0  0
  156.0894  141.9038  182.9967 C   0  0  0  0  0  0  0  0  0  0  0  0
  153.0479  142.8805  182.9179 H   0  0  0  0  0  0  0  0  0  0  0  0
  158.3917  141.0452  183.1192 N   0  0  0  0  0  0  0  0  0  0  0  0
  158.7876  141.1929  182.2109 H   0  0  0  0  0  0  0  0  0  0  0  0
  158.8125  141.6602  185.4667 C   0  0  0  0  0  0  0  0  0  0  0  0
  159.3177  140.9359  184.2460 C   0  0  0  0  0  0  0  0  0  0  0  0
  160.6777  141.4630  183.9020 C   0  0  0  0  0  0  0  0  0  0  0  0
  154.8736  138.4740  185.0415 N   0  0  0  0  0  0  0  0  0  0  0  0
  154.5136  137.6249  184.4840 H   0  0  0  0  0  0  0  0  0  0  0  0
  154.9315  138.2892  186.4363 C   0  0  0  0  0  0  0  0  0  0  0  0
  153.7645  138.5141  187.2027 C   0  0  0  0  0  0  0  0  0  0  0  0
  153.7256  138.3844  188.5659 C   0  0  0  0  0  0  0  0  0  0  0  0
  154.8379  138.0241  189.2589 C   0  0  0  0  0  0  0  0  0  0  0  0
  155.9824  137.7997  188.5482 C   0  0  0  0  0  0  0  0  0  0  0  0
  156.0417  137.9277  187.1532 C   0  0  0  0  0  0  0  0  0  0  0  0
  154.8769  137.8352  190.9984 S   0  0  0  0  0  0  0  0  0  0  0  0
  153.4620  136.9917  191.5988 C   0  0  0  0  0  0  0  0  0  0  0  0
  154.9082  139.2134  191.6064 O   0  0  0  0  0  0  0  0  0  0  0  0
  156.1321  137.0988  191.3971 O   0  0  0  0  0  0  0  0  0  0  0  0
 14 15  1  0  0  0
 15 16  1  0  0  0
 15 12  1  0  0  0
 12  1  1  0  0  0
  1  2  2  0  0  0
  2  3  1  0  0  0
  3 17  1  0  0  0
 17 19  1  0  0  0
 19 20  2  0  0  0
 20 21  1  0  0  0
 21 22  2  0  0  0
 22 23  1  0  0  0
 23 24  2  0  0  0
 22 25  1  0  0  0
 25 26  1  0  0  0
 25 27  2  0  0  0
 25 28  2  0  0  0
  3  4  2  0  0  0
  4  5  1  0  0  0
  5  6  1  0  0  0
  6  7  1  0  0  0
  7  8  2  0  0  0
  8  9  1  0  0  0
  8 10  1  0  0  0
 10  1  1  0  0  0
 24 19  1  0  0  0
 10  5  2  0  0  0
 12 13  1  0  0  0
 17 18  1  0  0  0
  6 11  1  0  0  0
M  END
> <minimizedAffinity>
-7.87739

> <CNNscore>
0.2222216129

> <CNNaffinity>
5.9497046471

> <CNN_VS>
1.3221529722

> <CNNaffinity_variance>
0.0478415899

$$$$
[H]c1c([H])c(S(=O)(=O)C([H])([H])[H])c([H])c([H])c1N([H])c1nc(N([H])C([H])(C([H])([H])[H])C([H])([H])[H])c2c(C([H])([H])[H])nn([H])c2n1


 28 30  0  0  0  0  0  0  0  0999 V2000
  156.8164  135.5070  188.6008 C   0  0  0  0  0  0  0  0  0  0  0  0
  156.5061  136.3182  187.5613 N   0  0  0  0  0  0  0  0  0  0  0  0
  156.0842  137.5893  187.6600 C   0  0  0  0  0  0  0  0  0  0  0  0
  155.9687  138.0709  188.8869 N   0  0  0  0  0  0  0  0  0  0  0  0
  156.2526  137.3433  189.9722 C   0  0  0  0  0  0  0  0  0  0  0  0
  156.2089  137.6214  191.3065 N   0  0  0  0  0  0  0  0  0  0  0  0
  156.5826  136.5816  191.9951 N   0  0  0  0  0  0  0  0  0  0  0  0
  156.8935  135.5578  191.1350 C   0  0  0  0  0  0  0  0  0  0  0  0
  157.3571  134.2124  191.5043 C   0  0  0  0  0  0  0  0  0  0  0  0
  156.6855  136.0399  189.8761 C   0  0  0  0  0  0  0  0  0  0  0  0
  155.9141  138.5460  191.7026 H   0  0  0  0  0  0  0  0  0  0  0  0
  157.2525  134.1824  188.3658 N   0  0  0  0  0  0  0  0  0  0  0  0
  156.7926  133.3628  188.7126 H   0  0  0  0  0  0  0  0  0  0  0  0
  158.7545  132.5277  187.3305 C   0  0  0  0  0  0  0  0  0  0  0  0
  158.4584  133.9867  187.5618 C   0  0  0  0  0  0  0  0  0  0  0  0
  159.6577  134.6272  188.1922 C   0  0  0  0  0  0  0  0  0  0  0  0
  155.7786  138.3041  186.4888 N   0  0  0  0  0  0  0  0  0  0  0  0
  156.4524  139.0817  186.1682 H   0  0  0  0  0  0  0  0  0  0  0  0
  154.6520  138.1158  185.6653 C   0  0  0  0  0  0  0  0  0  0  0  0
  153.5569  137.3754  186.1673 C   0  0  0  0  0  0  0  0  0  0  0  0
  152.4273  137.1175  185.4364 C   0  0  0  0  0  0  0  0  0  0  0  0
  152.3080  137.5752  184.1622 C   0  0  0  0  0  0  0  0  0  0  0  0
  153.3488  138.2940  183.6469 C   0  0  0  0  0  0  0  0  0  0  0  0
  154.5126  138.5676  184.3793 C   0  0  0  0  0  0  0  0  0  0  0  0
  150.9021  137.2926  183.1589 S   0  0  0  0  0  0  0  0  0  0  0  0
  150.7063  138.5359  181.9384 C   0  0  0  0  0  0  0  0  0  0  0  0
  149.6915  137.3053  184.0558 O   0  0  0  0  0  0  0  0  0  0  0  0
  151.0118  135.9354  182.5088 O   0  0  0  0  0  0  0  0  0  0  0  0
 14 15  1  0  0  0
 15 16  1  0  0  0
 15 12  1  0  0  0
 12  1  1  0  0  0
  1  2  2  0  0  0
  2  3  1  0  0  0
  3 17  1  0  0  0
 17 19  1  0  0  0
 19 20  2  0  0  0
 20 21  1  0  0  0
 21 22  2  0  0  0
 22 23  1  0  0  0
 23 24  2  0  0  0
 22 25  1  0  0  0
 25 26  1  0  0  0
 25 27  2  0  0  0
 25 28  2  0  0  0
  3  4  2  0  0  0
  4  5  1  0  0  0
  5  6  1  0  0  0
  6  7  1  0  0  0
  7  8  2  0  0  0
  8  9  1  0  0  0
  8 10  1  0  0  0
 10  1  1  0  0  0
 24 19  1  0  0  0
 10  5  2  0  0  0
 12 13  1  0  0  0
 17 18  1  0  0  0
  6 11  1  0  0  0
M  END
> <minimizedAffinity>
-5.50177

> <CNNscore>
0.2167347968

> <CNNaffinity>
5.2636494637

> <CNN_VS>
1.1408159733

> <CNNaffinity_variance>
0.1508301049

$$$$
[H]c1c([H])c(S(=O)(=O)C([H])([H])[H])c([H])c([H])c1N([H])c1nc(N([H])C([H])(C([H])([H])[H])C([H])([H])[H])c2c(C([H])([H])[H])nn([H])c2n1


 28 30  0  0  0  0  0  0  0  0999 V2000
  158.2757  142.6207  182.6232 C   0  0  0  0  0  0  0  0  0  0  0  0
  157.4645  141.9099  183.4428 N   0  0  0  0  0  0  0  0  0  0  0  0
  156.5527  141.0061  183.0490 C   0  0  0  0  0  0  0  0  0  0  0  0
  156.4547  140.8081  181.7446 N   0  0  0  0  0  0  0  0  0  0  0  0
  157.2140  141.4642  180.8609 C   0  0  0  0  0  0  0  0  0  0  0  0
  157.2873  141.4259  179.4998 N   0  0  0  0  0  0  0  0  0  0  0  0
  158.1931  142.2589  179.0746 N   0  0  0  0  0  0  0  0  0  0  0  0
  158.7653  142.8920  180.1499 C   0  0  0  0  0  0  0  0  0  0  0  0
  159.8284  143.9066  180.1064 C   0  0  0  0  0  0  0  0  0  0  0  0
  158.1501  142.3916  181.2597 C   0  0  0  0  0  0  0  0  0  0  0  0
  156.6916  140.8079  178.8984 H   0  0  0  0  0  0  0  0  0  0  0  0
  159.1995  143.5460  183.1620 N   0  0  0  0  0  0  0  0  0  0  0  0
  159.3008  144.4934  182.8528 H   0  0  0  0  0  0  0  0  0  0  0  0
  161.0455  144.1650  184.6704 C   0  0  0  0  0  0  0  0  0  0  0  0
  160.0720  143.0962  184.2462 C   0  0  0  0  0  0  0  0  0  0  0  0
  160.8414  141.8670  183.8681 C   0  0  0  0  0  0  0  0  0  0  0  0
  155.7648  140.3592  184.0170 N   0  0  0  0  0  0  0  0  0  0  0  0
  155.9769  140.5378  185.0584 H   0  0  0  0  0  0  0  0  0  0  0  0
  154.7000  139.4715  183.7700 C   0  0  0  0  0  0  0  0  0  0  0  0
  153.6952  139.8513  182.8503 C   0  0  0  0  0  0  0  0  0  0  0  0
  152.6086  139.0691  182.5607 C   0  0  0  0  0  0  0  0  0  0  0  0
  152.4455  137.8611  183.1618 C   0  0  0  0  0  0  0  0  0  0  0  0
  153.3985  137.4644  184.0562 C   0  0  0  0  0  0  0  0  0  0  0  0
  154.5170  138.2512  184.3655 C   0  0  0  0  0  0  0  0  0  0  0  0
  151.0895  136.7992  182.8507 S   0  0  0  0  0  0  0  0  0  0  0  0
  149.5901  137.4450  183.4895 C   0  0  0  0  0  0  0  0  0  0  0  0
  151.3742  135.4848  183.5299 O   0  0  0  0  0  0  0  0  0  0  0  0
  150.9655  136.5625  181.3656 O   0  0  0  0  0  0  0  0  0  0  0  0
 14 15  1  0  0  0
 15 16  1  0  0  0
 15 12  1  0  0  0
 12  1  1  0  0  0
  1  2  2  0  0  0
  2  3  1  0  0  0
  3 17  1  0  0  0
 17 19  1  0  0  0
 19 20  2  0  0  0
 20 21  1  0  0  0
 21 22  2  0  0  0
 22 23  1  0  0  0
 23 24  2  0  0  0
 22 25  1  0  0  0
 25 26  1  0  0  0
 25 27  2  0  0  0
 25 28  2  0  0  0
  3  4  2  0  0  0
  4  5  1  0  0  0
  5  6  1  0  0  0
  6  7  1  0  0  0
  7  8  2  0  0  0
  8  9  1  0  0  0
  8 10  1  0  0  0
 10  1  1  0  0  0
 24 19  1  0  0  0
 10  5  2  0  0  0
 12 13  1  0  0  0
 17 18  1  0  0  0
  6 11  1  0  0  0
M  END
> <minimizedAffinity>
-7.46756

> <CNNscore>
0.2165898383

> <CNNaffinity>
6.4068193436

> <CNN_VS>
1.3876519203

> <CNNaffinity_variance>
0.1415437758

$$$$
[H]c1c([H])c(S(=O)(=O)C([H])([H])[H])c([H])c([H])c1N([H])c1nc(N([H])C([H])(C([H])([H])[H])C([H])([H])[H])c2c(C([H])([H])[H])nn([H])c2n1


 28 30  0  0  0  0  0  0  0  0999 V2000
  157.9559  142.9618  182.4312 C   0  0  0  0  0  0  0  0  0  0  0  0
  156.9900  142.4295  183.2177 N   0  0  0  0  0  0  0  0  0  0  0  0
  156.0382  141.5718  182.8153 C   0  0  0  0  0  0  0  0  0  0  0  0
  156.0644  141.2306  181.5373 N   0  0  0  0  0  0  0  0  0  0  0  0
  156.9804  141.7060  180.6871 C   0  0  0  0  0  0  0  0  0  0  0  0
  157.1988  141.5005  179.3568 N   0  0  0  0  0  0  0  0  0  0  0  0
  158.2274  142.1917  178.9579 N   0  0  0  0  0  0  0  0  0  0  0  0
  158.7404  142.8931  180.0207 C   0  0  0  0  0  0  0  0  0  0  0  0
  159.9014  143.7947  179.9981 C   0  0  0  0  0  0  0  0  0  0  0  0
  157.9581  142.5853  181.0948 C   0  0  0  0  0  0  0  0  0  0  0  0
  156.6119  140.8722  178.7572 H   0  0  0  0  0  0  0  0  0  0  0  0
  158.9058  143.8567  182.9759 N   0  0  0  0  0  0  0  0  0  0  0  0
  158.8154  144.8543  182.9698 H   0  0  0  0  0  0  0  0  0  0  0  0
  159.8087  142.0441  184.3777 C   0  0  0  0  0  0  0  0  0  0  0  0
  160.1071  143.2947  183.5924 C   0  0  0  0  0  0  0  0  0  0  0  0
  160.7825  144.2810  184.4962 C   0  0  0  0  0  0  0  0  0  0  0  0
  155.0856  141.1182  183.7442 N   0  0  0  0  0  0  0  0  0  0  0  0
  154.7954  141.7746  184.5482 H   0  0  0  0  0  0  0  0  0  0  0  0
  154.4529  139.8601  183.7450 C   0  0  0  0  0  0  0  0  0  0  0  0
  154.8933  138.8762  184.6602 C   0  0  0  0  0  0  0  0  0  0  0  0
  154.3588  137.6165  184.7225 C   0  0  0  0  0  0  0  0  0  0  0  0
  153.3545  137.2486  183.8839 C   0  0  0  0  0  0  0  0  0  0  0  0
  152.9060  138.1759  182.9870 C   0  0  0  0  0  0  0  0  0  0  0  0
  153.4407  139.4697  182.9083 C   0  0  0  0  0  0  0  0  0  0  0  0
  152.6148  135.6625  183.8953 S   0  0  0  0  0  0  0  0  0  0  0  0
  152.5670  134.9722  185.5062 C   0  0  0  0  0  0  0  0  0  0  0  0
  153.4442  134.7659  183.0131 O   0  0  0  0  0  0  0  0  0  0  0  0
  151.2210  135.7526  183.3243 O   0  0  0  0  0  0  0  0  0  0  0  0
 14 15  1  0  0  0
 15 16  1  0  0  0
 15 12  1  0  0  0
 12  1  1  0  0  0
  1  2  2  0  0  0
  2  3  1  0  0  0
  3 17  1  0  0  0
 17 19  1  0  0  0
 19 20  2  0  0  0
 20 21  1  0  0  0
 21 22  2  0  0  0
 22 23  1  0  0  0
 23 24  2  0  0  0
 22 25  1  0  0  0
 25 26  1  0  0  0
 25 27  2  0  0  0
 25 28  2  0  0  0
  3  4  2  0  0  0
  4  5  1  0  0  0
  5  6  1  0  0  0
  6  7  1  0  0  0
  7  8  2  0  0  0
  8  9  1  0  0  0
  8 10  1  0  0  0
 10  1  1  0  0  0
 24 19  1  0  0  0
 10  5  2  0  0  0
 12 13  1  0  0  0
 17 18  1  0  0  0
  6 11  1  0  0  0
M  END
> <minimizedAffinity>
-6.83518

> <CNNscore>
0.1979902238

> <CNNaffinity>
6.2905144691

> <CNN_VS>
1.2454603910

> <CNNaffinity_variance>
0.0642747730

$$$$
[H]c1c([H])c(S(=O)(=O)C([H])([H])[H])c([H])c([H])c1N([H])c1nc(N([H])C([H])(C([H])([H])[H])C([H])([H])[H])c2c(C([H])([H])[H])nn([H])c2n1


 28 30  0  0  0  0  0  0  0  0999 V2000
  156.5187  136.3869  188.6495 C   0  0  0  0  0  0  0  0  0  0  0  0
  156.2035  136.7943  187.3966 N   0  0  0  0  0  0  0  0  0  0  0  0
  155.3446  137.7791  187.0872 C   0  0  0  0  0  0  0  0  0  0  0  0
  154.7678  138.3909  188.1087 N   0  0  0  0  0  0  0  0  0  0  0  0
  155.0180  138.0562  189.3789 C   0  0  0  0  0  0  0  0  0  0  0  0
  154.5524  138.5350  190.5678 N   0  0  0  0  0  0  0  0  0  0  0  0
  155.0923  137.8837  191.5573 N   0  0  0  0  0  0  0  0  0  0  0  0
  155.9492  136.9339  191.0593 C   0  0  0  0  0  0  0  0  0  0  0  0
  156.7577  135.9863  191.8402 C   0  0  0  0  0  0  0  0  0  0  0  0
  155.8977  137.0474  189.7010 C   0  0  0  0  0  0  0  0  0  0  0  0
  153.8591  139.3164  190.6532 H   0  0  0  0  0  0  0  0  0  0  0  0
  157.4429  135.3347  188.8455 N   0  0  0  0  0  0  0  0  0  0  0  0
  157.6293  134.8991  189.7282 H   0  0  0  0  0  0  0  0  0  0  0  0
  157.6814  133.4996  187.2202 C   0  0  0  0  0  0  0  0  0  0  0  0
  158.1828  134.8425  187.6840 C   0  0  0  0  0  0  0  0  0  0  0  0
  159.6515  134.7377  187.9630 C   0  0  0  0  0  0  0  0  0  0  0  0
  155.1004  138.0776  185.7354 N   0  0  0  0  0  0  0  0  0  0  0  0
  154.4135  137.4556  185.1854 H   0  0  0  0  0  0  0  0  0  0  0  0
  155.6759  139.1280  184.9949 C   0  0  0  0  0  0  0  0  0  0  0  0
  154.8599  139.8578  184.0997 C   0  0  0  0  0  0  0  0  0  0  0  0
  155.3307  140.8799  183.3186 C   0  0  0  0  0  0  0  0  0  0  0  0
  156.6385  141.2462  183.3722 C   0  0  0  0  0  0  0  0  0  0  0  0
  157.4541  140.5607  184.2269 C   0  0  0  0  0  0  0  0  0  0  0  0
  156.9906  139.5119  185.0338 C   0  0  0  0  0  0  0  0  0  0  0  0
  157.3229  142.5387  182.4109 S   0  0  0  0  0  0  0  0  0  0  0  0
  156.2363  143.9087  182.2844 C   0  0  0  0  0  0  0  0  0  0  0  0
  157.5735  141.9953  181.0282 O   0  0  0  0  0  0  0  0  0  0  0  0
  158.6389  142.9696  183.0103 O   0  0  0  0  0  0  0  0  0  0  0  0
 14 15  1  0  0  0
 15 16  1  0  0  0
 15 12  1  0  0  0
 12  1  1  0  0  0
  1  2  2  0  0  0
  2  3  1  0  0  0
  3 17  1  0  0  0
 17 19  1  0  0  0
 19 20  2  0  0  0
 20 21  1  0  0  0
 21 22  2  0  0  0
 22 23  1  0  0  0
 23 24  2  0  0  0
 22 25  1  0  0  0
 25 26  1  0  0  0
 25 27  2  0  0  0
 25 28  2  0  0  0
  3  4  2  0  0  0
  4  5  1  0  0  0
  5  6  1  0  0  0
  6  7  1  0  0  0
  7  8  2  0  0  0
  8  9  1  0  0  0
  8 10  1  0  0  0
 10  1  1  0  0  0
 24 19  1  0  0  0
 10  5  2  0  0  0
 12 13  1  0  0  0
 17 18  1  0  0  0
  6 11  1  0  0  0
M  END
> <minimizedAffinity>
-6.82600

> <CNNscore>
0.1819129884

> <CNNaffinity>
5.5415987968

> <CNN_VS>
1.0080888271

> <CNNaffinity_variance>
0.2919056416

$$$$
[H]c1c([H])c(S(=O)(=O)C([H])([H])[H])c([H])c([H])c1N([H])c1nc(N([H])C([H])(C([H])([H])[H])C([H])([H])[H])c2c(C([H])([H])[H])nn([H])c2n1


 28 30  0  0  0  0  0  0  0  0999 V2000
  156.4468  141.1246  182.8518 C   0  0  0  0  0  0  0  0  0  0  0  0
  155.6715  140.2875  183.5820 N   0  0  0  0  0  0  0  0  0  0  0  0
  156.1190  139.3224  184.4015 C   0  0  0  0  0  0  0  0  0  0  0  0
  157.4331  139.1952  184.4885 N   0  0  0  0  0  0  0  0  0  0  0  0
  158.2756  139.9766  183.8047 C   0  0  0  0  0  0  0  0  0  0  0  0
  159.6366  140.0284  183.7372 N   0  0  0  0  0  0  0  0  0  0  0  0
  160.0109  140.9721  182.9221 N   0  0  0  0  0  0  0  0  0  0  0  0
  158.8994  141.5931  182.4089 C   0  0  0  0  0  0  0  0  0  0  0  0
  158.8816  142.7092  181.4521 C   0  0  0  0  0  0  0  0  0  0  0  0
  157.8217  140.9673  182.9635 C   0  0  0  0  0  0  0  0  0  0  0  0
  160.2741  139.3914  184.2724 H   0  0  0  0  0  0  0  0  0  0  0  0
  155.8533  142.1050  182.0233 N   0  0  0  0  0  0  0  0  0  0  0  0
  155.7445  142.0203  181.0311 H   0  0  0  0  0  0  0  0  0  0  0  0
  153.8577  143.4138  182.6320 C   0  0  0  0  0  0  0  0  0  0  0  0
  155.3619  143.3313  182.6508 C   0  0  0  0  0  0  0  0  0  0  0  0
  155.9195  144.5561  181.9914 C   0  0  0  0  0  0  0  0  0  0  0  0
  155.1912  138.5142  185.0813 N   0  0  0  0  0  0  0  0  0  0  0  0
  154.4345  138.0035  184.5086 H   0  0  0  0  0  0  0  0  0  0  0  0
  155.1347  138.2953  186.4712 C   0  0  0  0  0  0  0  0  0  0  0  0
  153.9283  138.5697  187.1560 C   0  0  0  0  0  0  0  0  0  0  0  0
  153.7807  138.4122  188.5087 C   0  0  0  0  0  0  0  0  0  0  0  0
  154.8165  137.9732  189.2714 C   0  0  0  0  0  0  0  0  0  0  0  0
  155.9966  137.6993  188.6406 C   0  0  0  0  0  0  0  0  0  0  0  0
  156.1666  137.8547  187.2575 C   0  0  0  0  0  0  0  0  0  0  0  0
  154.7153  137.7437  191.0035 S   0  0  0  0  0  0  0  0  0  0  0  0
  156.0111  136.7291  191.6079 C   0  0  0  0  0  0  0  0  0  0  0  0
  153.4004  137.0696  191.2983 O   0  0  0  0  0  0  0  0  0  0  0  0
  154.7388  139.0862  191.6918 O   0  0  0  0  0  0  0  0  0  0  0  0
 14 15  1  0  0  0
 15 16  1  0  0  0
 15 12  1  0  0  0
 12  1  1  0  0  0
  1  2  2  0  0  0
  2  3  1  0  0  0
  3 17  1  0  0  0
 17 19  1  0  0  0
 19 20  2  0  0  0
 20 21  1  0  0  0
 21 22  2  0  0  0
 22 23  1  0  0  0
 23 24  2  0  0  0
 22 25  1  0  0  0
 25 26  1  0  0  0
 25 27  2  0  0  0
 25 28  2  0  0  0
  3  4  2  0  0  0
  4  5  1  0  0  0
  5  6  1  0  0  0
  6  7  1  0  0  0
  7  8  2  0  0  0
  8  9  1  0  0  0
  8 10  1  0  0  0
 10  1  1  0  0  0
 24 19  1  0  0  0
 10  5  2  0  0  0
 12 13  1  0  0  0
 17 18  1  0  0  0
  6 11  1  0  0  0
M  END
> <minimizedAffinity>
-7.38709

> <CNNscore>
0.1768253148

> <CNNaffinity>
5.8821172714

> <CNN_VS>
1.0401072502

> <CNNaffinity_variance>
0.0373641662

$$$$
[H]c1c([H])c(OC([H])([H])[H])c([H])c(C2([H])C(C(=O)OC(C([H])([H])[H])(C([H])([H])[H])C([H])([H])[H])=C(C([H])([H])[H])N=C(C([H])([H])[H])C2([H])C(=O)OC([H])([H])[H])c1[H]


 27 28  0  0  0  0  0  0  0  0999 V2000
  152.8147  135.3793  192.0134 C   0  0  0  0  0  0  0  0  0  0  0  0
  152.8360  136.1615  190.7650 C   0  0  0  0  0  0  0  0  0  0  0  0
  152.4798  135.3880  189.5451 C   0  0  0  0  0  0  0  0  0  0  0  0
  152.2516  134.0828  189.6068 C   0  0  0  0  0  0  0  0  0  0  0  0
  151.9006  133.3181  188.3830 C   0  0  0  0  0  0  0  0  0  0  0  0
  152.2960  133.3697  190.8315 N   0  0  0  0  0  0  0  0  0  0  0  0
  152.5504  133.9493  191.9148 C   0  0  0  0  0  0  0  0  0  0  0  0
  152.5876  133.1179  193.1561 C   0  0  0  0  0  0  0  0  0  0  0  0
  154.2003  136.7175  190.5884 C   0  0  0  0  0  0  0  0  0  0  0  0
  154.4176  138.0398  190.8467 C   0  0  0  0  0  0  0  0  0  0  0  0
  155.6825  138.5526  190.6745 C   0  0  0  0  0  0  0  0  0  0  0  0
  156.7201  137.7663  190.2516 C   0  0  0  0  0  0  0  0  0  0  0  0
  156.5030  136.4327  189.9906 C   0  0  0  0  0  0  0  0  0  0  0  0
  155.2200  135.9194  190.1668 C   0  0  0  0  0  0  0  0  0  0  0  0
  157.5253  135.6057  189.5618 O   0  0  0  0  0  0  0  0  0  0  0  0
  157.6232  135.2400  188.2114 C   0  0  0  0  0  0  0  0  0  0  0  0
  151.7840  135.9323  192.9834 C   0  0  0  0  0  0  0  0  0  0  0  0
  152.1258  136.4426  194.0749 O   0  0  0  0  0  0  0  0  0  0  0  0
  149.4955  135.1633  193.4473 C   0  0  0  0  0  0  0  0  0  0  0  0
  150.4539  135.8769  192.6686 O   0  0  0  0  0  0  0  0  0  0  0  0
  152.3763  136.0902  188.2580 C   0  0  0  0  0  0  0  0  0  0  0  0
  151.2298  136.5264  187.9067 O   0  0  0  0  0  0  0  0  0  0  0  0
  153.4011  136.3138  187.4101 O   0  0  0  0  0  0  0  0  0  0  0  0
  153.7306  137.5103  186.7647 C   0  0  0  0  0  0  0  0  0  0  0  0
  153.1469  138.6508  187.5920 C   0  0  0  0  0  0  0  0  0  0  0  0
  155.2341  137.6894  186.7639 C   0  0  0  0  0  0  0  0  0  0  0  0
  153.1791  137.6285  185.3812 C   0  0  0  0  0  0  0  0  0  0  0  0
 19 20  1  0  0  0
 20 17  1  0  0  0
 17 18  2  0  0  0
 17  1  1  0  0  0
  1  2  1  0  0  0
  2  3  1  0  0  0
  3 21  1  0  0  0
 21 22  2  0  0  0
 21 23  1  0  0  0
 23 24  1  0  0  0
 24 25  1  0  0  0
 24 26  1  0  0  0
 24 27  1  0  0  0
  3  4  2  0  0  0
  4  5  1  0  0  0
  4  6  1  0  0  0
  6  7  2  0  0  0
  7  8  1  0  0  0
  2  9  1  0  0  0
  9 10  2  0  0  0
 10 11  1  0  0  0
 11 12  2  0  0  0
 12 13  1  0  0  0
 13 15  1  0  0  0
 15 16  1  0  0  0
 13 14  2  0  0  0
  7  1  1  0  0  0
 14  9  1  0  0  0
M  END
> <minimizedAffinity>
-5.12968

> <CNNscore>
0.5097976327

> <CNNaffinity>
4.9456915855

> <CNN_VS>
2.5213017464

> <CNNaffinity_variance>
0.2847258449

$$$$
[H]c1c([H])c(OC([H])([H])[H])c([H])c(C2([H])C(C(=O)OC(C([H])([H])[H])(C([H])([H])[H])C([H])([H])[H])=C(C([H])([H])[H])N=C(C([H])([H])[H])C2([H])C(=O)OC([H])([H])[H])c1[H]


 27 28  0  0  0  0  0  0  0  0999 V2000
  154.4377  136.4986  190.6550 C   0  0  0  0  0  0  0  0  0  0  0  0
  153.2928  135.8663  189.9767 C   0  0  0  0  0  0  0  0  0  0  0  0
  152.7923  136.6078  188.7881 C   0  0  0  0  0  0  0  0  0  0  0  0
  153.3069  137.7827  188.4500 C   0  0  0  0  0  0  0  0  0  0  0  0
  152.7980  138.5178  187.2640 C   0  0  0  0  0  0  0  0  0  0  0  0
  154.3764  138.3701  189.1723 N   0  0  0  0  0  0  0  0  0  0  0  0
  154.8858  137.7962  190.1649 C   0  0  0  0  0  0  0  0  0  0  0  0
  156.0019  138.4929  190.8737 C   0  0  0  0  0  0  0  0  0  0  0  0
  152.1843  135.7414  190.9551 C   0  0  0  0  0  0  0  0  0  0  0  0
  151.8149  136.8344  191.6839 C   0  0  0  0  0  0  0  0  0  0  0  0
  150.7915  136.7121  192.5952 C   0  0  0  0  0  0  0  0  0  0  0  0
  150.1415  135.5222  192.7830 C   0  0  0  0  0  0  0  0  0  0  0  0
  150.5125  134.4189  192.0491 C   0  0  0  0  0  0  0  0  0  0  0  0
  151.5494  134.5491  191.1281 C   0  0  0  0  0  0  0  0  0  0  0  0
  149.8802  133.1994  192.2100 O   0  0  0  0  0  0  0  0  0  0  0  0
  148.5519  133.0283  191.7939 C   0  0  0  0  0  0  0  0  0  0  0  0
  155.6568  135.5921  190.6226 C   0  0  0  0  0  0  0  0  0  0  0  0
  156.1261  135.0952  191.6720 O   0  0  0  0  0  0  0  0  0  0  0  0
  156.3831  133.9831  188.9117 C   0  0  0  0  0  0  0  0  0  0  0  0
  156.2616  135.3065  189.4293 O   0  0  0  0  0  0  0  0  0  0  0  0
  151.7151  136.0194  187.9795 C   0  0  0  0  0  0  0  0  0  0  0  0
  152.0450  135.3111  186.9708 O   0  0  0  0  0  0  0  0  0  0  0  0
  150.3956  136.1670  188.2172 O   0  0  0  0  0  0  0  0  0  0  0  0
  149.3518  136.1424  187.2863 C   0  0  0  0  0  0  0  0  0  0  0  0
  148.0591  136.4306  188.0423 C   0  0  0  0  0  0  0  0  0  0  0  0
  149.5377  137.2632  186.2854 C   0  0  0  0  0  0  0  0  0  0  0  0
  149.1853  134.8300  186.5919 C   0  0  0  0  0  0  0  0  0  0  0  0
 19 20  1  0  0  0
 20 17  1  0  0  0
 17 18  2  0  0  0
 17  1  1  0  0  0
  1  2  1  0  0  0
  2  3  1  0  0  0
  3 21  1  0  0  0
 21 22  2  0  0  0
 21 23  1  0  0  0
 23 24  1  0  0  0
 24 25  1  0  0  0
 24 26  1  0  0  0
 24 27  1  0  0  0
  3  4  2  0  0  0
  4  5  1  0  0  0
  4  6  1  0  0  0
  6  7  2  0  0  0
  7  8  1  0  0  0
  2  9  1  0  0  0
  9 10  2  0  0  0
 10 11  1  0  0  0
 11 12  2  0  0  0
 12 13  1  0  0  0
 13 15  1  0  0  0
 15 16  1  0  0  0
 13 14  2  0  0  0
  7  1  1  0  0  0
 14  9  1  0  0  0
M  END
> <minimizedAffinity>
-4.93162

> <CNNscore>
0.4731827378

> <CNNaffinity>
4.9313821793

> <CNN_VS>
2.3334448338

> <CNNaffinity_variance>
0.0852005556

$$$$
[H]c1c([H])c(OC([H])([H])[H])c([H])c(C2([H])C(C(=O)OC(C([H])([H])[H])(C([H])([H])[H])C([H])([H])[H])=C(C([H])([H])[H])N=C(C([H])([H])[H])C2([H])C(=O)OC([H])([H])[H])c1[H]


 27 28  0  0  0  0  0  0  0  0999 V2000
  154.6342  136.4484  190.5405 C   0  0  0  0  0  0  0  0  0  0  0  0
  153.4127  135.9177  189.9104 C   0  0  0  0  0  0  0  0  0  0  0  0
  152.8922  136.7380  188.7838 C   0  0  0  0  0  0  0  0  0  0  0  0
  153.4611  137.8915  188.4594 C   0  0  0  0  0  0  0  0  0  0  0  0
  152.9320  138.7058  187.3357 C   0  0  0  0  0  0  0  0  0  0  0  0
  154.6071  138.3803  189.1363 N   0  0  0  0  0  0  0  0  0  0  0  0
  155.1359  137.7348  190.0733 C   0  0  0  0  0  0  0  0  0  0  0  0
  156.3346  138.3303  190.7380 C   0  0  0  0  0  0  0  0  0  0  0  0
  152.3581  135.8216  190.9497 C   0  0  0  0  0  0  0  0  0  0  0  0
  152.0082  136.9413  191.6471 C   0  0  0  0  0  0  0  0  0  0  0  0
  151.0351  136.8459  192.6148 C   0  0  0  0  0  0  0  0  0  0  0  0
  150.4155  135.6566  192.8893 C   0  0  0  0  0  0  0  0  0  0  0  0
  150.7669  134.5264  192.1872 C   0  0  0  0  0  0  0  0  0  0  0  0
  151.7529  134.6294  191.2086 C   0  0  0  0  0  0  0  0  0  0  0  0
  150.1641  133.3065  192.4352 O   0  0  0  0  0  0  0  0  0  0  0  0
  148.8716  133.2505  192.9766 C   0  0  0  0  0  0  0  0  0  0  0  0
  155.7879  135.4697  190.3989 C   0  0  0  0  0  0  0  0  0  0  0  0
  156.2390  135.1540  189.2740 O   0  0  0  0  0  0  0  0  0  0  0  0
  157.5657  134.1669  191.4879 C   0  0  0  0  0  0  0  0  0  0  0  0
  156.3525  134.9163  191.5152 O   0  0  0  0  0  0  0  0  0  0  0  0
  151.7333  136.2523  188.0213 C   0  0  0  0  0  0  0  0  0  0  0  0
  150.5732  136.4265  188.5233 O   0  0  0  0  0  0  0  0  0  0  0  0
  151.7945  135.6325  186.8249 O   0  0  0  0  0  0  0  0  0  0  0  0
  152.2008  134.3199  186.5624 C   0  0  0  0  0  0  0  0  0  0  0  0
  153.7255  134.3121  186.5291 C   0  0  0  0  0  0  0  0  0  0  0  0
  151.7790  133.4200  187.7045 C   0  0  0  0  0  0  0  0  0  0  0  0
  151.7183  133.7827  185.2544 C   0  0  0  0  0  0  0  0  0  0  0  0
 19 20  1  0  0  0
 20 17  1  0  0  0
 17 18  2  0  0  0
 17  1  1  0  0  0
  1  2  1  0  0  0
  2  3  1  0  0  0
  3 21  1  0  0  0
 21 22  2  0  0  0
 21 23  1  0  0  0
 23 24  1  0  0  0
 24 25  1  0  0  0
 24 26  1  0  0  0
 24 27  1  0  0  0
  3  4  2  0  0  0
  4  5  1  0  0  0
  4  6  1  0  0  0
  6  7  2  0  0  0
  7  8  1  0  0  0
  2  9  1  0  0  0
  9 10  2  0  0  0
 10 11  1  0  0  0
 11 12  2  0  0  0
 12 13  1  0  0  0
 13 15  1  0  0  0
 15 16  1  0  0  0
 13 14  2  0  0  0
  7  1  1  0  0  0
 14  9  1  0  0  0
M  END
> <minimizedAffinity>
-4.58001

> <CNNscore>
0.4623555839

> <CNNaffinity>
4.9444460869

> <CNN_VS>
2.2860922813

> <CNNaffinity_variance>
0.0480428077

$$$$
[H]c1c([H])c(OC([H])([H])[H])c([H])c(C2([H])C(C(=O)OC(C([H])([H])[H])(C([H])([H])[H])C([H])([H])[H])=C(C([H])([H])[H])N=C(C([H])([H])[H])C2([H])C(=O)OC([H])([H])[H])c1[H]


 27 28  0  0  0  0  0  0  0  0999 V2000
  153.2589  135.7976  185.4446 C   0  0  0  0  0  0  0  0  0  0  0  0
  152.9319  136.1538  186.8364 C   0  0  0  0  0  0  0  0  0  0  0  0
  153.8623  135.5927  187.8526 C   0  0  0  0  0  0  0  0  0  0  0  0
  154.8438  134.7727  187.5006 C   0  0  0  0  0  0  0  0  0  0  0  0
  155.7653  134.2140  188.5226 C   0  0  0  0  0  0  0  0  0  0  0  0
  155.0805  134.4220  186.1473 N   0  0  0  0  0  0  0  0  0  0  0  0
  154.3689  134.8798  185.2209 C   0  0  0  0  0  0  0  0  0  0  0  0
  154.6826  134.4480  183.8250 C   0  0  0  0  0  0  0  0  0  0  0  0
  151.5622  135.6656  187.1313 C   0  0  0  0  0  0  0  0  0  0  0  0
  150.5676  136.5724  187.3569 C   0  0  0  0  0  0  0  0  0  0  0  0
  149.3008  136.1151  187.6373 C   0  0  0  0  0  0  0  0  0  0  0  0
  149.0214  134.7763  187.6939 C   0  0  0  0  0  0  0  0  0  0  0  0
  150.0229  133.8603  187.4668 C   0  0  0  0  0  0  0  0  0  0  0  0
  151.3036  134.3296  187.1834 C   0  0  0  0  0  0  0  0  0  0  0  0
  149.7805  132.4994  187.5151 O   0  0  0  0  0  0  0  0  0  0  0  0
  148.5022  131.9958  187.2341 C   0  0  0  0  0  0  0  0  0  0  0  0
  153.5668  137.0390  184.6241 C   0  0  0  0  0  0  0  0  0  0  0  0
  154.5515  137.7662  184.8890 O   0  0  0  0  0  0  0  0  0  0  0  0
  152.8960  138.5969  182.8446 C   0  0  0  0  0  0  0  0  0  0  0  0
  152.7594  137.3785  183.5734 O   0  0  0  0  0  0  0  0  0  0  0  0
  153.6867  135.9622  189.2643 C   0  0  0  0  0  0  0  0  0  0  0  0
  153.1953  135.0881  190.0533 O   0  0  0  0  0  0  0  0  0  0  0  0
  154.0047  137.1586  189.7999 O   0  0  0  0  0  0  0  0  0  0  0  0
  155.2569  137.5858  190.2540 C   0  0  0  0  0  0  0  0  0  0  0  0
  155.0362  138.8476  191.0815 C   0  0  0  0  0  0  0  0  0  0  0  0
  155.8421  136.5441  191.1840 C   0  0  0  0  0  0  0  0  0  0  0  0
  156.2181  137.9250  189.1616 C   0  0  0  0  0  0  0  0  0  0  0  0
 19 20  1  0  0  0
 20 17  1  0  0  0
 17 18  2  0  0  0
 17  1  1  0  0  0
  1  2  1  0  0  0
  2  3  1  0  0  0
  3 21  1  0  0  0
 21 22  2  0  0  0
 21 23  1  0  0  0
 23 24  1  0  0  0
 24 25  1  0  0  0
 24 26  1  0  0  0
 24 27  1  0  0  0
  3  4  2  0  0  0
  4  5  1  0  0  0
  4  6  1  0  0  0
  6  7  2  0  0  0
  7  8  1  0  0  0
  2  9  1  0  0  0
  9 10  2  0  0  0
 10 11  1  0  0  0
 11 12  2  0  0  0
 12 13  1  0  0  0
 13 15  1  0  0  0
 15 16  1  0  0  0
 13 14  2  0  0  0
  7  1  1  0  0  0
 14  9  1  0  0  0
M  END
> <minimizedAffinity>
-3.60589

> <CNNscore>
0.4344612360

> <CNNaffinity>
4.8587865829

> <CNN_VS>
2.1109545231

> <CNNaffinity_variance>
0.0255739987

$$$$
[H]c1c([H])c(OC([H])([H])[H])c([H])c(C2([H])C(C(=O)OC(C([H])([H])[H])(C([H])([H])[H])C([H])([H])[H])=C(C([H])([H])[H])N=C(C([H])([H])[H])C2([H])C(=O)OC([H])([H])[H])c1[H]


 27 28  0  0  0  0  0  0  0  0999 V2000
  155.3382  136.4407  190.7533 C   0  0  0  0  0  0  0  0  0  0  0  0
  154.0389  135.7700  190.5723 C   0  0  0  0  0  0  0  0  0  0  0  0
  153.2007  136.3314  189.4790 C   0  0  0  0  0  0  0  0  0  0  0  0
  153.5903  137.4034  188.8019 C   0  0  0  0  0  0  0  0  0  0  0  0
  152.7450  137.9594  187.7147 C   0  0  0  0  0  0  0  0  0  0  0  0
  154.8312  138.0414  189.0547 N   0  0  0  0  0  0  0  0  0  0  0  0
  155.6184  137.6120  189.9322 C   0  0  0  0  0  0  0  0  0  0  0  0
  156.8997  138.3528  190.1392 C   0  0  0  0  0  0  0  0  0  0  0  0
  153.2827  135.8711  191.8449 C   0  0  0  0  0  0  0  0  0  0  0  0
  152.7478  137.0734  192.2064 C   0  0  0  0  0  0  0  0  0  0  0  0
  152.0537  137.1642  193.3908 C   0  0  0  0  0  0  0  0  0  0  0  0
  151.8911  136.0781  194.2078 C   0  0  0  0  0  0  0  0  0  0  0  0
  152.4298  134.8649  193.8452 C   0  0  0  0  0  0  0  0  0  0  0  0
  153.1315  134.7794  192.6448 C   0  0  0  0  0  0  0  0  0  0  0  0
  152.2871  133.7445  194.6436 O   0  0  0  0  0  0  0  0  0  0  0  0
  152.4537  132.4615  194.1025 C   0  0  0  0  0  0  0  0  0  0  0  0
  156.4864  135.4744  190.5145 C   0  0  0  0  0  0  0  0  0  0  0  0
  157.1829  135.0447  191.4624 O   0  0  0  0  0  0  0  0  0  0  0  0
  158.0948  134.7533  188.8008 C   0  0  0  0  0  0  0  0  0  0  0  0
  156.7738  135.0592  189.2432 O   0  0  0  0  0  0  0  0  0  0  0  0
  151.9261  135.6786  189.1479 C   0  0  0  0  0  0  0  0  0  0  0  0
  151.8720  134.9824  188.0800 O   0  0  0  0  0  0  0  0  0  0  0  0
  150.7993  135.7548  189.8853 O   0  0  0  0  0  0  0  0  0  0  0  0
  149.9837  134.7009  190.3107 C   0  0  0  0  0  0  0  0  0  0  0  0
  149.4527  135.0641  191.6933 C   0  0  0  0  0  0  0  0  0  0  0  0
  148.7849  134.5847  189.3933 C   0  0  0  0  0  0  0  0  0  0  0  0
  150.6928  133.3912  190.4295 C   0  0  0  0  0  0  0  0  0  0  0  0
 19 20  1  0  0  0
 20 17  1  0  0  0
 17 18  2  0  0  0
 17  1  1  0  0  0
  1  2  1  0  0  0
  2  3  1  0  0  0
  3 21  1  0  0  0
 21 22  2  0  0  0
 21 23  1  0  0  0
 23 24  1  0  0  0
 24 25  1  0  0  0
 24 26  1  0  0  0
 24 27  1  0  0  0
  3  4  2  0  0  0
  4  5  1  0  0  0
  4  6  1  0  0  0
  6  7  2  0  0  0
  7  8  1  0  0  0
  2  9  1  0  0  0
  9 10  2  0  0  0
 10 11  1  0  0  0
 11 12  2  0  0  0
 12 13  1  0  0  0
 13 15  1  0  0  0
 15 16  1  0  0  0
 13 14  2  0  0  0
  7  1  1  0  0  0
 14  9  1  0  0  0
M  END
> <minimizedAffinity>
-5.11469

> <CNNscore>
0.4064668417

> <CNNaffinity>
4.8513045311

> <CNN_VS>
1.9718943834

> <CNNaffinity_variance>
0.2961005270

$$$$
[H]c1c([H])c(OC([H])([H])[H])c([H])c(C2([H])C(C(=O)OC(C([H])([H])[H])(C([H])([H])[H])C([H])([H])[H])=C(C([H])([H])[H])N=C(C([H])([H])[H])C2([H])C(=O)OC([H])([H])[H])c1[H]


 27 28  0  0  0  0  0  0  0  0999 V2000
  155.1893  137.4931  187.8366 C   0  0  0  0  0  0  0  0  0  0  0  0
  154.3174  137.4758  186.6492 C   0  0  0  0  0  0  0  0  0  0  0  0
  154.2471  136.1628  185.9533 C   0  0  0  0  0  0  0  0  0  0  0  0
  154.9908  135.1389  186.3508 C   0  0  0  0  0  0  0  0  0  0  0  0
  154.9170  133.8329  185.6474 C   0  0  0  0  0  0  0  0  0  0  0  0
  155.8540  135.2282  187.4720 N   0  0  0  0  0  0  0  0  0  0  0  0
  155.9467  136.2855  188.1411 C   0  0  0  0  0  0  0  0  0  0  0  0
  156.8897  136.2942  189.3005 C   0  0  0  0  0  0  0  0  0  0  0  0
  154.8186  138.4910  185.6900 C   0  0  0  0  0  0  0  0  0  0  0  0
  153.9286  139.1422  184.8862 C   0  0  0  0  0  0  0  0  0  0  0  0
  154.3986  140.0773  183.9932 C   0  0  0  0  0  0  0  0  0  0  0  0
  155.7336  140.3644  183.8968 C   0  0  0  0  0  0  0  0  0  0  0  0
  156.6325  139.7088  184.7064 C   0  0  0  0  0  0  0  0  0  0  0  0
  156.1505  138.7630  185.6085 C   0  0  0  0  0  0  0  0  0  0  0  0
  157.9889  139.9709  184.6389 O   0  0  0  0  0  0  0  0  0  0  0  0
  158.5127  140.7337  183.5851 C   0  0  0  0  0  0  0  0  0  0  0  0
  154.3941  137.8188  189.0899 C   0  0  0  0  0  0  0  0  0  0  0  0
  153.4322  137.1043  189.4541 O   0  0  0  0  0  0  0  0  0  0  0  0
  155.0786  138.8322  191.2226 C   0  0  0  0  0  0  0  0  0  0  0  0
  154.7267  138.9115  189.8427 O   0  0  0  0  0  0  0  0  0  0  0  0
  153.3332  136.0059  184.8129 C   0  0  0  0  0  0  0  0  0  0  0  0
  152.0800  136.0964  185.0356 O   0  0  0  0  0  0  0  0  0  0  0  0
  153.7121  135.7722  183.5397 O   0  0  0  0  0  0  0  0  0  0  0  0
  153.0186  135.0538  182.5600 C   0  0  0  0  0  0  0  0  0  0  0  0
  154.0538  134.4634  181.6084 C   0  0  0  0  0  0  0  0  0  0  0  0
  152.2936  133.8899  183.2018 C   0  0  0  0  0  0  0  0  0  0  0  0
  152.0794  135.8835  181.7464 C   0  0  0  0  0  0  0  0  0  0  0  0
 19 20  1  0  0  0
 20 17  1  0  0  0
 17 18  2  0  0  0
 17  1  1  0  0  0
  1  2  1  0  0  0
  2  3  1  0  0  0
  3 21  1  0  0  0
 21 22  2  0  0  0
 21 23  1  0  0  0
 23 24  1  0  0  0
 24 25  1  0  0  0
 24 26  1  0  0  0
 24 27  1  0  0  0
  3  4  2  0  0  0
  4  5  1  0  0  0
  4  6  1  0  0  0
  6  7  2  0  0  0
  7  8  1  0  0  0
  2  9  1  0  0  0
  9 10  2  0  0  0
 10 11  1  0  0  0
 11 12  2  0  0  0
 12 13  1  0  0  0
 13 15  1  0  0  0
 15 16  1  0  0  0
 13 14  2  0  0  0
  7  1  1  0  0  0
 14  9  1  0  0  0
M  END
> <minimizedAffinity>
-5.29294

> <CNNscore>
0.3989797533

> <CNNaffinity>
5.1242322922

> <CNN_VS>
2.0444648266

> <CNNaffinity_variance>
0.0257170349

$$$$
[H]c1c([H])c(OC([H])([H])[H])c([H])c(C2([H])C(C(=O)OC(C([H])([H])[H])(C([H])([H])[H])C([H])([H])[H])=C(C([H])([H])[H])N=C(C([H])([H])[H])C2([H])C(=O)OC([H])([H])[H])c1[H]


 27 28  0  0  0  0  0  0  0  0999 V2000
  157.1248  140.7711  182.9400 C   0  0  0  0  0  0  0  0  0  0  0  0
  155.7933  140.1516  182.8214 C   0  0  0  0  0  0  0  0  0  0  0  0
  154.6665  141.1196  182.7408 C   0  0  0  0  0  0  0  0  0  0  0  0
  154.8775  142.4241  182.8562 C   0  0  0  0  0  0  0  0  0  0  0  0
  153.7459  143.3828  182.7786 C   0  0  0  0  0  0  0  0  0  0  0  0
  156.1788  142.9626  183.0215 N   0  0  0  0  0  0  0  0  0  0  0  0
  157.1908  142.2221  183.0611 C   0  0  0  0  0  0  0  0  0  0  0  0
  158.5224  142.8741  183.2493 C   0  0  0  0  0  0  0  0  0  0  0  0
  155.5805  139.2783  184.0019 C   0  0  0  0  0  0  0  0  0  0  0  0
  156.3391  139.4746  185.1192 C   0  0  0  0  0  0  0  0  0  0  0  0
  156.1434  138.6576  186.2087 C   0  0  0  0  0  0  0  0  0  0  0  0
  155.2081  137.6583  186.1927 C   0  0  0  0  0  0  0  0  0  0  0  0
  154.4422  137.4588  185.0670 C   0  0  0  0  0  0  0  0  0  0  0  0
  154.6451  138.2892  183.9671 C   0  0  0  0  0  0  0  0  0  0  0  0
  153.4871  136.4598  185.0120 O   0  0  0  0  0  0  0  0  0  0  0  0
  152.1227  136.7831  184.9857 C   0  0  0  0  0  0  0  0  0  0  0  0
  158.0010  140.4072  181.7529 C   0  0  0  0  0  0  0  0  0  0  0  0
  158.9921  139.6526  181.8829 O   0  0  0  0  0  0  0  0  0  0  0  0
  158.5653  141.8124  179.8163 C   0  0  0  0  0  0  0  0  0  0  0  0
  157.7108  140.9079  180.5135 O   0  0  0  0  0  0  0  0  0  0  0  0
  153.3034  140.6140  182.5246 C   0  0  0  0  0  0  0  0  0  0  0  0
  152.6741  140.1456  183.5310 O   0  0  0  0  0  0  0  0  0  0  0  0
  152.6569  140.6038  181.3409 O   0  0  0  0  0  0  0  0  0  0  0  0
  151.8715  139.5777  180.8052 C   0  0  0  0  0  0  0  0  0  0  0  0
  150.5682  139.5400  181.5962 C   0  0  0  0  0  0  0  0  0  0  0  0
  151.5098  139.9102  179.3730 C   0  0  0  0  0  0  0  0  0  0  0  0
  152.4940  138.2226  180.8968 C   0  0  0  0  0  0  0  0  0  0  0  0
 19 20  1  0  0  0
 20 17  1  0  0  0
 17 18  2  0  0  0
 17  1  1  0  0  0
  1  2  1  0  0  0
  2  3  1  0  0  0
  3 21  1  0  0  0
 21 22  2  0  0  0
 21 23  1  0  0  0
 23 24  1  0  0  0
 24 25  1  0  0  0
 24 26  1  0  0  0
 24 27  1  0  0  0
  3  4  2  0  0  0
  4  5  1  0  0  0
  4  6  1  0  0  0
  6  7  2  0  0  0
  7  8  1  0  0  0
  2  9  1  0  0  0
  9 10  2  0  0  0
 10 11  1  0  0  0
 11 12  2  0  0  0
 12 13  1  0  0  0
 13 15  1  0  0  0
 15 16  1  0  0  0
 13 14  2  0  0  0
  7  1  1  0  0  0
 14  9  1  0  0  0
M  END
> <minimizedAffinity>
-6.45322

> <CNNscore>
0.3890745342

> <CNNaffinity>
5.7247619629

> <CNN_VS>
2.2273590565

> <CNNaffinity_variance>
0.1457264423

$$$$
[H]c1c([H])c(OC([H])([H])[H])c([H])c(C2([H])C(C(=O)OC(C([H])([H])[H])(C([H])([H])[H])C([H])([H])[H])=C(C([H])([H])[H])N=C(C([H])([H])[H])C2([H])C(=O)OC([H])([H])[H])c1[H]


 27 28  0  0  0  0  0  0  0  0999 V2000
  154.3205  136.7234  189.7171 C   0  0  0  0  0  0  0  0  0  0  0  0
  153.0184  136.0416  189.8189 C   0  0  0  0  0  0  0  0  0  0  0  0
  152.2518  136.3548  191.0548 C   0  0  0  0  0  0  0  0  0  0  0  0
  152.7707  137.1229  192.0036 C   0  0  0  0  0  0  0  0  0  0  0  0
  151.9996  137.4268  193.2361 C   0  0  0  0  0  0  0  0  0  0  0  0
  154.0539  137.7122  191.8748 N   0  0  0  0  0  0  0  0  0  0  0  0
  154.7537  137.5333  190.8489 C   0  0  0  0  0  0  0  0  0  0  0  0
  156.0985  138.1835  190.8027 C   0  0  0  0  0  0  0  0  0  0  0  0
  153.2555  134.5777  189.7699 C   0  0  0  0  0  0  0  0  0  0  0  0
  152.7195  133.8515  188.7464 C   0  0  0  0  0  0  0  0  0  0  0  0
  152.9357  132.4933  188.7092 C   0  0  0  0  0  0  0  0  0  0  0  0
  153.6736  131.8613  189.6734 C   0  0  0  0  0  0  0  0  0  0  0  0
  154.2150  132.5918  190.7063 C   0  0  0  0  0  0  0  0  0  0  0  0
  153.9924  133.9666  190.7385 C   0  0  0  0  0  0  0  0  0  0  0  0
  154.9663  131.9899  191.6994 O   0  0  0  0  0  0  0  0  0  0  0  0
  156.3223  131.7019  191.4874 C   0  0  0  0  0  0  0  0  0  0  0  0
  154.3615  137.6381  188.5043 C   0  0  0  0  0  0  0  0  0  0  0  0
  153.5431  138.5764  188.3692 O   0  0  0  0  0  0  0  0  0  0  0  0
  155.3078  138.1409  186.2917 C   0  0  0  0  0  0  0  0  0  0  0  0
  155.3066  137.4420  187.5350 O   0  0  0  0  0  0  0  0  0  0  0  0
  150.8984  135.8047  191.2156 C   0  0  0  0  0  0  0  0  0  0  0  0
  150.1128  135.8496  190.2111 O   0  0  0  0  0  0  0  0  0  0  0  0
  150.4135  135.2515  192.3461 O   0  0  0  0  0  0  0  0  0  0  0  0
  150.4231  133.9004  192.7085 C   0  0  0  0  0  0  0  0  0  0  0  0
  151.6653  133.6654  193.5613 C   0  0  0  0  0  0  0  0  0  0  0  0
  149.2237  133.6008  193.5827 C   0  0  0  0  0  0  0  0  0  0  0  0
  150.4865  132.9592  191.5499 C   0  0  0  0  0  0  0  0  0  0  0  0
 19 20  1  0  0  0
 20 17  1  0  0  0
 17 18  2  0  0  0
 17  1  1  0  0  0
  1  2  1  0  0  0
  2  3  1  0  0  0
  3 21  1  0  0  0
 21 22  2  0  0  0
 21 23  1  0  0  0
 23 24  1  0  0  0
 24 25  1  0  0  0
 24 26  1  0  0  0
 24 27  1  0  0  0
  3  4  2  0  0  0
  4  5  1  0  0  0
  4  6  1  0  0  0
  6  7  2  0  0  0
  7  8  1  0  0  0
  2  9  1  0  0  0
  9 10  2  0  0  0
 10 11  1  0  0  0
 11 12  2  0  0  0
 12 13  1  0  0  0
 13 15  1  0  0  0
 15 16  1  0  0  0
 13 14  2  0  0  0
  7  1  1  0  0  0
 14  9  1  0  0  0
M  END
> <minimizedAffinity>
-4.28343

> <CNNscore>
0.3866086304

> <CNNaffinity>
4.8763837814

> <CNN_VS>
1.8852519989

> <CNNaffinity_variance>
0.0766295046

$$$$
[H]c1c([H])c(OC([H])([H])[H])c([H])c(C2([H])C(C(=O)OC(C([H])([H])[H])(C([H])([H])[H])C([H])([H])[H])=C(C([H])([H])[H])N=C(C([H])([H])[H])C2([H])C(=O)OC([H])([H])[H])c1[H]


 27 28  0  0  0  0  0  0  0  0999 V2000
  155.0591  137.6259  187.5302 C   0  0  0  0  0  0  0  0  0  0  0  0
  154.2280  137.8471  186.3340 C   0  0  0  0  0  0  0  0  0  0  0  0
  153.9409  136.6188  185.5453 C   0  0  0  0  0  0  0  0  0  0  0  0
  154.4789  135.4528  185.8777 C   0  0  0  0  0  0  0  0  0  0  0  0
  154.1898  134.2325  185.0820 C   0  0  0  0  0  0  0  0  0  0  0  0
  155.3160  135.3083  187.0130 N   0  0  0  0  0  0  0  0  0  0  0  0
  155.5800  136.2835  187.7570 C   0  0  0  0  0  0  0  0  0  0  0  0
  156.4800  136.0429  188.9255 C   0  0  0  0  0  0  0  0  0  0  0  0
  154.9268  138.8179  185.4560 C   0  0  0  0  0  0  0  0  0  0  0  0
  154.1906  139.6142  184.6275 C   0  0  0  0  0  0  0  0  0  0  0  0
  154.8432  140.5077  183.8098 C   0  0  0  0  0  0  0  0  0  0  0  0
  156.2081  140.6119  183.8120 C   0  0  0  0  0  0  0  0  0  0  0  0
  156.9521  139.8098  184.6466 C   0  0  0  0  0  0  0  0  0  0  0  0
  156.2856  138.9071  185.4721 C   0  0  0  0  0  0  0  0  0  0  0  0
  158.3328  139.8853  184.6778 O   0  0  0  0  0  0  0  0  0  0  0  0
  159.0254  140.6229  183.7067 C   0  0  0  0  0  0  0  0  0  0  0  0
  154.3042  138.0037  188.7937 C   0  0  0  0  0  0  0  0  0  0  0  0
  153.1929  137.4936  189.0648 O   0  0  0  0  0  0  0  0  0  0  0  0
  155.0358  138.6581  191.0477 C   0  0  0  0  0  0  0  0  0  0  0  0
  154.8393  138.9180  189.6591 O   0  0  0  0  0  0  0  0  0  0  0  0
  153.0424  136.7074  184.3855 C   0  0  0  0  0  0  0  0  0  0  0  0
  153.4994  136.3528  183.2481 O   0  0  0  0  0  0  0  0  0  0  0  0
  151.7640  137.1359  184.4236 O   0  0  0  0  0  0  0  0  0  0  0  0
  150.6614  136.4856  184.9877 C   0  0  0  0  0  0  0  0  0  0  0  0
  150.6254  136.8491  186.4683 C   0  0  0  0  0  0  0  0  0  0  0  0
  149.3864  137.0201  184.3703 C   0  0  0  0  0  0  0  0  0  0  0  0
  150.7170  134.9958  184.8902 C   0  0  0  0  0  0  0  0  0  0  0  0
 19 20  1  0  0  0
 20 17  1  0  0  0
 17 18  2  0  0  0
 17  1  1  0  0  0
  1  2  1  0  0  0
  2  3  1  0  0  0
  3 21  1  0  0  0
 21 22  2  0  0  0
 21 23  1  0  0  0
 23 24  1  0  0  0
 24 25  1  0  0  0
 24 26  1  0  0  0
 24 27  1  0  0  0
  3  4  2  0  0  0
  4  5  1  0  0  0
  4  6  1  0  0  0
  6  7  2  0  0  0
  7  8  1  0  0  0
  2  9  1  0  0  0
  9 10  2  0  0  0
 10 11  1  0  0  0
 11 12  2  0  0  0
 12 13  1  0  0  0
 13 15  1  0  0  0
 15 16  1  0  0  0
 13 14  2  0  0  0
  7  1  1  0  0  0
 14  9  1  0  0  0
M  END
> <minimizedAffinity>
-5.36805

> <CNNscore>
0.3826716244

> <CNNaffinity>
5.0652313232

> <CNN_VS>
1.9383202791

> <CNNaffinity_variance>
0.1093125790

$$$$
[H]c1c([H])c(C(=O)N([H])c2c([H])c([H])c(C([H])([H])[H])c(-c3c([H])c(N4C([H])([H])C([H])([H])OC([H])([H])C4([H])[H])nc(N4C([H])([H])C([H])([H])OC([H])([H])C4([H])[H])c3[H])c2[H])c([H])c(C(F)(F)F)c1[H]


 39 43  0  0  0  0  0  0  0  0999 V2000
  156.7246  139.0406  185.1885 C   0  0  0  0  0  0  0  0  0  0  0  0
  155.6638  138.5679  186.1344 C   0  0  0  0  0  0  0  0  0  0  0  0
  156.0360  138.0103  187.3213 C   0  0  0  0  0  0  0  0  0  0  0  0
  155.0814  137.5391  188.1629 C   0  0  0  0  0  0  0  0  0  0  0  0
  153.6965  137.6013  187.8555 C   0  0  0  0  0  0  0  0  0  0  0  0
  153.3463  138.1758  186.6452 C   0  0  0  0  0  0  0  0  0  0  0  0
  154.2902  138.6459  185.8064 C   0  0  0  0  0  0  0  0  0  0  0  0
  154.1032  139.3299  184.5164 C   0  0  0  0  0  0  0  0  0  0  0  0
  155.0703  140.2842  184.1329 C   0  0  0  0  0  0  0  0  0  0  0  0
  155.0948  140.8839  182.9103 C   0  0  0  0  0  0  0  0  0  0  0  0
  154.1347  140.5372  182.0371 N   0  0  0  0  0  0  0  0  0  0  0  0
  153.1704  139.6210  182.3487 C   0  0  0  0  0  0  0  0  0  0  0  0
  153.1460  139.0102  183.5942 C   0  0  0  0  0  0  0  0  0  0  0  0
  152.2434  139.3336  181.3152 N   0  0  0  0  0  0  0  0  0  0  0  0
  152.1235  140.1672  180.1475 C   0  0  0  0  0  0  0  0  0  0  0  0
  151.0031  139.6243  179.2799 C   0  0  0  0  0  0  0  0  0  0  0  0
  149.8657  139.2848  179.9308 O   0  0  0  0  0  0  0  0  0  0  0  0
  149.9543  138.6640  181.1425 C   0  0  0  0  0  0  0  0  0  0  0  0
  151.3779  138.1810  181.4036 C   0  0  0  0  0  0  0  0  0  0  0  0
  156.0690  141.8337  182.4684 N   0  0  0  0  0  0  0  0  0  0  0  0
  156.0949  143.1544  183.1241 C   0  0  0  0  0  0  0  0  0  0  0  0
  156.5638  144.1532  182.0836 C   0  0  0  0  0  0  0  0  0  0  0  0
  157.8348  143.9063  181.6255 O   0  0  0  0  0  0  0  0  0  0  0  0
  158.1925  142.5656  181.6679 C   0  0  0  0  0  0  0  0  0  0  0  0
  157.0291  141.6154  181.4375 C   0  0  0  0  0  0  0  0  0  0  0  0
  152.7980  137.0648  188.7909 N   0  0  0  0  0  0  0  0  0  0  0  0
  151.9647  135.9407  188.7952 C   0  0  0  0  0  0  0  0  0  0  0  0
  151.8449  135.1442  187.8664 O   0  0  0  0  0  0  0  0  0  0  0  0
  152.7257  137.6740  189.7081 H   0  0  0  0  0  0  0  0  0  0  0  0
  151.1952  135.7410  190.0560 C   0  0  0  0  0  0  0  0  0  0  0  0
  150.0076  135.0569  190.0516 C   0  0  0  0  0  0  0  0  0  0  0  0
  149.3222  134.7836  191.2550 C   0  0  0  0  0  0  0  0  0  0  0  0
  149.8911  135.2316  192.4479 C   0  0  0  0  0  0  0  0  0  0  0  0
  151.0866  135.9275  192.4858 C   0  0  0  0  0  0  0  0  0  0  0  0
  151.7113  136.1625  191.2483 C   0  0  0  0  0  0  0  0  0  0  0  0
  151.6684  136.3565  193.7806 C   0  0  0  0  0  0  0  0  0  0  0  0
  150.8283  136.0874  194.8544 F   0  0  0  0  0  0  0  0  0  0  0  0
  152.8459  135.6348  194.0321 F   0  0  0  0  0  0  0  0  0  0  0  0
  152.0396  137.6860  193.7128 F   0  0  0  0  0  0  0  0  0  0  0  0
  1  2  1  0  0  0
  2  3  2  0  0  0
  3  4  1  0  0  0
  4  5  2  0  0  0
  5 26  1  0  0  0
 26 27  1  0  0  0
 27 28  2  0  0  0
 27 30  1  0  0  0
 30 31  2  0  0  0
 31 32  1  0  0  0
 32 33  2  0  0  0
 33 34  1  0  0  0
 34 35  2  0  0  0
 34 36  1  0  0  0
 36 37  1  0  0  0
 36 38  1  0  0  0
 36 39  1  0  0  0
  5  6  1  0  0  0
  6  7  2  0  0  0
  7  8  1  0  0  0
  8  9  2  0  0  0
  9 10  1  0  0  0
 10 11  2  0  0  0
 11 12  1  0  0  0
 12 13  2  0  0  0
 12 14  1  0  0  0
 14 15  1  0  0  0
 15 16  1  0  0  0
 16 17  1  0  0  0
 17 18  1  0  0  0
 18 19  1  0  0  0
 10 20  1  0  0  0
 20 21  1  0  0  0
 21 22  1  0  0  0
 22 23  1  0  0  0
 23 24  1  0  0  0
 24 25  1  0  0  0
  7  2  1  0  0  0
 13  8  1  0  0  0
 19 14  1  0  0  0
 25 20  1  0  0  0
 35 30  1  0  0  0
 26 29  1  0  0  0
M  END
> <minimizedAffinity>
-9.17024

> <CNNscore>
0.3545820117

> <CNNaffinity>
6.2200689316

> <CNN_VS>
2.2055244446

> <CNNaffinity_variance>
0.1472434998

$$$$
[H]c1c([H])c(C(=O)N([H])c2c([H])c([H])c(C([H])([H])[H])c(-c3c([H])c(N4C([H])([H])C([H])([H])OC([H])([H])C4([H])[H])nc(N4C([H])([H])C([H])([H])OC([H])([H])C4([H])[H])c3[H])c2[H])c([H])c(C(F)(F)F)c1[H]


 39 43  0  0  0  0  0  0  0  0999 V2000
  151.5965  137.1226  183.9622 C   0  0  0  0  0  0  0  0  0  0  0  0
  152.6613  138.1694  183.8445 C   0  0  0  0  0  0  0  0  0  0  0  0
  152.8308  138.8101  182.6532 C   0  0  0  0  0  0  0  0  0  0  0  0
  153.8230  139.7272  182.5268 C   0  0  0  0  0  0  0  0  0  0  0  0
  154.7028  140.0499  183.5937 C   0  0  0  0  0  0  0  0  0  0  0  0
  154.5060  139.3869  184.7934 C   0  0  0  0  0  0  0  0  0  0  0  0
  153.5217  138.4760  184.9243 C   0  0  0  0  0  0  0  0  0  0  0  0
  153.1339  137.7207  186.1268 C   0  0  0  0  0  0  0  0  0  0  0  0
  154.0588  137.6616  187.1918 C   0  0  0  0  0  0  0  0  0  0  0  0
  153.7746  137.1194  188.4084 C   0  0  0  0  0  0  0  0  0  0  0  0
  152.5418  136.6151  188.5829 N   0  0  0  0  0  0  0  0  0  0  0  0
  151.6028  136.6411  187.5910 C   0  0  0  0  0  0  0  0  0  0  0  0
  151.8927  137.1938  186.3519 C   0  0  0  0  0  0  0  0  0  0  0  0
  150.3376  136.1002  187.9326 N   0  0  0  0  0  0  0  0  0  0  0  0
  149.1416  136.4478  187.2104 C   0  0  0  0  0  0  0  0  0  0  0  0
  147.9621  135.7559  187.8683 C   0  0  0  0  0  0  0  0  0  0  0  0
  147.9220  135.8174  189.2201 O   0  0  0  0  0  0  0  0  0  0  0  0
  149.0824  135.6857  189.9254 C   0  0  0  0  0  0  0  0  0  0  0  0
  150.2072  135.1721  189.0314 C   0  0  0  0  0  0  0  0  0  0  0  0
  154.6686  137.0623  189.5237 N   0  0  0  0  0  0  0  0  0  0  0  0
  155.1603  135.7386  189.9493 C   0  0  0  0  0  0  0  0  0  0  0  0
  155.3820  135.8126  191.4478 C   0  0  0  0  0  0  0  0  0  0  0  0
  156.3346  136.7322  191.8128 O   0  0  0  0  0  0  0  0  0  0  0  0
  156.4452  137.8001  190.9326 C   0  0  0  0  0  0  0  0  0  0  0  0
  155.1325  138.1845  190.2705 C   0  0  0  0  0  0  0  0  0  0  0  0
  155.7063  140.9991  183.3446 N   0  0  0  0  0  0  0  0  0  0  0  0
  155.6891  142.3535  182.9933 C   0  0  0  0  0  0  0  0  0  0  0  0
  154.6758  143.0224  182.8001 O   0  0  0  0  0  0  0  0  0  0  0  0
  156.7217  140.5755  183.4285 H   0  0  0  0  0  0  0  0  0  0  0  0
  157.0351  142.9813  182.8683 C   0  0  0  0  0  0  0  0  0  0  0  0
  157.2074  144.1320  182.1439 C   0  0  0  0  0  0  0  0  0  0  0  0
  158.4597  144.7819  182.0996 C   0  0  0  0  0  0  0  0  0  0  0  0
  159.5156  144.2164  182.8157 C   0  0  0  0  0  0  0  0  0  0  0  0
  159.3750  143.0543  183.5537 C   0  0  0  0  0  0  0  0  0  0  0  0
  158.0992  142.4635  183.5504 C   0  0  0  0  0  0  0  0  0  0  0  0
  160.5181  142.5076  184.3241 C   0  0  0  0  0  0  0  0  0  0  0  0
  160.1185  141.9103  185.5135 F   0  0  0  0  0  0  0  0  0  0  0  0
  161.1451  141.4929  183.5839 F   0  0  0  0  0  0  0  0  0  0  0  0
  161.4714  143.4900  184.5137 F   0  0  0  0  0  0  0  0  0  0  0  0
  1  2  1  0  0  0
  2  3  2  0  0  0
  3  4  1  0  0  0
  4  5  2  0  0  0
  5 26  1  0  0  0
 26 27  1  0  0  0
 27 28  2  0  0  0
 27 30  1  0  0  0
 30 31  2  0  0  0
 31 32  1  0  0  0
 32 33  2  0  0  0
 33 34  1  0  0  0
 34 35  2  0  0  0
 34 36  1  0  0  0
 36 37  1  0  0  0
 36 38  1  0  0  0
 36 39  1  0  0  0
  5  6  1  0  0  0
  6  7  2  0  0  0
  7  8  1  0  0  0
  8  9  2  0  0  0
  9 10  1  0  0  0
 10 11  2  0  0  0
 11 12  1  0  0  0
 12 13  2  0  0  0
 12 14  1  0  0  0
 14 15  1  0  0  0
 15 16  1  0  0  0
 16 17  1  0  0  0
 17 18  1  0  0  0
 18 19  1  0  0  0
 10 20  1  0  0  0
 20 21  1  0  0  0
 21 22  1  0  0  0
 22 23  1  0  0  0
 23 24  1  0  0  0
 24 25  1  0  0  0
  7  2  1  0  0  0
 13  8  1  0  0  0
 19 14  1  0  0  0
 25 20  1  0  0  0
 35 30  1  0  0  0
 26 29  1  0  0  0
M  END
> <minimizedAffinity>
-9.25032

> <CNNscore>
0.3511765897

> <CNNaffinity>
6.5100250244

> <CNN_VS>
2.2861683369

> <CNNaffinity_variance>
0.0242839437

$$$$
[H]c1c([H])c(C(=O)N([H])c2c([H])c([H])c(C([H])([H])[H])c(-c3c([H])c(N4C([H])([H])C([H])([H])OC([H])([H])C4([H])[H])nc(N4C([H])([H])C([H])([H])OC([H])([H])C4([H])[H])c3[H])c2[H])c([H])c(C(F)(F)F)c1[H]


 39 43  0  0  0  0  0  0  0  0999 V2000
  157.2569  139.1948  185.0134 C   0  0  0  0  0  0  0  0  0  0  0  0
  156.1413  138.7604  185.9134 C   0  0  0  0  0  0  0  0  0  0  0  0
  156.4415  138.2586  187.1448 C   0  0  0  0  0  0  0  0  0  0  0  0
  155.4382  137.8213  187.9472 C   0  0  0  0  0  0  0  0  0  0  0  0
  154.0745  137.8631  187.5536 C   0  0  0  0  0  0  0  0  0  0  0  0
  153.7977  138.3808  186.2994 C   0  0  0  0  0  0  0  0  0  0  0  0
  154.7902  138.8170  185.4992 C   0  0  0  0  0  0  0  0  0  0  0  0
  154.6809  139.4413  184.1706 C   0  0  0  0  0  0  0  0  0  0  0  0
  153.5583  139.1119  183.3806 C   0  0  0  0  0  0  0  0  0  0  0  0
  153.2630  139.7207  182.1985 C   0  0  0  0  0  0  0  0  0  0  0  0
  154.1009  140.6822  181.7770 N   0  0  0  0  0  0  0  0  0  0  0  0
  155.2046  141.0456  182.4955 C   0  0  0  0  0  0  0  0  0  0  0  0
  155.5048  140.4254  183.6997 C   0  0  0  0  0  0  0  0  0  0  0  0
  155.9768  142.0968  181.9400 N   0  0  0  0  0  0  0  0  0  0  0  0
  157.1736  141.8426  181.1812 C   0  0  0  0  0  0  0  0  0  0  0  0
  157.7911  143.1734  180.7935 C   0  0  0  0  0  0  0  0  0  0  0  0
  157.8539  144.1024  181.7762 O   0  0  0  0  0  0  0  0  0  0  0  0
  156.8036  144.2295  182.6376 C   0  0  0  0  0  0  0  0  0  0  0  0
  155.5823  143.4742  182.1218 C   0  0  0  0  0  0  0  0  0  0  0  0
  152.1242  139.4400  181.3793 N   0  0  0  0  0  0  0  0  0  0  0  0
  152.2433  139.6686  179.9272 C   0  0  0  0  0  0  0  0  0  0  0  0
  150.8661  140.0631  179.4295 C   0  0  0  0  0  0  0  0  0  0  0  0
  149.9212  139.0822  179.6065 O   0  0  0  0  0  0  0  0  0  0  0  0
  150.1744  138.2529  180.6907 C   0  0  0  0  0  0  0  0  0  0  0  0
  150.8684  138.9536  181.8468 C   0  0  0  0  0  0  0  0  0  0  0  0
  153.1217  137.3652  188.4559 N   0  0  0  0  0  0  0  0  0  0  0  0
  152.1680  136.3434  188.3875 C   0  0  0  0  0  0  0  0  0  0  0  0
  151.9601  135.6331  187.4059 O   0  0  0  0  0  0  0  0  0  0  0  0
  153.1178  137.9121  189.4142 H   0  0  0  0  0  0  0  0  0  0  0  0
  151.3809  136.1419  189.6371 C   0  0  0  0  0  0  0  0  0  0  0  0
  150.1588  135.5224  189.6037 C   0  0  0  0  0  0  0  0  0  0  0  0
  149.4522  135.2449  190.7937 C   0  0  0  0  0  0  0  0  0  0  0  0
  150.0363  135.6210  192.0040 C   0  0  0  0  0  0  0  0  0  0  0  0
  151.2667  136.2506  192.0714 C   0  0  0  0  0  0  0  0  0  0  0  0
  151.9110  136.4943  190.8456 C   0  0  0  0  0  0  0  0  0  0  0  0
  151.8621  136.6036  193.3829 C   0  0  0  0  0  0  0  0  0  0  0  0
  151.1644  136.0480  194.4486 F   0  0  0  0  0  0  0  0  0  0  0  0
  153.1618  136.0801  193.4684 F   0  0  0  0  0  0  0  0  0  0  0  0
  151.9928  137.9754  193.4870 F   0  0  0  0  0  0  0  0  0  0  0  0
  1  2  1  0  0  0
  2  3  2  0  0  0
  3  4  1  0  0  0
  4  5  2  0  0  0
  5 26  1  0  0  0
 26 27  1  0  0  0
 27 28  2  0  0  0
 27 30  1  0  0  0
 30 31  2  0  0  0
 31 32  1  0  0  0
 32 33  2  0  0  0
 33 34  1  0  0  0
 34 35  2  0  0  0
 34 36  1  0  0  0
 36 37  1  0  0  0
 36 38  1  0  0  0
 36 39  1  0  0  0
  5  6  1  0  0  0
  6  7  2  0  0  0
  7  8  1  0  0  0
  8  9  2  0  0  0
  9 10  1  0  0  0
 10 11  2  0  0  0
 11 12  1  0  0  0
 12 13  2  0  0  0
 12 14  1  0  0  0
 14 15  1  0  0  0
 15 16  1  0  0  0
 16 17  1  0  0  0
 17 18  1  0  0  0
 18 19  1  0  0  0
 10 20  1  0  0  0
 20 21  1  0  0  0
 21 22  1  0  0  0
 22 23  1  0  0  0
 23 24  1  0  0  0
 24 25  1  0  0  0
  7  2  1  0  0  0
 13  8  1  0  0  0
 19 14  1  0  0  0
 25 20  1  0  0  0
 35 30  1  0  0  0
 26 29  1  0  0  0
M  END
> <minimizedAffinity>
-9.42737

> <CNNscore>
0.2985094488

> <CNNaffinity>
6.1755461693

> <CNN_VS>
1.8434588909

> <CNNaffinity_variance>
0.1867366135

$$$$
[H]c1c([H])c(C(=O)N([H])c2c([H])c([H])c(C([H])([H])[H])c(-c3c([H])c(N4C([H])([H])C([H])([H])OC([H])([H])C4([H])[H])nc(N4C([H])([H])C([H])([H])OC([H])([H])C4([H])[H])c3[H])c2[H])c([H])c(C(F)(F)F)c1[H]


 39 43  0  0  0  0  0  0  0  0999 V2000
  155.2289  140.5479  182.8338 C   0  0  0  0  0  0  0  0  0  0  0  0
  155.3366  139.7245  184.0804 C   0  0  0  0  0  0  0  0  0  0  0  0
  154.3046  138.9018  184.4214 C   0  0  0  0  0  0  0  0  0  0  0  0
  154.3766  138.1872  185.5728 C   0  0  0  0  0  0  0  0  0  0  0  0
  155.4926  138.2622  186.4477 C   0  0  0  0  0  0  0  0  0  0  0  0
  156.5281  139.1028  186.0752 C   0  0  0  0  0  0  0  0  0  0  0  0
  156.4618  139.8138  184.9326 C   0  0  0  0  0  0  0  0  0  0  0  0
  157.4798  140.7068  184.3553 C   0  0  0  0  0  0  0  0  0  0  0  0
  158.5177  141.1533  185.2017 C   0  0  0  0  0  0  0  0  0  0  0  0
  159.5943  141.8640  184.7648 C   0  0  0  0  0  0  0  0  0  0  0  0
  159.6507  142.1487  183.4532 N   0  0  0  0  0  0  0  0  0  0  0  0
  158.6774  141.7458  182.5833 C   0  0  0  0  0  0  0  0  0  0  0  0
  157.5810  141.0217  183.0288 C   0  0  0  0  0  0  0  0  0  0  0  0
  158.8895  142.0930  181.2252 N   0  0  0  0  0  0  0  0  0  0  0  0
  159.4593  143.3589  180.8437 C   0  0  0  0  0  0  0  0  0  0  0  0
  159.4859  143.4394  179.3286 C   0  0  0  0  0  0  0  0  0  0  0  0
  158.3562  143.0415  178.6976 O   0  0  0  0  0  0  0  0  0  0  0  0
  157.6842  141.9499  179.1648 C   0  0  0  0  0  0  0  0  0  0  0  0
  158.5344  141.1757  180.1678 C   0  0  0  0  0  0  0  0  0  0  0  0
  160.6816  142.3127  185.5790 N   0  0  0  0  0  0  0  0  0  0  0  0
  160.3853  142.7226  186.9643 C   0  0  0  0  0  0  0  0  0  0  0  0
  161.3832  143.8061  187.3255 C   0  0  0  0  0  0  0  0  0  0  0  0
  162.6871  143.3751  187.3034 O   0  0  0  0  0  0  0  0  0  0  0  0
  162.9173  142.3399  186.4075 C   0  0  0  0  0  0  0  0  0  0  0  0
  162.0432  142.4008  185.1659 C   0  0  0  0  0  0  0  0  0  0  0  0
  155.4513  137.4942  187.6217 N   0  0  0  0  0  0  0  0  0  0  0  0
  156.1439  136.3595  188.0587 C   0  0  0  0  0  0  0  0  0  0  0  0
  156.9946  135.7550  187.4088 O   0  0  0  0  0  0  0  0  0  0  0  0
  154.6979  137.8583  188.3411 H   0  0  0  0  0  0  0  0  0  0  0  0
  155.7860  135.9019  189.4313 C   0  0  0  0  0  0  0  0  0  0  0  0
  156.6519  135.1295  190.1608 C   0  0  0  0  0  0  0  0  0  0  0  0
  156.3591  134.7721  191.4946 C   0  0  0  0  0  0  0  0  0  0  0  0
  155.1615  135.2291  192.0464 C   0  0  0  0  0  0  0  0  0  0  0  0
  154.2650  136.0074  191.3355 C   0  0  0  0  0  0  0  0  0  0  0  0
  154.6242  136.3229  190.0132 C   0  0  0  0  0  0  0  0  0  0  0  0
  153.0191  136.4960  191.9742 C   0  0  0  0  0  0  0  0  0  0  0  0
  152.6348  135.7118  193.0553 F   0  0  0  0  0  0  0  0  0  0  0  0
  153.2283  137.7822  192.4961 F   0  0  0  0  0  0  0  0  0  0  0  0
  152.0221  136.6235  191.0257 F   0  0  0  0  0  0  0  0  0  0  0  0
  1  2  1  0  0  0
  2  3  2  0  0  0
  3  4  1  0  0  0
  4  5  2  0  0  0
  5 26  1  0  0  0
 26 27  1  0  0  0
 27 28  2  0  0  0
 27 30  1  0  0  0
 30 31  2  0  0  0
 31 32  1  0  0  0
 32 33  2  0  0  0
 33 34  1  0  0  0
 34 35  2  0  0  0
 34 36  1  0  0  0
 36 37  1  0  0  0
 36 38  1  0  0  0
 36 39  1  0  0  0
  5  6  1  0  0  0
  6  7  2  0  0  0
  7  8  1  0  0  0
  8  9  2  0  0  0
  9 10  1  0  0  0
 10 11  2  0  0  0
 11 12  1  0  0  0
 12 13  2  0  0  0
 12 14  1  0  0  0
 14 15  1  0  0  0
 15 16  1  0  0  0
 16 17  1  0  0  0
 17 18  1  0  0  0
 18 19  1  0  0  0
 10 20  1  0  0  0
 20 21  1  0  0  0
 21 22  1  0  0  0
 22 23  1  0  0  0
 23 24  1  0  0  0
 24 25  1  0  0  0
  7  2  1  0  0  0
 13  8  1  0  0  0
 19 14  1  0  0  0
 25 20  1  0  0  0
 35 30  1  0  0  0
 26 29  1  0  0  0
M  END
> <minimizedAffinity>
-9.31583

> <CNNscore>
0.2748497128

> <CNNaffinity>
6.6552934647

> <CNN_VS>
1.8292055130

> <CNNaffinity_variance>
0.0307622440

$$$$
[H]c1c([H])c(C(=O)N([H])c2c([H])c([H])c(C([H])([H])[H])c(-c3c([H])c(N4C([H])([H])C([H])([H])OC([H])([H])C4([H])[H])nc(N4C([H])([H])C([H])([H])OC([H])([H])C4([H])[H])c3[H])c2[H])c([H])c(C(F)(F)F)c1[H]


 39 43  0  0  0  0  0  0  0  0999 V2000
  156.1326  137.9699  188.4202 C   0  0  0  0  0  0  0  0  0  0  0  0
  155.2245  137.7869  187.2433 C   0  0  0  0  0  0  0  0  0  0  0  0
  155.4564  138.5079  186.1099 C   0  0  0  0  0  0  0  0  0  0  0  0
  154.6110  138.3804  185.0560 C   0  0  0  0  0  0  0  0  0  0  0  0
  153.4819  137.5198  185.0848 C   0  0  0  0  0  0  0  0  0  0  0  0
  153.2720  136.7966  186.2469 C   0  0  0  0  0  0  0  0  0  0  0  0
  154.1089  136.9191  187.2958 C   0  0  0  0  0  0  0  0  0  0  0  0
  154.0739  136.1969  188.5780 C   0  0  0  0  0  0  0  0  0  0  0  0
  155.0908  135.2496  188.8262 C   0  0  0  0  0  0  0  0  0  0  0  0
  155.2573  134.6172  190.0209 C   0  0  0  0  0  0  0  0  0  0  0  0
  154.3934  134.9229  191.0030 N   0  0  0  0  0  0  0  0  0  0  0  0
  153.3876  135.8302  190.8249 C   0  0  0  0  0  0  0  0  0  0  0  0
  153.2185  136.4743  189.6078 C   0  0  0  0  0  0  0  0  0  0  0  0
  152.5749  136.0728  191.9610 N   0  0  0  0  0  0  0  0  0  0  0  0
  152.9757  135.6685  193.2833 C   0  0  0  0  0  0  0  0  0  0  0  0
  151.8596  136.0122  194.2523 C   0  0  0  0  0  0  0  0  0  0  0  0
  150.6083  135.6911  193.8476 O   0  0  0  0  0  0  0  0  0  0  0  0
  150.2629  135.8837  192.5419 C   0  0  0  0  0  0  0  0  0  0  0  0
  151.3018  136.7410  191.8250 C   0  0  0  0  0  0  0  0  0  0  0  0
  156.2877  133.6730  190.3265 N   0  0  0  0  0  0  0  0  0  0  0  0
  155.9016  132.2607  190.5033 C   0  0  0  0  0  0  0  0  0  0  0  0
  156.8663  131.6636  191.5098 C   0  0  0  0  0  0  0  0  0  0  0  0
  158.1723  131.6737  191.0848 O   0  0  0  0  0  0  0  0  0  0  0  0
  158.4665  132.7114  190.2108 C   0  0  0  0  0  0  0  0  0  0  0  0
  157.6718  133.9789  190.4778 C   0  0  0  0  0  0  0  0  0  0  0  0
  152.6640  137.4818  183.9449 N   0  0  0  0  0  0  0  0  0  0  0  0
  152.0832  136.4445  183.2067 C   0  0  0  0  0  0  0  0  0  0  0  0
  152.2182  135.2455  183.4426 O   0  0  0  0  0  0  0  0  0  0  0  0
  152.4526  138.4864  183.5402 H   0  0  0  0  0  0  0  0  0  0  0  0
  151.2377  136.8915  182.0635 C   0  0  0  0  0  0  0  0  0  0  0  0
  150.0862  136.2225  181.7395 C   0  0  0  0  0  0  0  0  0  0  0  0
  149.2337  136.6960  180.7189 C   0  0  0  0  0  0  0  0  0  0  0  0
  149.5999  137.8652  180.0508 C   0  0  0  0  0  0  0  0  0  0  0  0
  150.7571  138.5618  180.3519 C   0  0  0  0  0  0  0  0  0  0  0  0
  151.5562  138.0300  181.3793 C   0  0  0  0  0  0  0  0  0  0  0  0
  151.0891  139.8172  179.6358 C   0  0  0  0  0  0  0  0  0  0  0  0
  152.4515  139.9444  179.3927 F   0  0  0  0  0  0  0  0  0  0  0  0
  150.4784  139.8163  178.3719 F   0  0  0  0  0  0  0  0  0  0  0  0
  150.5645  140.9001  180.3154 F   0  0  0  0  0  0  0  0  0  0  0  0
  1  2  1  0  0  0
  2  3  2  0  0  0
  3  4  1  0  0  0
  4  5  2  0  0  0
  5 26  1  0  0  0
 26 27  1  0  0  0
 27 28  2  0  0  0
 27 30  1  0  0  0
 30 31  2  0  0  0
 31 32  1  0  0  0
 32 33  2  0  0  0
 33 34  1  0  0  0
 34 35  2  0  0  0
 34 36  1  0  0  0
 36 37  1  0  0  0
 36 38  1  0  0  0
 36 39  1  0  0  0
  5  6  1  0  0  0
  6  7  2  0  0  0
  7  8  1  0  0  0
  8  9  2  0  0  0
  9 10  1  0  0  0
 10 11  2  0  0  0
 11 12  1  0  0  0
 12 13  2  0  0  0
 12 14  1  0  0  0
 14 15  1  0  0  0
 15 16  1  0  0  0
 16 17  1  0  0  0
 17 18  1  0  0  0
 18 19  1  0  0  0
 10 20  1  0  0  0
 20 21  1  0  0  0
 21 22  1  0  0  0
 22 23  1  0  0  0
 23 24  1  0  0  0
 24 25  1  0  0  0
  7  2  1  0  0  0
 13  8  1  0  0  0
 19 14  1  0  0  0
 25 20  1  0  0  0
 35 30  1  0  0  0
 26 29  1  0  0  0
M  END
> <minimizedAffinity>
-7.61509

> <CNNscore>
0.2602421343

> <CNNaffinity>
5.7067022324

> <CNN_VS>
1.4851243496

> <CNNaffinity_variance>
0.0562662110

$$$$
[H]c1c([H])c(C(=O)N([H])c2c([H])c([H])c(C([H])([H])[H])c(-c3c([H])c(N4C([H])([H])C([H])([H])OC([H])([H])C4([H])[H])nc(N4C([H])([H])C([H])([H])OC([H])([H])C4([H])[H])c3[H])c2[H])c([H])c(C(F)(F)F)c1[H]


 39 43  0  0  0  0  0  0  0  0999 V2000
  153.0496  135.7673  186.3793 C   0  0  0  0  0  0  0  0  0  0  0  0
  153.8932  136.9202  185.9291 C   0  0  0  0  0  0  0  0  0  0  0  0
  153.6384  137.4940  184.7191 C   0  0  0  0  0  0  0  0  0  0  0  0
  154.4275  138.5093  184.2854 C   0  0  0  0  0  0  0  0  0  0  0  0
  155.5200  139.0035  185.0460 C   0  0  0  0  0  0  0  0  0  0  0  0
  155.7540  138.4051  186.2726 C   0  0  0  0  0  0  0  0  0  0  0  0
  154.9730  137.3971  186.7081 C   0  0  0  0  0  0  0  0  0  0  0  0
  155.0382  136.6851  187.9949 C   0  0  0  0  0  0  0  0  0  0  0  0
  153.9873  136.8931  188.9144 C   0  0  0  0  0  0  0  0  0  0  0  0
  153.8516  136.1941  190.0754 C   0  0  0  0  0  0  0  0  0  0  0  0
  154.7816  135.2626  190.3435 N   0  0  0  0  0  0  0  0  0  0  0  0
  155.8230  135.0152  189.4946 C   0  0  0  0  0  0  0  0  0  0  0  0
  155.9607  135.7273  188.3118 C   0  0  0  0  0  0  0  0  0  0  0  0
  156.7067  133.9819  189.8961 N   0  0  0  0  0  0  0  0  0  0  0  0
  157.2899  133.9483  191.2120 C   0  0  0  0  0  0  0  0  0  0  0  0
  158.2324  132.7616  191.2921 C   0  0  0  0  0  0  0  0  0  0  0  0
  159.0581  132.5925  190.2328 O   0  0  0  0  0  0  0  0  0  0  0  0
  158.5775  132.8114  188.9748 C   0  0  0  0  0  0  0  0  0  0  0  0
  157.0554  132.9172  188.9847 C   0  0  0  0  0  0  0  0  0  0  0  0
  152.7905  136.3506  191.0221 N   0  0  0  0  0  0  0  0  0  0  0  0
  153.0435  137.1819  192.2137 C   0  0  0  0  0  0  0  0  0  0  0  0
  152.2037  136.6065  193.3379 C   0  0  0  0  0  0  0  0  0  0  0  0
  150.8537  136.6578  193.0905 O   0  0  0  0  0  0  0  0  0  0  0  0
  150.5314  136.6045  191.7412 C   0  0  0  0  0  0  0  0  0  0  0  0
  151.4942  135.7672  190.9158 C   0  0  0  0  0  0  0  0  0  0  0  0
  156.2813  140.0437  184.4906 N   0  0  0  0  0  0  0  0  0  0  0  0
  155.9571  141.2778  183.9162 C   0  0  0  0  0  0  0  0  0  0  0  0
  154.8164  141.7094  183.7618 O   0  0  0  0  0  0  0  0  0  0  0  0
  157.3634  139.8274  184.4956 H   0  0  0  0  0  0  0  0  0  0  0  0
  157.1295  142.0918  183.4867 C   0  0  0  0  0  0  0  0  0  0  0  0
  156.9921  143.0744  182.5412 C   0  0  0  0  0  0  0  0  0  0  0  0
  158.0770  143.9103  182.1992 C   0  0  0  0  0  0  0  0  0  0  0  0
  159.2926  143.7046  182.8532 C   0  0  0  0  0  0  0  0  0  0  0  0
  159.4645  142.7194  183.8096 C   0  0  0  0  0  0  0  0  0  0  0  0
  158.3399  141.9261  184.0975 C   0  0  0  0  0  0  0  0  0  0  0  0
  160.7667  142.5587  184.5006 C   0  0  0  0  0  0  0  0  0  0  0  0
  161.4311  143.7678  184.6676 F   0  0  0  0  0  0  0  0  0  0  0  0
  160.5562  142.0613  185.7963 F   0  0  0  0  0  0  0  0  0  0  0  0
  161.5338  141.6137  183.8462 F   0  0  0  0  0  0  0  0  0  0  0  0
  1  2  1  0  0  0
  2  3  2  0  0  0
  3  4  1  0  0  0
  4  5  2  0  0  0
  5 26  1  0  0  0
 26 27  1  0  0  0
 27 28  2  0  0  0
 27 30  1  0  0  0
 30 31  2  0  0  0
 31 32  1  0  0  0
 32 33  2  0  0  0
 33 34  1  0  0  0
 34 35  2  0  0  0
 34 36  1  0  0  0
 36 37  1  0  0  0
 36 38  1  0  0  0
 36 39  1  0  0  0
  5  6  1  0  0  0
  6  7  2  0  0  0
  7  8  1  0  0  0
  8  9  2  0  0  0
  9 10  1  0  0  0
 10 11  2  0  0  0
 11 12  1  0  0  0
 12 13  2  0  0  0
 12 14  1  0  0  0
 14 15  1  0  0  0
 15 16  1  0  0  0
 16 17  1  0  0  0
 17 18  1  0  0  0
 18 19  1  0  0  0
 10 20  1  0  0  0
 20 21  1  0  0  0
 21 22  1  0  0  0
 22 23  1  0  0  0
 23 24  1  0  0  0
 24 25  1  0  0  0
  7  2  1  0  0  0
 13  8  1  0  0  0
 19 14  1  0  0  0
 25 20  1  0  0  0
 35 30  1  0  0  0
 26 29  1  0  0  0
M  END
> <minimizedAffinity>
-9.02090

> <CNNscore>
0.2486993223

> <CNNaffinity>
6.4097533226

> <CNN_VS>
1.5941013098

> <CNNaffinity_variance>
0.0312904306

$$$$
[H]c1c([H])c(C(=O)N([H])c2c([H])c([H])c(C([H])([H])[H])c(-c3c([H])c(N4C([H])([H])C([H])([H])OC([H])([H])C4([H])[H])nc(N4C([H])([H])C([H])([H])OC([H])([H])C4([H])[H])c3[H])c2[H])c([H])c(C(F)(F)F)c1[H]


 39 43  0  0  0  0  0  0  0  0999 V2000
  152.1109  136.5656  187.4675 C   0  0  0  0  0  0  0  0  0  0  0  0
  153.1989  137.3379  186.7869 C   0  0  0  0  0  0  0  0  0  0  0  0
  152.8982  138.0630  185.6724 C   0  0  0  0  0  0  0  0  0  0  0  0
  153.8881  138.7285  185.0251 C   0  0  0  0  0  0  0  0  0  0  0  0
  155.2384  138.6999  185.4632 C   0  0  0  0  0  0  0  0  0  0  0  0
  155.5152  137.9588  186.5998 C   0  0  0  0  0  0  0  0  0  0  0  0
  154.5358  137.2969  187.2465 C   0  0  0  0  0  0  0  0  0  0  0  0
  154.6334  136.5114  188.4877 C   0  0  0  0  0  0  0  0  0  0  0  0
  153.6452  136.7175  189.4746 C   0  0  0  0  0  0  0  0  0  0  0  0
  153.5363  135.9617  190.6024 C   0  0  0  0  0  0  0  0  0  0  0  0
  154.4307  134.9731  190.7677 N   0  0  0  0  0  0  0  0  0  0  0  0
  155.4112  134.7242  189.8495 C   0  0  0  0  0  0  0  0  0  0  0  0
  155.5216  135.4942  188.7007 C   0  0  0  0  0  0  0  0  0  0  0  0
  156.2615  133.6288  190.1449 N   0  0  0  0  0  0  0  0  0  0  0  0
  155.9625  132.6970  191.2009 C   0  0  0  0  0  0  0  0  0  0  0  0
  157.0984  131.6954  191.2968 C   0  0  0  0  0  0  0  0  0  0  0  0
  158.3476  132.2149  191.2502 O   0  0  0  0  0  0  0  0  0  0  0  0
  158.6084  133.2405  190.3890 C   0  0  0  0  0  0  0  0  0  0  0  0
  157.4710  133.4115  189.3864 C   0  0  0  0  0  0  0  0  0  0  0  0
  152.5368  136.1154  191.6143 N   0  0  0  0  0  0  0  0  0  0  0  0
  151.3649  135.2211  191.5707 C   0  0  0  0  0  0  0  0  0  0  0  0
  150.1952  136.0005  192.1402 C   0  0  0  0  0  0  0  0  0  0  0  0
  150.3724  136.3682  193.4516 O   0  0  0  0  0  0  0  0  0  0  0  0
  151.7028  136.5463  193.8061 C   0  0  0  0  0  0  0  0  0  0  0  0
  152.5720  137.0681  192.6741 C   0  0  0  0  0  0  0  0  0  0  0  0
  156.1832  139.4089  184.7051 N   0  0  0  0  0  0  0  0  0  0  0  0
  156.1375  140.0569  183.4657 C   0  0  0  0  0  0  0  0  0  0  0  0
  155.1543  140.1090  182.7295 O   0  0  0  0  0  0  0  0  0  0  0  0
  157.1752  139.4434  185.1873 H   0  0  0  0  0  0  0  0  0  0  0  0
  157.4078  140.7264  183.0660 C   0  0  0  0  0  0  0  0  0  0  0  0
  158.5630  140.5177  183.7734 C   0  0  0  0  0  0  0  0  0  0  0  0
  159.7877  141.0736  183.3449 C   0  0  0  0  0  0  0  0  0  0  0  0
  159.7852  141.8418  182.1799 C   0  0  0  0  0  0  0  0  0  0  0  0
  158.6357  142.0739  181.4452 C   0  0  0  0  0  0  0  0  0  0  0  0
  157.4543  141.4883  181.9333 C   0  0  0  0  0  0  0  0  0  0  0  0
  158.6876  142.8712  180.1959 C   0  0  0  0  0  0  0  0  0  0  0  0
  159.9509  143.3978  179.9552 F   0  0  0  0  0  0  0  0  0  0  0  0
  158.4068  142.0454  179.0960 F   0  0  0  0  0  0  0  0  0  0  0  0
  157.7002  143.8379  180.2127 F   0  0  0  0  0  0  0  0  0  0  0  0
  1  2  1  0  0  0
  2  3  2  0  0  0
  3  4  1  0  0  0
  4  5  2  0  0  0
  5 26  1  0  0  0
 26 27  1  0  0  0
 27 28  2  0  0  0
 27 30  1  0  0  0
 30 31  2  0  0  0
 31 32  1  0  0  0
 32 33  2  0  0  0
 33 34  1  0  0  0
 34 35  2  0  0  0
 34 36  1  0  0  0
 36 37  1  0  0  0
 36 38  1  0  0  0
 36 39  1  0  0  0
  5  6  1  0  0  0
  6  7  2  0  0  0
  7  8  1  0  0  0
  8  9  2  0  0  0
  9 10  1  0  0  0
 10 11  2  0  0  0
 11 12  1  0  0  0
 12 13  2  0  0  0
 12 14  1  0  0  0
 14 15  1  0  0  0
 15 16  1  0  0  0
 16 17  1  0  0  0
 17 18  1  0  0  0
 18 19  1  0  0  0
 10 20  1  0  0  0
 20 21  1  0  0  0
 21 22  1  0  0  0
 22 23  1  0  0  0
 23 24  1  0  0  0
 24 25  1  0  0  0
  7  2  1  0  0  0
 13  8  1  0  0  0
 19 14  1  0  0  0
 25 20  1  0  0  0
 35 30  1  0  0  0
 26 29  1  0  0  0
M  END
> <minimizedAffinity>
-8.92740

> <CNNscore>
0.2305849493

> <CNNaffinity>
6.0227651596

> <CNN_VS>
1.3887590170

> <CNNaffinity_variance>
0.0405631810

$$$$
[H]c1c([H])c(C(=O)N([H])c2c([H])c([H])c(C([H])([H])[H])c(-c3c([H])c(N4C([H])([H])C([H])([H])OC([H])([H])C4([H])[H])nc(N4C([H])([H])C([H])([H])OC([H])([H])C4([H])[H])c3[H])c2[H])c([H])c(C(F)(F)F)c1[H]


 39 43  0  0  0  0  0  0  0  0999 V2000
  153.1100  136.5481  185.5166 C   0  0  0  0  0  0  0  0  0  0  0  0
  154.1005  137.6396  185.2500 C   0  0  0  0  0  0  0  0  0  0  0  0
  154.0138  138.3421  184.0850 C   0  0  0  0  0  0  0  0  0  0  0  0
  154.9352  139.3017  183.8170 C   0  0  0  0  0  0  0  0  0  0  0  0
  155.9982  139.6071  184.7075 C   0  0  0  0  0  0  0  0  0  0  0  0
  156.0604  138.8810  185.8849 C   0  0  0  0  0  0  0  0  0  0  0  0
  155.1476  137.9277  186.1560 C   0  0  0  0  0  0  0  0  0  0  0  0
  155.0258  137.1018  187.3685 C   0  0  0  0  0  0  0  0  0  0  0  0
  156.0657  136.1888  187.6483 C   0  0  0  0  0  0  0  0  0  0  0  0
  156.1478  135.4695  188.8019 C   0  0  0  0  0  0  0  0  0  0  0  0
  155.1736  135.6505  189.7089 N   0  0  0  0  0  0  0  0  0  0  0  0
  154.1401  136.5184  189.4966 C   0  0  0  0  0  0  0  0  0  0  0  0
  154.0571  137.2511  188.3214 C   0  0  0  0  0  0  0  0  0  0  0  0
  153.2051  136.6265  190.5568 N   0  0  0  0  0  0  0  0  0  0  0  0
  153.5807  137.1241  191.8545 C   0  0  0  0  0  0  0  0  0  0  0  0
  152.3726  137.0462  192.7696 C   0  0  0  0  0  0  0  0  0  0  0  0
  151.6677  135.8916  192.7176 O   0  0  0  0  0  0  0  0  0  0  0  0
  151.4645  135.2917  191.5092 C   0  0  0  0  0  0  0  0  0  0  0  0
  151.8284  136.2342  190.3658 C   0  0  0  0  0  0  0  0  0  0  0  0
  157.1951  134.5556  189.1403 N   0  0  0  0  0  0  0  0  0  0  0  0
  156.9029  133.5056  190.1339 C   0  0  0  0  0  0  0  0  0  0  0  0
  158.1991  133.2220  190.8683 C   0  0  0  0  0  0  0  0  0  0  0  0
  159.1929  132.7389  190.0526 O   0  0  0  0  0  0  0  0  0  0  0  0
  159.0953  133.1727  188.7375 C   0  0  0  0  0  0  0  0  0  0  0  0
  158.5128  134.5692  188.5966 C   0  0  0  0  0  0  0  0  0  0  0  0
  156.9055  140.6050  184.3190 N   0  0  0  0  0  0  0  0  0  0  0  0
  157.2118  141.2083  183.0941 C   0  0  0  0  0  0  0  0  0  0  0  0
  156.6943  140.9246  182.0157 O   0  0  0  0  0  0  0  0  0  0  0  0
  157.5156  140.9753  185.1606 H   0  0  0  0  0  0  0  0  0  0  0  0
  158.2468  142.2783  183.1687 C   0  0  0  0  0  0  0  0  0  0  0  0
  158.1355  143.4154  182.4118 C   0  0  0  0  0  0  0  0  0  0  0  0
  159.0616  144.4721  182.5476 C   0  0  0  0  0  0  0  0  0  0  0  0
  160.0930  144.3225  183.4756 C   0  0  0  0  0  0  0  0  0  0  0  0
  160.2349  143.1861  184.2523 C   0  0  0  0  0  0  0  0  0  0  0  0
  159.2754  142.1761  184.0617 C   0  0  0  0  0  0  0  0  0  0  0  0
  161.3293  143.0852  185.2479 C   0  0  0  0  0  0  0  0  0  0  0  0
  161.5820  144.2955  185.8823 F   0  0  0  0  0  0  0  0  0  0  0  0
  160.9600  142.1941  186.2677 F   0  0  0  0  0  0  0  0  0  0  0  0
  162.4562  142.5466  184.6564 F   0  0  0  0  0  0  0  0  0  0  0  0
  1  2  1  0  0  0
  2  3  2  0  0  0
  3  4  1  0  0  0
  4  5  2  0  0  0
  5 26  1  0  0  0
 26 27  1  0  0  0
 27 28  2  0  0  0
 27 30  1  0  0  0
 30 31  2  0  0  0
 31 32  1  0  0  0
 32 33  2  0  0  0
 33 34  1  0  0  0
 34 35  2  0  0  0
 34 36  1  0  0  0
 36 37  1  0  0  0
 36 38  1  0  0  0
 36 39  1  0  0  0
  5  6  1  0  0  0
  6  7  2  0  0  0
  7  8  1  0  0  0
  8  9  2  0  0  0
  9 10  1  0  0  0
 10 11  2  0  0  0
 11 12  1  0  0  0
 12 13  2  0  0  0
 12 14  1  0  0  0
 14 15  1  0  0  0
 15 16  1  0  0  0
 16 17  1  0  0  0
 17 18  1  0  0  0
 18 19  1  0  0  0
 10 20  1  0  0  0
 20 21  1  0  0  0
 21 22  1  0  0  0
 22 23  1  0  0  0
 23 24  1  0  0  0
 24 25  1  0  0  0
  7  2  1  0  0  0
 13  8  1  0  0  0
 19 14  1  0  0  0
 25 20  1  0  0  0
 35 30  1  0  0  0
 26 29  1  0  0  0
M  END
> <minimizedAffinity>
-9.50901

> <CNNscore>
0.2106057554

> <CNNaffinity>
6.4710617065

> <CNN_VS>
1.3628427982

> <CNNaffinity_variance>
0.0623697937

$$$$
[H]c1c([H])c(C(=O)N([H])c2c([H])c([H])c(C([H])([H])[H])c(-c3c([H])c(N4C([H])([H])C([H])([H])OC([H])([H])C4([H])[H])nc(N4C([H])([H])C([H])([H])OC([H])([H])C4([H])[H])c3[H])c2[H])c([H])c(C(F)(F)F)c1[H]


 39 43  0  0  0  0  0  0  0  0999 V2000
  153.9477  141.6740  182.5020 C   0  0  0  0  0  0  0  0  0  0  0  0
  153.1643  140.4585  182.1118 C   0  0  0  0  0  0  0  0  0  0  0  0
  152.2340  140.5606  181.1207 C   0  0  0  0  0  0  0  0  0  0  0  0
  151.4893  139.4744  180.7933 C   0  0  0  0  0  0  0  0  0  0  0  0
  151.6385  138.2230  181.4475 C   0  0  0  0  0  0  0  0  0  0  0  0
  152.5930  138.1463  182.4478 C   0  0  0  0  0  0  0  0  0  0  0  0
  153.3355  139.2217  182.7761 C   0  0  0  0  0  0  0  0  0  0  0  0
  154.4222  139.3105  183.7651 C   0  0  0  0  0  0  0  0  0  0  0  0
  154.2291  138.6766  185.0117 C   0  0  0  0  0  0  0  0  0  0  0  0
  155.2017  138.5617  185.9582 C   0  0  0  0  0  0  0  0  0  0  0  0
  156.4028  139.0907  185.6717 N   0  0  0  0  0  0  0  0  0  0  0  0
  156.6519  139.7177  184.4837 C   0  0  0  0  0  0  0  0  0  0  0  0
  155.6609  139.8343  183.5198 C   0  0  0  0  0  0  0  0  0  0  0  0
  157.9747  140.1978  184.3116 N   0  0  0  0  0  0  0  0  0  0  0  0
  158.5317  141.2151  185.1647 C   0  0  0  0  0  0  0  0  0  0  0  0
  159.9282  141.5468  184.6720 C   0  0  0  0  0  0  0  0  0  0  0  0
  160.0586  141.7061  183.3341 O   0  0  0  0  0  0  0  0  0  0  0  0
  159.3791  140.8703  182.4967 C   0  0  0  0  0  0  0  0  0  0  0  0
  158.8156  139.6754  183.2601 C   0  0  0  0  0  0  0  0  0  0  0  0
  155.0605  137.9052  187.2213 N   0  0  0  0  0  0  0  0  0  0  0  0
  153.9460  138.3176  188.0947 C   0  0  0  0  0  0  0  0  0  0  0  0
  154.4139  138.1273  189.5247 C   0  0  0  0  0  0  0  0  0  0  0  0
  154.7049  136.8210  189.8333 O   0  0  0  0  0  0  0  0  0  0  0  0
  155.1302  136.0720  188.7445 C   0  0  0  0  0  0  0  0  0  0  0  0
  155.9118  136.8753  187.7183 C   0  0  0  0  0  0  0  0  0  0  0  0
  150.8008  137.1727  181.0411 N   0  0  0  0  0  0  0  0  0  0  0  0
  149.4584  136.8594  181.2818 C   0  0  0  0  0  0  0  0  0  0  0  0
  148.6939  137.5137  181.9880 O   0  0  0  0  0  0  0  0  0  0  0  0
  151.3236  136.4313  180.4130 H   0  0  0  0  0  0  0  0  0  0  0  0
  148.9727  135.6304  180.5924 C   0  0  0  0  0  0  0  0  0  0  0  0
  147.6832  135.5458  180.1359 C   0  0  0  0  0  0  0  0  0  0  0  0
  147.2451  134.4235  179.4004 C   0  0  0  0  0  0  0  0  0  0  0  0
  148.1652  133.4039  179.1530 C   0  0  0  0  0  0  0  0  0  0  0  0
  149.4727  133.4576  179.6028 C   0  0  0  0  0  0  0  0  0  0  0  0
  149.8364  134.6057  180.3284 C   0  0  0  0  0  0  0  0  0  0  0  0
  150.4236  132.3638  179.2887 C   0  0  0  0  0  0  0  0  0  0  0  0
  151.6996  132.8357  179.0053 F   0  0  0  0  0  0  0  0  0  0  0  0
  150.5696  131.5285  180.4073 F   0  0  0  0  0  0  0  0  0  0  0  0
  149.9116  131.5696  178.2803 F   0  0  0  0  0  0  0  0  0  0  0  0
  1  2  1  0  0  0
  2  3  2  0  0  0
  3  4  1  0  0  0
  4  5  2  0  0  0
  5 26  1  0  0  0
 26 27  1  0  0  0
 27 28  2  0  0  0
 27 30  1  0  0  0
 30 31  2  0  0  0
 31 32  1  0  0  0
 32 33  2  0  0  0
 33 34  1  0  0  0
 34 35  2  0  0  0
 34 36  1  0  0  0
 36 37  1  0  0  0
 36 38  1  0  0  0
 36 39  1  0  0  0
  5  6  1  0  0  0
  6  7  2  0  0  0
  7  8  1  0  0  0
  8  9  2  0  0  0
  9 10  1  0  0  0
 10 11  2  0  0  0
 11 12  1  0  0  0
 12 13  2  0  0  0
 12 14  1  0  0  0
 14 15  1  0  0  0
 15 16  1  0  0  0
 16 17  1  0  0  0
 17 18  1  0  0  0
 18 19  1  0  0  0
 10 20  1  0  0  0
 20 21  1  0  0  0
 21 22  1  0  0  0
 22 23  1  0  0  0
 23 24  1  0  0  0
 24 25  1  0  0  0
  7  2  1  0  0  0
 13  8  1  0  0  0
 19 14  1  0  0  0
 25 20  1  0  0  0
 35 30  1  0  0  0
 26 29  1  0  0  0
M  END
> <minimizedAffinity>
-8.20443

> <CNNscore>
0.2092567384

> <CNNaffinity>
6.0080795288

> <CNN_VS>
1.2572311163

> <CNNaffinity_variance>
0.0198628195

$$$$
[H]N=C(N([H])[H])N([H])C([H])([H])C([H])([H])C([H])([H])[C@@]([H])(C(=O)N([H])[C@]([H])(C(=O)N([H])[H])C([H])([H])c1c([H])c([H])c(O[H])c([H])c1[H])N([H])C(=O)[C@@]([H])(N([H])[H])C([H])([H])c1c([H])c([H])c(O[H])c([H])c1[H]


 48 49  0  0  0  0  0  0  0  0999 V2000
  154.8944  140.3619  183.2642 C   0  0  0  0  0  0  0  0  0  0  0  0
  154.4665  138.3720  184.7300 C   0  0  0  0  0  0  0  0  0  0  0  0
  153.9554  137.7310  183.7788 O   0  0  0  0  0  0  0  0  0  0  0  0
  154.9581  139.6805  184.5569 N   0  0  0  0  0  0  0  0  0  0  0  0
  155.3837  140.1919  185.3669 H   0  0  0  0  0  0  0  0  0  0  0  0
  154.5152  136.2973  185.8912 N   0  0  0  0  0  0  0  0  0  0  0  0
  154.5504  137.7332  186.0569 C   0  0  0  0  0  0  0  0  0  0  0  0
  153.6567  136.0056  185.3804 H   0  0  0  0  0  0  0  0  0  0  0  0
  155.3705  136.0327  185.3606 H   0  0  0  0  0  0  0  0  0  0  0  0
  155.8328  138.1077  186.7736 C   0  0  0  0  0  0  0  0  0  0  0  0
  155.6552  137.6607  188.1972 C   0  0  0  0  0  0  0  0  0  0  0  0
  156.5087  136.7333  188.7579 C   0  0  0  0  0  0  0  0  0  0  0  0
  156.3323  136.3324  190.0680 C   0  0  0  0  0  0  0  0  0  0  0  0
  155.3205  136.8259  190.8621 C   0  0  0  0  0  0  0  0  0  0  0  0
  155.1810  136.3973  192.1672 O   0  0  0  0  0  0  0  0  0  0  0  0
  154.4653  137.7541  190.3031 C   0  0  0  0  0  0  0  0  0  0  0  0
  154.6430  138.1546  188.9909 C   0  0  0  0  0  0  0  0  0  0  0  0
  155.6244  136.8401  192.9389 H   0  0  0  0  0  0  0  0  0  0  0  0
  156.1351  141.1684  183.1340 C   0  0  0  0  0  0  0  0  0  0  0  0
  156.1579  142.3133  183.6166 O   0  0  0  0  0  0  0  0  0  0  0  0
  157.2757  140.6579  182.4770 N   0  0  0  0  0  0  0  0  0  0  0  0
  157.1953  139.6713  182.0844 H   0  0  0  0  0  0  0  0  0  0  0  0
  158.5061  141.3993  182.3230 C   0  0  0  0  0  0  0  0  0  0  0  0
  158.7753  141.8385  180.9422 C   0  0  0  0  0  0  0  0  0  0  0  0
  158.0769  141.2157  179.8778 N   0  0  0  0  0  0  0  0  0  0  0  0
  159.5979  142.7418  180.6580 O   0  0  0  0  0  0  0  0  0  0  0  0
  157.3475  141.7343  179.3087 H   0  0  0  0  0  0  0  0  0  0  0  0
  158.2350  140.2233  179.5930 H   0  0  0  0  0  0  0  0  0  0  0  0
  159.6730  140.6967  182.9820 C   0  0  0  0  0  0  0  0  0  0  0  0
  160.1983  141.4154  184.1657 C   0  0  0  0  0  0  0  0  0  0  0  0
  161.4852  141.8789  184.2303 C   0  0  0  0  0  0  0  0  0  0  0  0
  161.8983  142.5354  185.3710 C   0  0  0  0  0  0  0  0  0  0  0  0
  161.0853  142.7494  186.4483 C   0  0  0  0  0  0  0  0  0  0  0  0
  161.5093  143.4144  187.5999 O   0  0  0  0  0  0  0  0  0  0  0  0
  159.7924  142.2820  186.3794 C   0  0  0  0  0  0  0  0  0  0  0  0
  159.3715  141.6253  185.2440 C   0  0  0  0  0  0  0  0  0  0  0  0
  161.9247  142.9265  188.3830 H   0  0  0  0  0  0  0  0  0  0  0  0
  153.6635  141.1950  183.1306 C   0  0  0  0  0  0  0  0  0  0  0  0
  153.0707  141.0182  181.7584 C   0  0  0  0  0  0  0  0  0  0  0  0
  152.7628  139.5960  181.4032 C   0  0  0  0  0  0  0  0  0  0  0  0
  152.3732  139.4842  180.0025 N   0  0  0  0  0  0  0  0  0  0  0  0
  153.0755  139.1623  179.3313 H   0  0  0  0  0  0  0  0  0  0  0  0
  151.0522  139.8127  179.5736 C   0  0  0  0  0  0  0  0  0  0  0  0
  149.9553  139.5068  180.4219 N   0  0  0  0  0  0  0  0  0  0  0  0
  150.8134  140.3805  178.4382 N   0  0  0  0  0  0  0  0  0  0  0  0
  149.3059  140.2239  180.8186 H   0  0  0  0  0  0  0  0  0  0  0  0
  149.8115  138.4937  180.6476 H   0  0  0  0  0  0  0  0  0  0  0  0
  151.6163  140.6023  177.8214 H   0  0  0  0  0  0  0  0  0  0  0  0
  6  7  1  0  0  0
  7 10  1  0  0  0
 10 11  1  0  0  0
 11 12  2  0  0  0
 12 13  1  0  0  0
 13 14  2  0  0  0
 14 15  1  0  0  0
 14 16  1  0  0  0
 16 17  2  0  0  0
  7  2  1  0  0  0
  2  3  2  0  0  0
  2  4  1  0  0  0
  4  1  1  0  0  0
  1 38  1  0  0  0
 38 39  1  0  0  0
 39 40  1  0  0  0
 40 41  1  0  0  0
 41 43  1  0  0  0
 43 44  1  0  0  0
 43 45  2  0  0  0
  1 19  1  0  0  0
 19 20  2  0  0  0
 19 21  1  0  0  0
 21 23  1  0  0  0
 23 29  1  0  0  0
 29 30  1  0  0  0
 30 31  2  0  0  0
 31 32  1  0  0  0
 32 33  2  0  0  0
 33 34  1  0  0  0
 33 35  1  0  0  0
 35 36  2  0  0  0
 23 24  1  0  0  0
 24 25  1  0  0  0
 24 26  2  0  0  0
 17 11  1  0  0  0
 36 30  1  0  0  0
  6  8  1  0  0  0
  6  9  1  0  0  0
 15 18  1  0  0  0
  4  5  1  0  0  0
 41 42  1  0  0  0
 44 46  1  0  0  0
 44 47  1  0  0  0
 45 48  1  0  0  0
 21 22  1  0  0  0
 34 37  1  0  0  0
 25 27  1  0  0  0
 25 28  1  0  0  0
M  END
> <minimizedAffinity>
-8.93464

> <CNNscore>
0.4319594204

> <CNNaffinity>
6.5979485512

> <CNN_VS>
2.8500459194

> <CNNaffinity_variance>
0.0232166611

$$$$
[H]N=C(N([H])[H])N([H])C([H])([H])C([H])([H])C([H])([H])[C@@]([H])(C(=O)N([H])[C@]([H])(C(=O)N([H])[H])C([H])([H])c1c([H])c([H])c(O[H])c([H])c1[H])N([H])C(=O)[C@@]([H])(N([H])[H])C([H])([H])c1c([H])c([H])c(O[H])c([H])c1[H]


 48 49  0  0  0  0  0  0  0  0999 V2000
  155.0875  140.0231  183.9563 C   0  0  0  0  0  0  0  0  0  0  0  0
  157.0882  141.3517  183.2327 C   0  0  0  0  0  0  0  0  0  0  0  0
  156.4914  142.4374  183.4378 O   0  0  0  0  0  0  0  0  0  0  0  0
  156.4632  140.1115  183.4675 N   0  0  0  0  0  0  0  0  0  0  0  0
  156.9857  139.2198  183.2918 H   0  0  0  0  0  0  0  0  0  0  0  0
  158.9764  142.7376  182.8215 N   0  0  0  0  0  0  0  0  0  0  0  0
  158.4760  141.3840  182.7341 C   0  0  0  0  0  0  0  0  0  0  0  0
  158.3648  143.3922  182.2917 H   0  0  0  0  0  0  0  0  0  0  0  0
  158.9997  142.9871  183.8316 H   0  0  0  0  0  0  0  0  0  0  0  0
  159.3798  140.4790  183.5480 C   0  0  0  0  0  0  0  0  0  0  0  0
  160.0138  141.3577  184.5891 C   0  0  0  0  0  0  0  0  0  0  0  0
  159.3349  141.6866  185.7441 C   0  0  0  0  0  0  0  0  0  0  0  0
  159.9313  142.4955  186.6918 C   0  0  0  0  0  0  0  0  0  0  0  0
  161.2028  143.0025  186.5363 C   0  0  0  0  0  0  0  0  0  0  0  0
  161.7605  143.8076  187.5096 O   0  0  0  0  0  0  0  0  0  0  0  0
  161.8839  142.6746  185.3813 C   0  0  0  0  0  0  0  0  0  0  0  0
  161.2854  141.8645  184.4329 C   0  0  0  0  0  0  0  0  0  0  0  0
  162.2949  143.4559  188.2705 H   0  0  0  0  0  0  0  0  0  0  0  0
  155.1063  139.1499  185.1580 C   0  0  0  0  0  0  0  0  0  0  0  0
  156.1978  138.8908  185.6924 O   0  0  0  0  0  0  0  0  0  0  0  0
  153.9145  138.6163  185.6950 N   0  0  0  0  0  0  0  0  0  0  0  0
  153.0112  138.8737  185.1935 H   0  0  0  0  0  0  0  0  0  0  0  0
  153.8768  137.7630  186.8602 C   0  0  0  0  0  0  0  0  0  0  0  0
  152.9320  136.6372  186.7515 C   0  0  0  0  0  0  0  0  0  0  0  0
  151.7411  136.8135  186.0036 N   0  0  0  0  0  0  0  0  0  0  0  0
  153.1284  135.5224  187.2918 O   0  0  0  0  0  0  0  0  0  0  0  0
  151.5798  136.3118  185.0831 H   0  0  0  0  0  0  0  0  0  0  0  0
  150.9616  137.4384  186.3079 H   0  0  0  0  0  0  0  0  0  0  0  0
  153.7361  138.5611  188.1381 C   0  0  0  0  0  0  0  0  0  0  0  0
  154.5794  138.0519  189.2440 C   0  0  0  0  0  0  0  0  0  0  0  0
  155.9391  138.2130  189.2631 C   0  0  0  0  0  0  0  0  0  0  0  0
  156.6534  137.7054  190.3284 C   0  0  0  0  0  0  0  0  0  0  0  0
  156.0716  137.0451  191.3739 C   0  0  0  0  0  0  0  0  0  0  0  0
  156.7999  136.5336  192.4491 O   0  0  0  0  0  0  0  0  0  0  0  0
  154.7047  136.8852  191.3510 C   0  0  0  0  0  0  0  0  0  0  0  0
  153.9835  137.3891  190.2909 C   0  0  0  0  0  0  0  0  0  0  0  0
  157.1753  135.5939  192.4485 H   0  0  0  0  0  0  0  0  0  0  0  0
  154.1521  139.5201  182.9080 C   0  0  0  0  0  0  0  0  0  0  0  0
  153.6719  140.6649  182.0568 C   0  0  0  0  0  0  0  0  0  0  0  0
  152.2802  140.4940  181.5298 C   0  0  0  0  0  0  0  0  0  0  0  0
  152.2878  139.7425  180.2801 N   0  0  0  0  0  0  0  0  0  0  0  0
  153.1608  139.2911  179.9948 H   0  0  0  0  0  0  0  0  0  0  0  0
  151.1150  139.6360  179.4739 C   0  0  0  0  0  0  0  0  0  0  0  0
  150.1722  138.6131  179.7591 N   0  0  0  0  0  0  0  0  0  0  0  0
  150.8756  140.4375  178.4896 N   0  0  0  0  0  0  0  0  0  0  0  0
  149.1797  138.7935  180.0338 H   0  0  0  0  0  0  0  0  0  0  0  0
  150.5193  137.6274  179.6817 H   0  0  0  0  0  0  0  0  0  0  0  0
  151.5658  141.1830  178.2841 H   0  0  0  0  0  0  0  0  0  0  0  0
  6  7  1  0  0  0
  7 10  1  0  0  0
 10 11  1  0  0  0
 11 12  2  0  0  0
 12 13  1  0  0  0
 13 14  2  0  0  0
 14 15  1  0  0  0
 14 16  1  0  0  0
 16 17  2  0  0  0
  7  2  1  0  0  0
  2  3  2  0  0  0
  2  4  1  0  0  0
  4  1  1  0  0  0
  1 38  1  0  0  0
 38 39  1  0  0  0
 39 40  1  0  0  0
 40 41  1  0  0  0
 41 43  1  0  0  0
 43 44  1  0  0  0
 43 45  2  0  0  0
  1 19  1  0  0  0
 19 20  2  0  0  0
 19 21  1  0  0  0
 21 23  1  0  0  0
 23 29  1  0  0  0
 29 30  1  0  0  0
 30 31  2  0  0  0
 31 32  1  0  0  0
 32 33  2  0  0  0
 33 34  1  0  0  0
 33 35  1  0  0  0
 35 36  2  0  0  0
 23 24  1  0  0  0
 24 25  1  0  0  0
 24 26  2  0  0  0
 17 11  1  0  0  0
 36 30  1  0  0  0
  6  8  1  0  0  0
  6  9  1  0  0  0
 15 18  1  0  0  0
  4  5  1  0  0  0
 41 42  1  0  0  0
 44 46  1  0  0  0
 44 47  1  0  0  0
 45 48  1  0  0  0
 21 22  1  0  0  0
 34 37  1  0  0  0
 25 27  1  0  0  0
 25 28  1  0  0  0
M  END
> <minimizedAffinity>
-8.91768

> <CNNscore>
0.3406024277

> <CNNaffinity>
6.2733678818

> <CNN_VS>
2.1367242336

> <CNNaffinity_variance>
0.0211483520

$$$$
[H]N=C(N([H])[H])N([H])C([H])([H])C([H])([H])C([H])([H])[C@@]([H])(C(=O)N([H])[C@]([H])(C(=O)N([H])[H])C([H])([H])c1c([H])c([H])c(O[H])c([H])c1[H])N([H])C(=O)[C@@]([H])(N([H])[H])C([H])([H])c1c([H])c([H])c(O[H])c([H])c1[H]


 48 49  0  0  0  0  0  0  0  0999 V2000
  155.3081  139.5662  184.6056 C   0  0  0  0  0  0  0  0  0  0  0  0
  157.5731  140.5932  184.2789 C   0  0  0  0  0  0  0  0  0  0  0  0
  157.1651  141.7148  184.6696 O   0  0  0  0  0  0  0  0  0  0  0  0
  156.7163  139.4768  184.2204 N   0  0  0  0  0  0  0  0  0  0  0  0
  157.0837  138.5509  183.8941 H   0  0  0  0  0  0  0  0  0  0  0  0
  159.0533  139.6052  182.7015 N   0  0  0  0  0  0  0  0  0  0  0  0
  158.9839  140.4493  183.8733 C   0  0  0  0  0  0  0  0  0  0  0  0
  158.6125  138.6806  182.8860 H   0  0  0  0  0  0  0  0  0  0  0  0
  158.5563  140.1070  181.9371 H   0  0  0  0  0  0  0  0  0  0  0  0
  159.6064  141.7914  183.5420 C   0  0  0  0  0  0  0  0  0  0  0  0
  160.5216  142.1158  184.6888 C   0  0  0  0  0  0  0  0  0  0  0  0
  161.8916  142.0779  184.5315 C   0  0  0  0  0  0  0  0  0  0  0  0
  162.7197  142.3787  185.5953 C   0  0  0  0  0  0  0  0  0  0  0  0
  162.2324  142.7235  186.8370 C   0  0  0  0  0  0  0  0  0  0  0  0
  163.0970  143.0167  187.8728 O   0  0  0  0  0  0  0  0  0  0  0  0
  160.8619  142.7621  186.9966 C   0  0  0  0  0  0  0  0  0  0  0  0
  160.0336  142.4605  185.9303 C   0  0  0  0  0  0  0  0  0  0  0  0
  163.4360  143.9323  188.0600 H   0  0  0  0  0  0  0  0  0  0  0  0
  155.1225  138.6879  185.7891 C   0  0  0  0  0  0  0  0  0  0  0  0
  156.1280  138.2358  186.3623 O   0  0  0  0  0  0  0  0  0  0  0  0
  153.8339  138.3632  186.2662 N   0  0  0  0  0  0  0  0  0  0  0  0
  153.0117  138.7806  185.7335 H   0  0  0  0  0  0  0  0  0  0  0  0
  153.5978  137.5148  187.4114 C   0  0  0  0  0  0  0  0  0  0  0  0
  152.4773  136.5727  187.2417 C   0  0  0  0  0  0  0  0  0  0  0  0
  152.7073  135.1907  187.4556 N   0  0  0  0  0  0  0  0  0  0  0  0
  151.3215  136.9336  186.9144 O   0  0  0  0  0  0  0  0  0  0  0  0
  152.2863  134.6751  188.2814 H   0  0  0  0  0  0  0  0  0  0  0  0
  153.2962  134.6041  186.8231 H   0  0  0  0  0  0  0  0  0  0  0  0
  153.5425  138.3088  188.6983 C   0  0  0  0  0  0  0  0  0  0  0  0
  154.4741  137.8103  189.7361 C   0  0  0  0  0  0  0  0  0  0  0  0
  155.7776  138.2231  189.8104 C   0  0  0  0  0  0  0  0  0  0  0  0
  156.5821  137.7075  190.8053 C   0  0  0  0  0  0  0  0  0  0  0  0
  156.1439  136.7995  191.7278 C   0  0  0  0  0  0  0  0  0  0  0  0
  156.9630  136.2814  192.7322 O   0  0  0  0  0  0  0  0  0  0  0  0
  154.8331  136.3870  191.6498 C   0  0  0  0  0  0  0  0  0  0  0  0
  154.0226  136.8969  190.6594 C   0  0  0  0  0  0  0  0  0  0  0  0
  157.5119  135.4415  192.6014 H   0  0  0  0  0  0  0  0  0  0  0  0
  154.3962  139.1998  183.4826 C   0  0  0  0  0  0  0  0  0  0  0  0
  153.6549  140.4197  183.0047 C   0  0  0  0  0  0  0  0  0  0  0  0
  154.2713  141.0818  181.8108 C   0  0  0  0  0  0  0  0  0  0  0  0
  155.0261  142.2651  182.2064 N   0  0  0  0  0  0  0  0  0  0  0  0
  154.5746  142.9377  182.8317 H   0  0  0  0  0  0  0  0  0  0  0  0
  156.3564  142.4845  181.7384 C   0  0  0  0  0  0  0  0  0  0  0  0
  156.9726  141.4983  180.9234 N   0  0  0  0  0  0  0  0  0  0  0  0
  157.0260  143.5504  182.0284 N   0  0  0  0  0  0  0  0  0  0  0  0
  157.2938  141.6681  179.9430 H   0  0  0  0  0  0  0  0  0  0  0  0
  157.1006  140.5525  181.3560 H   0  0  0  0  0  0  0  0  0  0  0  0
  156.5733  144.2682  182.6235 H   0  0  0  0  0  0  0  0  0  0  0  0
  6  7  1  0  0  0
  7 10  1  0  0  0
 10 11  1  0  0  0
 11 12  2  0  0  0
 12 13  1  0  0  0
 13 14  2  0  0  0
 14 15  1  0  0  0
 14 16  1  0  0  0
 16 17  2  0  0  0
  7  2  1  0  0  0
  2  3  2  0  0  0
  2  4  1  0  0  0
  4  1  1  0  0  0
  1 38  1  0  0  0
 38 39  1  0  0  0
 39 40  1  0  0  0
 40 41  1  0  0  0
 41 43  1  0  0  0
 43 44  1  0  0  0
 43 45  2  0  0  0
  1 19  1  0  0  0
 19 20  2  0  0  0
 19 21  1  0  0  0
 21 23  1  0  0  0
 23 29  1  0  0  0
 29 30  1  0  0  0
 30 31  2  0  0  0
 31 32  1  0  0  0
 32 33  2  0  0  0
 33 34  1  0  0  0
 33 35  1  0  0  0
 35 36  2  0  0  0
 23 24  1  0  0  0
 24 25  1  0  0  0
 24 26  2  0  0  0
 17 11  1  0  0  0
 36 30  1  0  0  0
  6  8  1  0  0  0
  6  9  1  0  0  0
 15 18  1  0  0  0
  4  5  1  0  0  0
 41 42  1  0  0  0
 44 46  1  0  0  0
 44 47  1  0  0  0
 45 48  1  0  0  0
 21 22  1  0  0  0
 34 37  1  0  0  0
 25 27  1  0  0  0
 25 28  1  0  0  0
M  END
> <minimizedAffinity>
-8.25210

> <CNNscore>
0.3096628785

> <CNNaffinity>
6.3410177231

> <CNN_VS>
1.9635777473

> <CNNaffinity_variance>
0.0193953998

$$$$
[H]N=C(N([H])[H])N([H])C([H])([H])C([H])([H])C([H])([H])[C@@]([H])(C(=O)N([H])[C@]([H])(C(=O)N([H])[H])C([H])([H])c1c([H])c([H])c(O[H])c([H])c1[H])N([H])C(=O)[C@@]([H])(N([H])[H])C([H])([H])c1c([H])c([H])c(O[H])c([H])c1[H]


 48 49  0  0  0  0  0  0  0  0999 V2000
  154.4900  140.0564  182.9833 C   0  0  0  0  0  0  0  0  0  0  0  0
  153.6432  138.2668  184.5234 C   0  0  0  0  0  0  0  0  0  0  0  0
  153.3214  137.5318  183.5574 O   0  0  0  0  0  0  0  0  0  0  0  0
  154.2301  139.5315  184.3236 N   0  0  0  0  0  0  0  0  0  0  0  0
  154.4930  140.1233  185.1479 H   0  0  0  0  0  0  0  0  0  0  0  0
  152.0757  137.2062  185.9634 N   0  0  0  0  0  0  0  0  0  0  0  0
  153.3978  137.7876  185.8967 C   0  0  0  0  0  0  0  0  0  0  0  0
  151.3544  137.8942  185.6641 H   0  0  0  0  0  0  0  0  0  0  0  0
  152.0784  136.3754  185.3366 H   0  0  0  0  0  0  0  0  0  0  0  0
  154.4110  136.7375  186.3080 C   0  0  0  0  0  0  0  0  0  0  0  0
  154.9538  137.1860  187.6355 C   0  0  0  0  0  0  0  0  0  0  0  0
  156.1322  136.6653  188.1289 C   0  0  0  0  0  0  0  0  0  0  0  0
  156.6182  137.0878  189.3510 C   0  0  0  0  0  0  0  0  0  0  0  0
  155.9677  138.0273  190.1205 C   0  0  0  0  0  0  0  0  0  0  0  0
  156.4897  138.4208  191.3367 O   0  0  0  0  0  0  0  0  0  0  0  0
  154.7885  138.5496  189.6287 C   0  0  0  0  0  0  0  0  0  0  0  0
  154.3027  138.1255  188.4047 C   0  0  0  0  0  0  0  0  0  0  0  0
  157.1219  139.1809  191.4405 H   0  0  0  0  0  0  0  0  0  0  0  0
  155.7444  140.8484  183.0601 C   0  0  0  0  0  0  0  0  0  0  0  0
  155.8010  141.8042  183.8520 O   0  0  0  0  0  0  0  0  0  0  0  0
  156.8606  140.5336  182.2547 N   0  0  0  0  0  0  0  0  0  0  0  0
  156.7515  139.7040  181.5961 H   0  0  0  0  0  0  0  0  0  0  0  0
  158.1028  141.2703  182.2902 C   0  0  0  0  0  0  0  0  0  0  0  0
  158.5360  141.7833  180.9783 C   0  0  0  0  0  0  0  0  0  0  0  0
  157.9266  141.2678  179.8071 N   0  0  0  0  0  0  0  0  0  0  0  0
  159.4238  142.6590  180.8435 O   0  0  0  0  0  0  0  0  0  0  0  0
  157.2856  141.8594  179.2038 H   0  0  0  0  0  0  0  0  0  0  0  0
  158.0691  140.2890  179.4715 H   0  0  0  0  0  0  0  0  0  0  0  0
  159.1807  140.5206  183.0423 C   0  0  0  0  0  0  0  0  0  0  0  0
  159.6644  141.2375  184.2446 C   0  0  0  0  0  0  0  0  0  0  0  0
  158.9166  141.3407  185.3870 C   0  0  0  0  0  0  0  0  0  0  0  0
  159.4379  142.0294  186.4625 C   0  0  0  0  0  0  0  0  0  0  0  0
  160.6708  142.6188  186.4482 C   0  0  0  0  0  0  0  0  0  0  0  0
  161.1929  143.3145  187.5399 O   0  0  0  0  0  0  0  0  0  0  0  0
  161.4195  142.5128  185.2981 C   0  0  0  0  0  0  0  0  0  0  0  0
  160.9065  141.8268  184.2193 C   0  0  0  0  0  0  0  0  0  0  0  0
  161.0454  144.3073  187.6679 H   0  0  0  0  0  0  0  0  0  0  0  0
  153.3452  140.8617  182.4659 C   0  0  0  0  0  0  0  0  0  0  0  0
  152.8929  140.3162  181.1378 C   0  0  0  0  0  0  0  0  0  0  0  0
  151.4598  139.8812  181.1109 C   0  0  0  0  0  0  0  0  0  0  0  0
  151.3115  138.5493  181.6857 N   0  0  0  0  0  0  0  0  0  0  0  0
  152.0885  137.8911  181.5831 H   0  0  0  0  0  0  0  0  0  0  0  0
  150.1199  138.1685  182.3726 C   0  0  0  0  0  0  0  0  0  0  0  0
  150.2215  137.3522  183.5301 N   0  0  0  0  0  0  0  0  0  0  0  0
  148.9459  138.5390  181.9811 N   0  0  0  0  0  0  0  0  0  0  0  0
  149.9014  137.6451  184.4814 H   0  0  0  0  0  0  0  0  0  0  0  0
  150.6468  136.4043  183.3936 H   0  0  0  0  0  0  0  0  0  0  0  0
  148.8753  139.1348  181.1358 H   0  0  0  0  0  0  0  0  0  0  0  0
  6  7  1  0  0  0
  7 10  1  0  0  0
 10 11  1  0  0  0
 11 12  2  0  0  0
 12 13  1  0  0  0
 13 14  2  0  0  0
 14 15  1  0  0  0
 14 16  1  0  0  0
 16 17  2  0  0  0
  7  2  1  0  0  0
  2  3  2  0  0  0
  2  4  1  0  0  0
  4  1  1  0  0  0
  1 38  1  0  0  0
 38 39  1  0  0  0
 39 40  1  0  0  0
 40 41  1  0  0  0
 41 43  1  0  0  0
 43 44  1  0  0  0
 43 45  2  0  0  0
  1 19  1  0  0  0
 19 20  2  0  0  0
 19 21  1  0  0  0
 21 23  1  0  0  0
 23 29  1  0  0  0
 29 30  1  0  0  0
 30 31  2  0  0  0
 31 32  1  0  0  0
 32 33  2  0  0  0
 33 34  1  0  0  0
 33 35  1  0  0  0
 35 36  2  0  0  0
 23 24  1  0  0  0
 24 25  1  0  0  0
 24 26  2  0  0  0
 17 11  1  0  0  0
 36 30  1  0  0  0
  6  8  1  0  0  0
  6  9  1  0  0  0
 15 18  1  0  0  0
  4  5  1  0  0  0
 41 42  1  0  0  0
 44 46  1  0  0  0
 44 47  1  0  0  0
 45 48  1  0  0  0
 21 22  1  0  0  0
 34 37  1  0  0  0
 25 27  1  0  0  0
 25 28  1  0  0  0
M  END
> <minimizedAffinity>
-8.55460

> <CNNscore>
0.3081710339

> <CNNaffinity>
6.2220911980

> <CNN_VS>
1.9174683094

> <CNNaffinity_variance>
0.1693333387

$$$$
[H]N=C(N([H])[H])N([H])C([H])([H])C([H])([H])C([H])([H])[C@@]([H])(C(=O)N([H])[C@]([H])(C(=O)N([H])[H])C([H])([H])c1c([H])c([H])c(O[H])c([H])c1[H])N([H])C(=O)[C@@]([H])(N([H])[H])C([H])([H])c1c([H])c([H])c(O[H])c([H])c1[H]


 48 49  0  0  0  0  0  0  0  0999 V2000
  154.4987  138.3914  185.6234 C   0  0  0  0  0  0  0  0  0  0  0  0
  156.4049  139.6923  184.6406 C   0  0  0  0  0  0  0  0  0  0  0  0
  155.6715  140.1591  183.7345 O   0  0  0  0  0  0  0  0  0  0  0  0
  155.8997  138.8117  185.6170 N   0  0  0  0  0  0  0  0  0  0  0  0
  156.5328  138.4396  186.3650 H   0  0  0  0  0  0  0  0  0  0  0  0
  158.5435  139.3388  183.6625 N   0  0  0  0  0  0  0  0  0  0  0  0
  157.8277  140.0796  184.6770 C   0  0  0  0  0  0  0  0  0  0  0  0
  158.4228  138.3142  183.7995 H   0  0  0  0  0  0  0  0  0  0  0  0
  158.1600  139.6376  182.7423 H   0  0  0  0  0  0  0  0  0  0  0  0
  158.0068  141.5617  184.4127 C   0  0  0  0  0  0  0  0  0  0  0  0
  159.2867  141.9508  185.0972 C   0  0  0  0  0  0  0  0  0  0  0  0
  160.4555  142.0966  184.3792 C   0  0  0  0  0  0  0  0  0  0  0  0
  161.6240  142.4548  185.0229 C   0  0  0  0  0  0  0  0  0  0  0  0
  161.6808  142.6794  186.3809 C   0  0  0  0  0  0  0  0  0  0  0  0
  162.8709  143.0360  186.9834 O   0  0  0  0  0  0  0  0  0  0  0  0
  160.5124  142.5342  187.1013 C   0  0  0  0  0  0  0  0  0  0  0  0
  159.3428  142.1753  186.4554 C   0  0  0  0  0  0  0  0  0  0  0  0
  163.1657  143.9786  187.0971 H   0  0  0  0  0  0  0  0  0  0  0  0
  154.0638  138.3430  187.0430 C   0  0  0  0  0  0  0  0  0  0  0  0
  152.9794  138.8635  187.3547 O   0  0  0  0  0  0  0  0  0  0  0  0
  154.8567  137.7208  188.0319 N   0  0  0  0  0  0  0  0  0  0  0  0
  155.7749  137.2929  187.7038 H   0  0  0  0  0  0  0  0  0  0  0  0
  154.4809  137.6458  189.4248 C   0  0  0  0  0  0  0  0  0  0  0  0
  155.4134  138.3308  190.3376 C   0  0  0  0  0  0  0  0  0  0  0  0
  156.7982  138.0447  190.2418 N   0  0  0  0  0  0  0  0  0  0  0  0
  155.0418  139.1600  191.2022 O   0  0  0  0  0  0  0  0  0  0  0  0
  157.4941  138.7625  189.8876 H   0  0  0  0  0  0  0  0  0  0  0  0
  157.2120  137.1240  190.5099 H   0  0  0  0  0  0  0  0  0  0  0  0
  154.1427  136.2309  189.8412 C   0  0  0  0  0  0  0  0  0  0  0  0
  153.3834  136.1584  191.1108 C   0  0  0  0  0  0  0  0  0  0  0  0
  152.1682  136.7678  191.2740 C   0  0  0  0  0  0  0  0  0  0  0  0
  151.5267  136.6558  192.4900 C   0  0  0  0  0  0  0  0  0  0  0  0
  152.0437  135.9634  193.5488 C   0  0  0  0  0  0  0  0  0  0  0  0
  151.3897  135.8537  194.7769 O   0  0  0  0  0  0  0  0  0  0  0  0
  153.2654  135.3522  193.3807 C   0  0  0  0  0  0  0  0  0  0  0  0
  153.9130  135.4590  192.1695 C   0  0  0  0  0  0  0  0  0  0  0  0
  151.5295  136.5212  195.5244 H   0  0  0  0  0  0  0  0  0  0  0  0
  154.3029  137.0853  184.9286 C   0  0  0  0  0  0  0  0  0  0  0  0
  153.6750  137.3110  183.5793 C   0  0  0  0  0  0  0  0  0  0  0  0
  152.4113  138.1141  183.6189 C   0  0  0  0  0  0  0  0  0  0  0  0
  151.9827  138.4729  182.2720 N   0  0  0  0  0  0  0  0  0  0  0  0
  151.2322  137.9250  181.8433 H   0  0  0  0  0  0  0  0  0  0  0  0
  152.5886  139.5557  181.5668 C   0  0  0  0  0  0  0  0  0  0  0  0
  152.6575  139.5036  180.1495 N   0  0  0  0  0  0  0  0  0  0  0  0
  153.0797  140.5871  182.1701 N   0  0  0  0  0  0  0  0  0  0  0  0
  152.2012  140.1995  179.5165 H   0  0  0  0  0  0  0  0  0  0  0  0
  153.2052  138.7094  179.7403 H   0  0  0  0  0  0  0  0  0  0  0  0
  153.0278  140.6219  183.2047 H   0  0  0  0  0  0  0  0  0  0  0  0
  6  7  1  0  0  0
  7 10  1  0  0  0
 10 11  1  0  0  0
 11 12  2  0  0  0
 12 13  1  0  0  0
 13 14  2  0  0  0
 14 15  1  0  0  0
 14 16  1  0  0  0
 16 17  2  0  0  0
  7  2  1  0  0  0
  2  3  2  0  0  0
  2  4  1  0  0  0
  4  1  1  0  0  0
  1 38  1  0  0  0
 38 39  1  0  0  0
 39 40  1  0  0  0
 40 41  1  0  0  0
 41 43  1  0  0  0
 43 44  1  0  0  0
 43 45  2  0  0  0
  1 19  1  0  0  0
 19 20  2  0  0  0
 19 21  1  0  0  0
 21 23  1  0  0  0
 23 29  1  0  0  0
 29 30  1  0  0  0
 30 31  2  0  0  0
 31 32  1  0  0  0
 32 33  2  0  0  0
 33 34  1  0  0  0
 33 35  1  0  0  0
 35 36  2  0  0  0
 23 24  1  0  0  0
 24 25  1  0  0  0
 24 26  2  0  0  0
 17 11  1  0  0  0
 36 30  1  0  0  0
  6  8  1  0  0  0
  6  9  1  0  0  0
 15 18  1  0  0  0
  4  5  1  0  0  0
 41 42  1  0  0  0
 44 46  1  0  0  0
 44 47  1  0  0  0
 45 48  1  0  0  0
 21 22  1  0  0  0
 34 37  1  0  0  0
 25 27  1  0  0  0
 25 28  1  0  0  0
M  END
> <minimizedAffinity>
-7.74239

> <CNNscore>
0.2937329412

> <CNNaffinity>
5.7097954750

> <CNN_VS>
1.6771550179

> <CNNaffinity_variance>
0.1147385389

$$$$
[H]N=C(N([H])[H])N([H])C([H])([H])C([H])([H])C([H])([H])[C@@]([H])(C(=O)N([H])[C@]([H])(C(=O)N([H])[H])C([H])([H])c1c([H])c([H])c(O[H])c([H])c1[H])N([H])C(=O)[C@@]([H])(N([H])[H])C([H])([H])c1c([H])c([H])c(O[H])c([H])c1[H]


 48 49  0  0  0  0  0  0  0  0999 V2000
  155.4763  142.7342  183.4623 C   0  0  0  0  0  0  0  0  0  0  0  0
  157.3339  141.1335  182.9346 C   0  0  0  0  0  0  0  0  0  0  0  0
  156.8571  140.8923  181.7982 O   0  0  0  0  0  0  0  0  0  0  0  0
  156.7112  142.0361  183.8186 N   0  0  0  0  0  0  0  0  0  0  0  0
  157.1327  142.2225  184.7601 H   0  0  0  0  0  0  0  0  0  0  0  0
  158.6356  139.1563  182.7072 N   0  0  0  0  0  0  0  0  0  0  0  0
  158.5755  140.4518  183.3463 C   0  0  0  0  0  0  0  0  0  0  0  0
  157.7937  138.5905  182.9400 H   0  0  0  0  0  0  0  0  0  0  0  0
  158.6960  139.3269  181.6823 H   0  0  0  0  0  0  0  0  0  0  0  0
  159.8037  141.2466  182.9486 C   0  0  0  0  0  0  0  0  0  0  0  0
  160.3978  141.7569  184.2311 C   0  0  0  0  0  0  0  0  0  0  0  0
  161.7496  142.0132  184.3304 C   0  0  0  0  0  0  0  0  0  0  0  0
  162.2807  142.4820  185.5162 C   0  0  0  0  0  0  0  0  0  0  0  0
  161.5071  142.7120  186.6327 C   0  0  0  0  0  0  0  0  0  0  0  0
  162.0799  143.1813  187.7981 O   0  0  0  0  0  0  0  0  0  0  0  0
  160.1541  142.4563  186.5356 C   0  0  0  0  0  0  0  0  0  0  0  0
  159.6236  141.9867  185.3474 C   0  0  0  0  0  0  0  0  0  0  0  0
  162.1774  144.1478  188.0093 H   0  0  0  0  0  0  0  0  0  0  0  0
  154.4346  141.6971  183.2479 C   0  0  0  0  0  0  0  0  0  0  0  0
  153.4873  141.9494  182.4843 O   0  0  0  0  0  0  0  0  0  0  0  0
  154.5053  140.4428  183.8924 N   0  0  0  0  0  0  0  0  0  0  0  0
  155.3401  140.2857  184.5344 H   0  0  0  0  0  0  0  0  0  0  0  0
  153.5202  139.4004  183.7188 C   0  0  0  0  0  0  0  0  0  0  0  0
  153.5397  138.3721  184.7744 C   0  0  0  0  0  0  0  0  0  0  0  0
  153.7870  137.0245  184.4120 N   0  0  0  0  0  0  0  0  0  0  0  0
  153.3463  138.6299  185.9866 O   0  0  0  0  0  0  0  0  0  0  0  0
  154.6832  136.5275  184.6856 H   0  0  0  0  0  0  0  0  0  0  0  0
  153.1127  136.4470  183.8618 H   0  0  0  0  0  0  0  0  0  0  0  0
  153.5372  138.8382  182.3140 C   0  0  0  0  0  0  0  0  0  0  0  0
  152.2101  138.8605  181.6569 C   0  0  0  0  0  0  0  0  0  0  0  0
  151.0924  138.3301  182.2438 C   0  0  0  0  0  0  0  0  0  0  0  0
  149.8939  138.3874  181.5634 C   0  0  0  0  0  0  0  0  0  0  0  0
  149.7617  138.9500  180.3250 C   0  0  0  0  0  0  0  0  0  0  0  0
  148.5460  139.0049  179.6414 O   0  0  0  0  0  0  0  0  0  0  0  0
  150.8874  139.4821  179.7383 C   0  0  0  0  0  0  0  0  0  0  0  0
  152.0885  139.4291  180.4109 C   0  0  0  0  0  0  0  0  0  0  0  0
  148.2451  138.2693  179.0152 H   0  0  0  0  0  0  0  0  0  0  0  0
  155.6535  143.6111  182.2679 C   0  0  0  0  0  0  0  0  0  0  0  0
  156.7430  144.6170  182.5269 C   0  0  0  0  0  0  0  0  0  0  0  0
  157.9939  144.3814  181.7374 C   0  0  0  0  0  0  0  0  0  0  0  0
  157.7157  143.5774  180.5530 N   0  0  0  0  0  0  0  0  0  0  0  0
  156.7384  143.4438  180.2802 H   0  0  0  0  0  0  0  0  0  0  0  0
  158.7713  142.9910  179.7923 C   0  0  0  0  0  0  0  0  0  0  0  0
  158.6645  141.6312  179.3977 N   0  0  0  0  0  0  0  0  0  0  0  0
  159.8261  143.6519  179.4466 N   0  0  0  0  0  0  0  0  0  0  0  0
  158.6444  141.3116  178.4024 H   0  0  0  0  0  0  0  0  0  0  0  0
  158.6036  140.9268  180.1712 H   0  0  0  0  0  0  0  0  0  0  0  0
  159.9009  144.6442  179.7364 H   0  0  0  0  0  0  0  0  0  0  0  0
  6  7  1  0  0  0
  7 10  1  0  0  0
 10 11  1  0  0  0
 11 12  2  0  0  0
 12 13  1  0  0  0
 13 14  2  0  0  0
 14 15  1  0  0  0
 14 16  1  0  0  0
 16 17  2  0  0  0
  7  2  1  0  0  0
  2  3  2  0  0  0
  2  4  1  0  0  0
  4  1  1  0  0  0
  1 38  1  0  0  0
 38 39  1  0  0  0
 39 40  1  0  0  0
 40 41  1  0  0  0
 41 43  1  0  0  0
 43 44  1  0  0  0
 43 45  2  0  0  0
  1 19  1  0  0  0
 19 20  2  0  0  0
 19 21  1  0  0  0
 21 23  1  0  0  0
 23 29  1  0  0  0
 29 30  1  0  0  0
 30 31  2  0  0  0
 31 32  1  0  0  0
 32 33  2  0  0  0
 33 34  1  0  0  0
 33 35  1  0  0  0
 35 36  2  0  0  0
 23 24  1  0  0  0
 24 25  1  0  0  0
 24 26  2  0  0  0
 17 11  1  0  0  0
 36 30  1  0  0  0
  6  8  1  0  0  0
  6  9  1  0  0  0
 15 18  1  0  0  0
  4  5  1  0  0  0
 41 42  1  0  0  0
 44 46  1  0  0  0
 44 47  1  0  0  0
 45 48  1  0  0  0
 21 22  1  0  0  0
 34 37  1  0  0  0
 25 27  1  0  0  0
 25 28  1  0  0  0
M  END
> <minimizedAffinity>
-8.56662

> <CNNscore>
0.2840396464

> <CNNaffinity>
6.4664673805

> <CNN_VS>
1.8367331028

> <CNNaffinity_variance>
0.2419929802

$$$$
[H]N=C(N([H])[H])N([H])C([H])([H])C([H])([H])C([H])([H])[C@@]([H])(C(=O)N([H])[C@]([H])(C(=O)N([H])[H])C([H])([H])c1c([H])c([H])c(O[H])c([H])c1[H])N([H])C(=O)[C@@]([H])(N([H])[H])C([H])([H])c1c([H])c([H])c(O[H])c([H])c1[H]


 48 49  0  0  0  0  0  0  0  0999 V2000
  154.6768  137.8683  185.6565 C   0  0  0  0  0  0  0  0  0  0  0  0
  153.4310  136.5333  183.9369 C   0  0  0  0  0  0  0  0  0  0  0  0
  154.3264  135.6531  183.9134 O   0  0  0  0  0  0  0  0  0  0  0  0
  153.5280  137.6610  184.7752 N   0  0  0  0  0  0  0  0  0  0  0  0
  152.7643  138.3789  184.7783 H   0  0  0  0  0  0  0  0  0  0  0  0
  151.6361  135.0958  183.3308 N   0  0  0  0  0  0  0  0  0  0  0  0
  152.2531  136.3757  183.0632 C   0  0  0  0  0  0  0  0  0  0  0  0
  152.3184  134.3217  183.1955 H   0  0  0  0  0  0  0  0  0  0  0  0
  151.2964  135.1232  184.3142 H   0  0  0  0  0  0  0  0  0  0  0  0
  151.2303  137.4679  183.3073 C   0  0  0  0  0  0  0  0  0  0  0  0
  151.1635  138.2623  182.0335 C   0  0  0  0  0  0  0  0  0  0  0  0
  150.1683  138.0289  181.1071 C   0  0  0  0  0  0  0  0  0  0  0  0
  150.1202  138.7675  179.9409 C   0  0  0  0  0  0  0  0  0  0  0  0
  151.0405  139.7507  179.6502 C   0  0  0  0  0  0  0  0  0  0  0  0
  150.9546  140.4652  178.4718 O   0  0  0  0  0  0  0  0  0  0  0  0
  152.0371  139.9859  180.5758 C   0  0  0  0  0  0  0  0  0  0  0  0
  152.0842  139.2453  181.7434 C   0  0  0  0  0  0  0  0  0  0  0  0
  150.4390  141.3102  178.3806 H   0  0  0  0  0  0  0  0  0  0  0  0
  154.1624  137.8752  187.0502 C   0  0  0  0  0  0  0  0  0  0  0  0
  152.9546  138.0961  187.2411 O   0  0  0  0  0  0  0  0  0  0  0  0
  155.0173  137.6370  188.1483 N   0  0  0  0  0  0  0  0  0  0  0  0
  156.0415  137.4541  187.9213 H   0  0  0  0  0  0  0  0  0  0  0  0
  154.5690  137.6324  189.5217 C   0  0  0  0  0  0  0  0  0  0  0  0
  155.4368  138.3902  190.4407 C   0  0  0  0  0  0  0  0  0  0  0  0
  156.8344  138.1565  190.4106 N   0  0  0  0  0  0  0  0  0  0  0  0
  154.9989  139.2376  191.2552 O   0  0  0  0  0  0  0  0  0  0  0  0
  157.5157  138.8870  190.0541 H   0  0  0  0  0  0  0  0  0  0  0  0
  157.2723  137.2646  190.7325 H   0  0  0  0  0  0  0  0  0  0  0  0
  154.2387  136.2357  190.0012 C   0  0  0  0  0  0  0  0  0  0  0  0
  153.1242  136.1982  190.9760 C   0  0  0  0  0  0  0  0  0  0  0  0
  153.3342  136.1631  192.3286 C   0  0  0  0  0  0  0  0  0  0  0  0
  152.2417  136.1252  193.1698 C   0  0  0  0  0  0  0  0  0  0  0  0
  150.9508  136.1209  192.7215 C   0  0  0  0  0  0  0  0  0  0  0  0
  149.8493  136.0824  193.5779 O   0  0  0  0  0  0  0  0  0  0  0  0
  150.7438  136.1562  191.3612 C   0  0  0  0  0  0  0  0  0  0  0  0
  151.8292  136.1942  190.5138 C   0  0  0  0  0  0  0  0  0  0  0  0
  149.4345  135.2122  193.8851 H   0  0  0  0  0  0  0  0  0  0  0  0
  155.4195  139.1190  185.3232 C   0  0  0  0  0  0  0  0  0  0  0  0
  155.1274  139.5264  183.9039 C   0  0  0  0  0  0  0  0  0  0  0  0
  156.1510  140.4429  183.3072 C   0  0  0  0  0  0  0  0  0  0  0  0
  155.9392  141.8157  183.7511 N   0  0  0  0  0  0  0  0  0  0  0  0
  156.2612  142.0743  184.6874 H   0  0  0  0  0  0  0  0  0  0  0  0
  155.3019  142.7755  182.9088 C   0  0  0  0  0  0  0  0  0  0  0  0
  156.0836  143.8051  182.3214 N   0  0  0  0  0  0  0  0  0  0  0  0
  154.0350  142.7446  182.6581 N   0  0  0  0  0  0  0  0  0  0  0  0
  156.1962  143.9371  181.2904 H   0  0  0  0  0  0  0  0  0  0  0  0
  156.5656  144.4576  182.9848 H   0  0  0  0  0  0  0  0  0  0  0  0
  153.4673  141.9917  183.0884 H   0  0  0  0  0  0  0  0  0  0  0  0
  6  7  1  0  0  0
  7 10  1  0  0  0
 10 11  1  0  0  0
 11 12  2  0  0  0
 12 13  1  0  0  0
 13 14  2  0  0  0
 14 15  1  0  0  0
 14 16  1  0  0  0
 16 17  2  0  0  0
  7  2  1  0  0  0
  2  3  2  0  0  0
  2  4  1  0  0  0
  4  1  1  0  0  0
  1 38  1  0  0  0
 38 39  1  0  0  0
 39 40  1  0  0  0
 40 41  1  0  0  0
 41 43  1  0  0  0
 43 44  1  0  0  0
 43 45  2  0  0  0
  1 19  1  0  0  0
 19 20  2  0  0  0
 19 21  1  0  0  0
 21 23  1  0  0  0
 23 29  1  0  0  0
 29 30  1  0  0  0
 30 31  2  0  0  0
 31 32  1  0  0  0
 32 33  2  0  0  0
 33 34  1  0  0  0
 33 35  1  0  0  0
 35 36  2  0  0  0
 23 24  1  0  0  0
 24 25  1  0  0  0
 24 26  2  0  0  0
 17 11  1  0  0  0
 36 30  1  0  0  0
  6  8  1  0  0  0
  6  9  1  0  0  0
 15 18  1  0  0  0
  4  5  1  0  0  0
 41 42  1  0  0  0
 44 46  1  0  0  0
 44 47  1  0  0  0
 45 48  1  0  0  0
 21 22  1  0  0  0
 34 37  1  0  0  0
 25 27  1  0  0  0
 25 28  1  0  0  0
M  END
> <minimizedAffinity>
-6.96938

> <CNNscore>
0.2701465487

> <CNNaffinity>
5.6093907356

> <CNN_VS>
1.5153574944

> <CNNaffinity_variance>
0.0277566910

$$$$
[H]N=C(N([H])[H])N([H])C([H])([H])C([H])([H])C([H])([H])[C@@]([H])(C(=O)N([H])[C@]([H])(C(=O)N([H])[H])C([H])([H])c1c([H])c([H])c(O[H])c([H])c1[H])N([H])C(=O)[C@@]([H])(N([H])[H])C([H])([H])c1c([H])c([H])c(O[H])c([H])c1[H]


 48 49  0  0  0  0  0  0  0  0999 V2000
  154.7978  139.8783  184.5477 C   0  0  0  0  0  0  0  0  0  0  0  0
  153.3426  140.4145  182.5763 C   0  0  0  0  0  0  0  0  0  0  0  0
  153.8587  141.5527  182.4542 O   0  0  0  0  0  0  0  0  0  0  0  0
  153.7539  139.5234  183.5866 N   0  0  0  0  0  0  0  0  0  0  0  0
  153.3092  138.5773  183.6638 H   0  0  0  0  0  0  0  0  0  0  0  0
  152.8625  139.8084  180.3275 N   0  0  0  0  0  0  0  0  0  0  0  0
  152.2811  140.0082  181.6361 C   0  0  0  0  0  0  0  0  0  0  0  0
  153.3497  140.6695  180.0047 H   0  0  0  0  0  0  0  0  0  0  0  0
  153.5294  139.0138  180.4106 H   0  0  0  0  0  0  0  0  0  0  0  0
  151.6155  138.7182  182.0735 C   0  0  0  0  0  0  0  0  0  0  0  0
  150.3517  138.6124  181.2676 C   0  0  0  0  0  0  0  0  0  0  0  0
  149.2733  139.4302  181.5347 C   0  0  0  0  0  0  0  0  0  0  0  0
  148.1184  139.3209  180.7848 C   0  0  0  0  0  0  0  0  0  0  0  0
  147.9874  138.4125  179.7573 C   0  0  0  0  0  0  0  0  0  0  0  0
  146.8142  138.3373  179.0332 O   0  0  0  0  0  0  0  0  0  0  0  0
  149.0653  137.5933  179.4883 C   0  0  0  0  0  0  0  0  0  0  0  0
  150.2213  137.7038  180.2402 C   0  0  0  0  0  0  0  0  0  0  0  0
  146.6433  138.8701  178.2115 H   0  0  0  0  0  0  0  0  0  0  0  0
  156.0655  140.0139  183.7854 C   0  0  0  0  0  0  0  0  0  0  0  0
  156.5581  139.0020  183.2587 O   0  0  0  0  0  0  0  0  0  0  0  0
  156.7112  141.2625  183.6526 N   0  0  0  0  0  0  0  0  0  0  0  0
  156.2410  142.0924  184.1260 H   0  0  0  0  0  0  0  0  0  0  0  0
  157.9440  141.4492  182.9230 C   0  0  0  0  0  0  0  0  0  0  0  0
  157.8203  141.2421  181.4691 C   0  0  0  0  0  0  0  0  0  0  0  0
  156.5966  141.5692  180.8333 N   0  0  0  0  0  0  0  0  0  0  0  0
  158.7493  140.7869  180.7598 O   0  0  0  0  0  0  0  0  0  0  0  0
  156.5166  142.3861  180.1616 H   0  0  0  0  0  0  0  0  0  0  0  0
  155.7124  141.0343  180.9848 H   0  0  0  0  0  0  0  0  0  0  0  0
  159.0923  140.6932  183.5551 C   0  0  0  0  0  0  0  0  0  0  0  0
  159.7867  141.4596  184.6153 C   0  0  0  0  0  0  0  0  0  0  0  0
  159.2069  141.7257  185.8269 C   0  0  0  0  0  0  0  0  0  0  0  0
  159.9195  142.4500  186.7597 C   0  0  0  0  0  0  0  0  0  0  0  0
  161.1834  142.9198  186.5372 C   0  0  0  0  0  0  0  0  0  0  0  0
  161.8994  143.6523  187.4853 O   0  0  0  0  0  0  0  0  0  0  0  0
  161.7628  142.6503  185.3181 C   0  0  0  0  0  0  0  0  0  0  0  0
  161.0582  141.9275  184.3806 C   0  0  0  0  0  0  0  0  0  0  0  0
  161.8510  144.6617  187.5367 H   0  0  0  0  0  0  0  0  0  0  0  0
  154.9067  138.8786  185.6504 C   0  0  0  0  0  0  0  0  0  0  0  0
  153.6094  138.1287  185.7932 C   0  0  0  0  0  0  0  0  0  0  0  0
  152.8661  138.4271  187.0590 C   0  0  0  0  0  0  0  0  0  0  0  0
  152.6829  137.2160  187.8502 N   0  0  0  0  0  0  0  0  0  0  0  0
  153.2197  137.1206  188.7163 H   0  0  0  0  0  0  0  0  0  0  0  0
  151.7826  136.1898  187.4341 C   0  0  0  0  0  0  0  0  0  0  0  0
  152.3089  134.9941  186.8775 N   0  0  0  0  0  0  0  0  0  0  0  0
  150.5008  136.3060  187.5443 N   0  0  0  0  0  0  0  0  0  0  0  0
  152.1715  134.0455  187.2951 H   0  0  0  0  0  0  0  0  0  0  0  0
  152.8643  135.0982  185.9950 H   0  0  0  0  0  0  0  0  0  0  0  0
  150.1199  137.1800  187.9510 H   0  0  0  0  0  0  0  0  0  0  0  0
  6  7  1  0  0  0
  7 10  1  0  0  0
 10 11  1  0  0  0
 11 12  2  0  0  0
 12 13  1  0  0  0
 13 14  2  0  0  0
 14 15  1  0  0  0
 14 16  1  0  0  0
 16 17  2  0  0  0
  7  2  1  0  0  0
  2  3  2  0  0  0
  2  4  1  0  0  0
  4  1  1  0  0  0
  1 38  1  0  0  0
 38 39  1  0  0  0
 39 40  1  0  0  0
 40 41  1  0  0  0
 41 43  1  0  0  0
 43 44  1  0  0  0
 43 45  2  0  0  0
  1 19  1  0  0  0
 19 20  2  0  0  0
 19 21  1  0  0  0
 21 23  1  0  0  0
 23 29  1  0  0  0
 29 30  1  0  0  0
 30 31  2  0  0  0
 31 32  1  0  0  0
 32 33  2  0  0  0
 33 34  1  0  0  0
 33 35  1  0  0  0
 35 36  2  0  0  0
 23 24  1  0  0  0
 24 25  1  0  0  0
 24 26  2  0  0  0
 17 11  1  0  0  0
 36 30  1  0  0  0
  6  8  1  0  0  0
  6  9  1  0  0  0
 15 18  1  0  0  0
  4  5  1  0  0  0
 41 42  1  0  0  0
 44 46  1  0  0  0
 44 47  1  0  0  0
 45 48  1  0  0  0
 21 22  1  0  0  0
 34 37  1  0  0  0
 25 27  1  0  0  0
 25 28  1  0  0  0
M  END
> <minimizedAffinity>
-7.58681

> <CNNscore>
0.2508716285

> <CNNaffinity>
5.9175338745

> <CNN_VS>
1.4845414162

> <CNNaffinity_variance>
0.0632807389

$$$$
[H]N=C(N([H])[H])N([H])C([H])([H])C([H])([H])C([H])([H])[C@@]([H])(C(=O)N([H])[C@]([H])(C(=O)N([H])[H])C([H])([H])c1c([H])c([H])c(O[H])c([H])c1[H])N([H])C(=O)[C@@]([H])(N([H])[H])C([H])([H])c1c([H])c([H])c(O[H])c([H])c1[H]


 48 49  0  0  0  0  0  0  0  0999 V2000
  153.7844  138.5020  184.6217 C   0  0  0  0  0  0  0  0  0  0  0  0
  152.4281  136.6052  183.6975 C   0  0  0  0  0  0  0  0  0  0  0  0
  151.4275  137.3466  183.5360 O   0  0  0  0  0  0  0  0  0  0  0  0
  153.6351  137.1014  184.2275 N   0  0  0  0  0  0  0  0  0  0  0  0
  154.4566  136.4616  184.3483 H   0  0  0  0  0  0  0  0  0  0  0  0
  151.0461  134.6705  183.7471 N   0  0  0  0  0  0  0  0  0  0  0  0
  152.3295  135.1824  183.3213 C   0  0  0  0  0  0  0  0  0  0  0  0
  150.9165  134.8048  184.7710 H   0  0  0  0  0  0  0  0  0  0  0  0
  150.3204  135.1883  183.2103 H   0  0  0  0  0  0  0  0  0  0  0  0
  152.4537  134.9944  181.8221 C   0  0  0  0  0  0  0  0  0  0  0  0
  153.7870  134.3386  181.5977 C   0  0  0  0  0  0  0  0  0  0  0  0
  154.5192  133.8465  182.6583 C   0  0  0  0  0  0  0  0  0  0  0  0
  155.7433  133.2463  182.4358 C   0  0  0  0  0  0  0  0  0  0  0  0
  156.2823  133.1116  181.1751 C   0  0  0  0  0  0  0  0  0  0  0  0
  157.5098  132.5045  180.9986 O   0  0  0  0  0  0  0  0  0  0  0  0
  155.5513  133.6033  180.1125 C   0  0  0  0  0  0  0  0  0  0  0  0
  154.3255  134.2043  180.3367 C   0  0  0  0  0  0  0  0  0  0  0  0
  157.6205  131.5283  180.8466 H   0  0  0  0  0  0  0  0  0  0  0  0
  154.6446  139.1537  183.6008 C   0  0  0  0  0  0  0  0  0  0  0  0
  154.1588  139.4142  182.4872 O   0  0  0  0  0  0  0  0  0  0  0  0
  155.9911  139.4774  183.8754 N   0  0  0  0  0  0  0  0  0  0  0  0
  156.3501  139.2297  184.8468 H   0  0  0  0  0  0  0  0  0  0  0  0
  156.8699  140.1110  182.9196 C   0  0  0  0  0  0  0  0  0  0  0  0
  158.2645  139.6381  182.9785 C   0  0  0  0  0  0  0  0  0  0  0  0
  159.0071  139.8448  184.1678 N   0  0  0  0  0  0  0  0  0  0  0  0
  158.8330  139.0583  182.0226 O   0  0  0  0  0  0  0  0  0  0  0  0
  159.2934  139.0390  184.7952 H   0  0  0  0  0  0  0  0  0  0  0  0
  159.3132  140.7885  184.4944 H   0  0  0  0  0  0  0  0  0  0  0  0
  156.7314  141.6177  182.9400 C   0  0  0  0  0  0  0  0  0  0  0  0
  157.5730  142.2982  181.9291 C   0  0  0  0  0  0  0  0  0  0  0  0
  157.6353  141.8812  180.6263 C   0  0  0  0  0  0  0  0  0  0  0  0
  158.4472  142.5674  179.7472 C   0  0  0  0  0  0  0  0  0  0  0  0
  159.1983  143.6497  180.1102 C   0  0  0  0  0  0  0  0  0  0  0  0
  160.0180  144.3400  179.2158 O   0  0  0  0  0  0  0  0  0  0  0  0
  159.1329  144.0659  181.4206 C   0  0  0  0  0  0  0  0  0  0  0  0
  158.3247  143.3864  182.3053 C   0  0  0  0  0  0  0  0  0  0  0  0
  160.9867  144.0885  179.0672 H   0  0  0  0  0  0  0  0  0  0  0  0
  154.3412  138.6395  185.9995 C   0  0  0  0  0  0  0  0  0  0  0  0
  153.2471  138.4520  187.0161 C   0  0  0  0  0  0  0  0  0  0  0  0
  153.7211  138.4756  188.4368 C   0  0  0  0  0  0  0  0  0  0  0  0
  153.2245  137.3159  189.1683 N   0  0  0  0  0  0  0  0  0  0  0  0
  152.2394  137.3070  189.4456 H   0  0  0  0  0  0  0  0  0  0  0  0
  154.0824  136.2220  189.4912 C   0  0  0  0  0  0  0  0  0  0  0  0
  154.9958  135.7491  188.5121 N   0  0  0  0  0  0  0  0  0  0  0  0
  154.0609  135.6417  190.6451 N   0  0  0  0  0  0  0  0  0  0  0  0
  156.0345  135.7548  188.6312 H   0  0  0  0  0  0  0  0  0  0  0  0
  154.5759  135.3777  187.6267 H   0  0  0  0  0  0  0  0  0  0  0  0
  153.3930  135.9893  191.3573 H   0  0  0  0  0  0  0  0  0  0  0  0
  6  7  1  0  0  0
  7 10  1  0  0  0
 10 11  1  0  0  0
 11 12  2  0  0  0
 12 13  1  0  0  0
 13 14  2  0  0  0
 14 15  1  0  0  0
 14 16  1  0  0  0
 16 17  2  0  0  0
  7  2  1  0  0  0
  2  3  2  0  0  0
  2  4  1  0  0  0
  4  1  1  0  0  0
  1 38  1  0  0  0
 38 39  1  0  0  0
 39 40  1  0  0  0
 40 41  1  0  0  0
 41 43  1  0  0  0
 43 44  1  0  0  0
 43 45  2  0  0  0
  1 19  1  0  0  0
 19 20  2  0  0  0
 19 21  1  0  0  0
 21 23  1  0  0  0
 23 29  1  0  0  0
 29 30  1  0  0  0
 30 31  2  0  0  0
 31 32  1  0  0  0
 32 33  2  0  0  0
 33 34  1  0  0  0
 33 35  1  0  0  0
 35 36  2  0  0  0
 23 24  1  0  0  0
 24 25  1  0  0  0
 24 26  2  0  0  0
 17 11  1  0  0  0
 36 30  1  0  0  0
  6  8  1  0  0  0
  6  9  1  0  0  0
 15 18  1  0  0  0
  4  5  1  0  0  0
 41 42  1  0  0  0
 44 46  1  0  0  0
 44 47  1  0  0  0
 45 48  1  0  0  0
 21 22  1  0  0  0
 34 37  1  0  0  0
 25 27  1  0  0  0
 25 28  1  0  0  0
M  END
> <minimizedAffinity>
-6.55035

> <CNNscore>
0.2467293888

> <CNNaffinity>
5.8433794975

> <CNN_VS>
1.4417334795

> <CNNaffinity_variance>
0.0700960606

$$$$
[H]OC(=O)[C@@]([H])(N([H])C(=O)[C@@]([H])(N([H])C(=O)OC([H])([H])c1c([H])c([H])c([H])c([H])c1[H])C([H])(c1c([H])c([H])c([H])c([H])c1[H])c1c([H])c([H])c([H])c([H])c1[H])C([H])([H])[H]


 36 38  0  0  0  0  0  0  0  0999 V2000
  153.0317  138.3572  183.9819 C   0  0  0  0  0  0  0  0  0  0  0  0
  152.7788  135.9422  183.1799 N   0  0  0  0  0  0  0  0  0  0  0  0
  152.3987  137.0490  183.9444 C   0  0  0  0  0  0  0  0  0  0  0  0
  151.3661  136.8758  184.6922 O   0  0  0  0  0  0  0  0  0  0  0  0
  153.5818  135.9032  182.5172 H   0  0  0  0  0  0  0  0  0  0  0  0
  151.2369  134.6332  181.9250 C   0  0  0  0  0  0  0  0  0  0  0  0
  152.0397  134.6738  183.2330 C   0  0  0  0  0  0  0  0  0  0  0  0
  152.8884  133.5016  183.3848 C   0  0  0  0  0  0  0  0  0  0  0  0
  154.1997  133.6187  183.8106 O   0  0  0  0  0  0  0  0  0  0  0  0
  152.4497  132.3589  183.1328 O   0  0  0  0  0  0  0  0  0  0  0  0
  154.9440  134.0005  183.2436 H   0  0  0  0  0  0  0  0  0  0  0  0
  154.3017  138.2529  184.7445 N   0  0  0  0  0  0  0  0  0  0  0  0
  154.3685  138.3278  186.1434 C   0  0  0  0  0  0  0  0  0  0  0  0
  153.3378  138.4821  186.8231 O   0  0  0  0  0  0  0  0  0  0  0  0
  155.1766  138.1174  184.1988 H   0  0  0  0  0  0  0  0  0  0  0  0
  155.5876  138.2305  186.7782 O   0  0  0  0  0  0  0  0  0  0  0  0
  156.1154  137.0229  187.2361 C   0  0  0  0  0  0  0  0  0  0  0  0
  156.1914  137.0360  188.7335 C   0  0  0  0  0  0  0  0  0  0  0  0
  155.9618  138.2322  189.3640 C   0  0  0  0  0  0  0  0  0  0  0  0
  156.0198  138.2980  190.7408 C   0  0  0  0  0  0  0  0  0  0  0  0
  156.3093  137.1493  191.4414 C   0  0  0  0  0  0  0  0  0  0  0  0
  156.5379  135.9562  190.8033 C   0  0  0  0  0  0  0  0  0  0  0  0
  156.4799  135.8918  189.4361 C   0  0  0  0  0  0  0  0  0  0  0  0
  153.3848  139.0112  182.7117 C   0  0  0  0  0  0  0  0  0  0  0  0
  154.1674  140.2653  182.9769 C   0  0  0  0  0  0  0  0  0  0  0  0
  155.5656  140.2108  183.0467 C   0  0  0  0  0  0  0  0  0  0  0  0
  156.3031  141.3488  183.2769 C   0  0  0  0  0  0  0  0  0  0  0  0
  155.6760  142.5701  183.4440 C   0  0  0  0  0  0  0  0  0  0  0  0
  154.3034  142.6651  183.3825 C   0  0  0  0  0  0  0  0  0  0  0  0
  153.5974  141.4933  183.1485 C   0  0  0  0  0  0  0  0  0  0  0  0
  152.3559  139.2451  181.7069 C   0  0  0  0  0  0  0  0  0  0  0  0
  151.0195  139.0929  181.9726 C   0  0  0  0  0  0  0  0  0  0  0  0
  150.0282  139.3368  181.0106 C   0  0  0  0  0  0  0  0  0  0  0  0
  150.3869  139.7452  179.7451 C   0  0  0  0  0  0  0  0  0  0  0  0
  151.7302  139.9029  179.4618 C   0  0  0  0  0  0  0  0  0  0  0  0
  152.6902  139.6606  180.4130 C   0  0  0  0  0  0  0  0  0  0  0  0
  6  7  1  0  0  0
  7  2  1  0  0  0
  2  3  1  0  0  0
  3  4  2  0  0  0
  3  1  1  0  0  0
  1 12  1  0  0  0
 12 13  1  0  0  0
 13 14  2  0  0  0
 13 16  1  0  0  0
 16 17  1  0  0  0
 17 18  1  0  0  0
 18 19  2  0  0  0
 19 20  1  0  0  0
 20 21  2  0  0  0
 21 22  1  0  0  0
 22 23  2  0  0  0
  1 24  1  0  0  0
 24 25  1  0  0  0
 25 26  2  0  0  0
 26 27  1  0  0  0
 27 28  2  0  0  0
 28 29  1  0  0  0
 29 30  2  0  0  0
 24 31  1  0  0  0
 31 32  2  0  0  0
 32 33  1  0  0  0
 33 34  2  0  0  0
 34 35  1  0  0  0
 35 36  2  0  0  0
  7  8  1  0  0  0
  8  9  1  0  0  0
  8 10  2  0  0  0
 23 18  1  0  0  0
 30 25  1  0  0  0
 36 31  1  0  0  0
  2  5  1  0  0  0
 12 15  1  0  0  0
  9 11  1  0  0  0
M  END
> <minimizedAffinity>
-6.93223

> <CNNscore>
0.3907256722

> <CNNaffinity>
5.4332451820

> <CNN_VS>
2.1229083538

> <CNNaffinity_variance>
0.1107721776

$$$$
[H]OC(=O)[C@@]([H])(N([H])C(=O)[C@@]([H])(N([H])C(=O)OC([H])([H])c1c([H])c([H])c([H])c([H])c1[H])C([H])(c1c([H])c([H])c([H])c([H])c1[H])c1c([H])c([H])c([H])c([H])c1[H])C([H])([H])[H]


 36 38  0  0  0  0  0  0  0  0999 V2000
  154.0075  139.5432  184.0776 C   0  0  0  0  0  0  0  0  0  0  0  0
  154.1868  137.5923  185.7211 N   0  0  0  0  0  0  0  0  0  0  0  0
  154.0754  138.1366  184.4384 C   0  0  0  0  0  0  0  0  0  0  0  0
  154.0336  137.2822  183.4772 O   0  0  0  0  0  0  0  0  0  0  0  0
  154.2403  138.1306  186.6114 H   0  0  0  0  0  0  0  0  0  0  0  0
  155.3380  135.9595  187.0150 C   0  0  0  0  0  0  0  0  0  0  0  0
  154.2538  136.1417  185.9435 C   0  0  0  0  0  0  0  0  0  0  0  0
  152.9883  135.5469  186.3461 C   0  0  0  0  0  0  0  0  0  0  0  0
  151.9070  136.3359  186.6969 O   0  0  0  0  0  0  0  0  0  0  0  0
  152.8499  134.3056  186.3842 O   0  0  0  0  0  0  0  0  0  0  0  0
  151.8525  136.8676  187.5546 H   0  0  0  0  0  0  0  0  0  0  0  0
  155.1768  140.2453  184.6649 N   0  0  0  0  0  0  0  0  0  0  0  0
  156.4917  139.7676  184.5654 C   0  0  0  0  0  0  0  0  0  0  0  0
  156.7413  138.7105  183.9586 O   0  0  0  0  0  0  0  0  0  0  0  0
  154.9945  141.1348  185.1720 H   0  0  0  0  0  0  0  0  0  0  0  0
  157.5236  140.4731  185.1451 O   0  0  0  0  0  0  0  0  0  0  0  0
  157.9060  141.7481  184.7270 C   0  0  0  0  0  0  0  0  0  0  0  0
  159.3062  142.0337  185.1808 C   0  0  0  0  0  0  0  0  0  0  0  0
  159.4855  142.3552  186.5020 C   0  0  0  0  0  0  0  0  0  0  0  0
  160.7545  142.6270  186.9703 C   0  0  0  0  0  0  0  0  0  0  0  0
  161.8075  142.5656  186.0863 C   0  0  0  0  0  0  0  0  0  0  0  0
  161.6201  142.2431  184.7658 C   0  0  0  0  0  0  0  0  0  0  0  0
  160.3597  141.9734  184.3018 C   0  0  0  0  0  0  0  0  0  0  0  0
  153.9996  139.9105  182.6524 C   0  0  0  0  0  0  0  0  0  0  0  0
  154.5308  141.3041  182.4756 C   0  0  0  0  0  0  0  0  0  0  0  0
  155.7875  141.5000  181.8882 C   0  0  0  0  0  0  0  0  0  0  0  0
  156.2886  142.7679  181.7059 C   0  0  0  0  0  0  0  0  0  0  0  0
  155.5590  143.8747  182.1001 C   0  0  0  0  0  0  0  0  0  0  0  0
  154.3196  143.7239  182.6814 C   0  0  0  0  0  0  0  0  0  0  0  0
  153.8513  142.4279  182.8470 C   0  0  0  0  0  0  0  0  0  0  0  0
  152.7934  139.7111  181.8597 C   0  0  0  0  0  0  0  0  0  0  0  0
  152.7499  139.9558  180.5115 C   0  0  0  0  0  0  0  0  0  0  0  0
  151.5940  139.7453  179.7451 C   0  0  0  0  0  0  0  0  0  0  0  0
  150.4481  139.2759  180.3480 C   0  0  0  0  0  0  0  0  0  0  0  0
  150.4761  139.0246  181.7065 C   0  0  0  0  0  0  0  0  0  0  0  0
  151.6144  139.2351  182.4447 C   0  0  0  0  0  0  0  0  0  0  0  0
  6  7  1  0  0  0
  7  2  1  0  0  0
  2  3  1  0  0  0
  3  4  2  0  0  0
  3  1  1  0  0  0
  1 12  1  0  0  0
 12 13  1  0  0  0
 13 14  2  0  0  0
 13 16  1  0  0  0
 16 17  1  0  0  0
 17 18  1  0  0  0
 18 19  2  0  0  0
 19 20  1  0  0  0
 20 21  2  0  0  0
 21 22  1  0  0  0
 22 23  2  0  0  0
  1 24  1  0  0  0
 24 25  1  0  0  0
 25 26  2  0  0  0
 26 27  1  0  0  0
 27 28  2  0  0  0
 28 29  1  0  0  0
 29 30  2  0  0  0
 24 31  1  0  0  0
 31 32  2  0  0  0
 32 33  1  0  0  0
 33 34  2  0  0  0
 34 35  1  0  0  0
 35 36  2  0  0  0
  7  8  1  0  0  0
  8  9  1  0  0  0
  8 10  2  0  0  0
 23 18  1  0  0  0
 30 25  1  0  0  0
 36 31  1  0  0  0
  2  5  1  0  0  0
 12 15  1  0  0  0
  9 11  1  0  0  0
M  END
> <minimizedAffinity>
-7.73863

> <CNNscore>
0.3097752631

> <CNNaffinity>
5.8835191727

> <CNN_VS>
1.8225686550

> <CNNaffinity_variance>
0.0722858906

$$$$
[H]OC(=O)[C@@]([H])(N([H])C(=O)[C@@]([H])(N([H])C(=O)OC([H])([H])c1c([H])c([H])c([H])c([H])c1[H])C([H])(c1c([H])c([H])c([H])c([H])c1[H])c1c([H])c([H])c([H])c([H])c1[H])C([H])([H])[H]


 36 38  0  0  0  0  0  0  0  0999 V2000
  154.0950  138.7541  183.4238 C   0  0  0  0  0  0  0  0  0  0  0  0
  153.9330  138.1394  185.9007 N   0  0  0  0  0  0  0  0  0  0  0  0
  154.6060  138.6330  184.7793 C   0  0  0  0  0  0  0  0  0  0  0  0
  155.8136  139.0251  184.9878 O   0  0  0  0  0  0  0  0  0  0  0  0
  152.9530  137.7864  185.9196 H   0  0  0  0  0  0  0  0  0  0  0  0
  153.4837  138.5425  188.2032 C   0  0  0  0  0  0  0  0  0  0  0  0
  154.5709  138.0802  187.2227 C   0  0  0  0  0  0  0  0  0  0  0  0
  155.0903  136.7659  187.5695 C   0  0  0  0  0  0  0  0  0  0  0  0
  154.2488  135.7555  188.0002 O   0  0  0  0  0  0  0  0  0  0  0  0
  156.3127  136.5202  187.4856 O   0  0  0  0  0  0  0  0  0  0  0  0
  153.8013  135.7431  188.9062 H   0  0  0  0  0  0  0  0  0  0  0  0
  153.1237  137.6578  183.1784 N   0  0  0  0  0  0  0  0  0  0  0  0
  153.4365  136.3006  183.3427 C   0  0  0  0  0  0  0  0  0  0  0  0
  154.5695  135.9487  183.7177 O   0  0  0  0  0  0  0  0  0  0  0  0
  152.1677  137.9270  182.8700 H   0  0  0  0  0  0  0  0  0  0  0  0
  152.4817  135.3407  183.0868 O   0  0  0  0  0  0  0  0  0  0  0  0
  152.2899  134.7715  181.8275 C   0  0  0  0  0  0  0  0  0  0  0  0
  153.4528  133.8889  181.4856 C   0  0  0  0  0  0  0  0  0  0  0  0
  154.2321  134.2607  180.4200 C   0  0  0  0  0  0  0  0  0  0  0  0
  155.3143  133.4828  180.0640 C   0  0  0  0  0  0  0  0  0  0  0  0
  155.5773  132.3486  180.7979 C   0  0  0  0  0  0  0  0  0  0  0  0
  154.7929  131.9831  181.8628 C   0  0  0  0  0  0  0  0  0  0  0  0
  153.7185  132.7564  182.2156 C   0  0  0  0  0  0  0  0  0  0  0  0
  153.4013  139.9925  183.0350 C   0  0  0  0  0  0  0  0  0  0  0  0
  152.4228  139.7112  181.9309 C   0  0  0  0  0  0  0  0  0  0  0  0
  151.1454  139.2266  182.2405 C   0  0  0  0  0  0  0  0  0  0  0  0
  150.2293  138.9731  181.2462 C   0  0  0  0  0  0  0  0  0  0  0  0
  150.5538  139.1928  179.9199 C   0  0  0  0  0  0  0  0  0  0  0  0
  151.7994  139.6685  179.5746 C   0  0  0  0  0  0  0  0  0  0  0  0
  152.6934  139.9109  180.6082 C   0  0  0  0  0  0  0  0  0  0  0  0
  154.1721  141.1957  182.7504 C   0  0  0  0  0  0  0  0  0  0  0  0
  153.6378  142.4540  182.8544 C   0  0  0  0  0  0  0  0  0  0  0  0
  154.3857  143.6129  182.5991 C   0  0  0  0  0  0  0  0  0  0  0  0
  155.7080  143.5075  182.2284 C   0  0  0  0  0  0  0  0  0  0  0  0
  156.2610  142.2458  182.1190 C   0  0  0  0  0  0  0  0  0  0  0  0
  155.5174  141.1197  182.3719 C   0  0  0  0  0  0  0  0  0  0  0  0
  6  7  1  0  0  0
  7  2  1  0  0  0
  2  3  1  0  0  0
  3  4  2  0  0  0
  3  1  1  0  0  0
  1 12  1  0  0  0
 12 13  1  0  0  0
 13 14  2  0  0  0
 13 16  1  0  0  0
 16 17  1  0  0  0
 17 18  1  0  0  0
 18 19  2  0  0  0
 19 20  1  0  0  0
 20 21  2  0  0  0
 21 22  1  0  0  0
 22 23  2  0  0  0
  1 24  1  0  0  0
 24 25  1  0  0  0
 25 26  2  0  0  0
 26 27  1  0  0  0
 27 28  2  0  0  0
 28 29  1  0  0  0
 29 30  2  0  0  0
 24 31  1  0  0  0
 31 32  2  0  0  0
 32 33  1  0  0  0
 33 34  2  0  0  0
 34 35  1  0  0  0
 35 36  2  0  0  0
  7  8  1  0  0  0
  8  9  1  0  0  0
  8 10  2  0  0  0
 23 18  1  0  0  0
 30 25  1  0  0  0
 36 31  1  0  0  0
  2  5  1  0  0  0
 12 15  1  0  0  0
  9 11  1  0  0  0
M  END
> <minimizedAffinity>
-6.73174

> <CNNscore>
0.2715594769

> <CNNaffinity>
5.5766801834

> <CNN_VS>
1.5144003630

> <CNNaffinity_variance>
0.1580773592

$$$$
[H]OC(=O)[C@@]([H])(N([H])C(=O)[C@@]([H])(N([H])C(=O)OC([H])([H])c1c([H])c([H])c([H])c([H])c1[H])C([H])(c1c([H])c([H])c([H])c([H])c1[H])c1c([H])c([H])c([H])c([H])c1[H])C([H])([H])[H]


 36 38  0  0  0  0  0  0  0  0999 V2000
  157.4502  141.2113  184.4993 C   0  0  0  0  0  0  0  0  0  0  0  0
  155.0947  142.0832  184.0190 N   0  0  0  0  0  0  0  0  0  0  0  0
  156.2363  141.3383  183.7095 C   0  0  0  0  0  0  0  0  0  0  0  0
  156.1907  140.6935  182.5970 O   0  0  0  0  0  0  0  0  0  0  0  0
  154.9533  142.6583  184.8761 H   0  0  0  0  0  0  0  0  0  0  0  0
  154.2385  143.2296  182.1168 C   0  0  0  0  0  0  0  0  0  0  0  0
  153.9272  142.1171  183.1279 C   0  0  0  0  0  0  0  0  0  0  0  0
  153.6491  140.8491  182.4704 C   0  0  0  0  0  0  0  0  0  0  0  0
  153.5016  139.6827  183.2000 O   0  0  0  0  0  0  0  0  0  0  0  0
  153.5371  140.7858  181.2274 O   0  0  0  0  0  0  0  0  0  0  0  0
  154.2658  139.2022  183.6544 H   0  0  0  0  0  0  0  0  0  0  0  0
  157.5002  139.8473  185.0845 N   0  0  0  0  0  0  0  0  0  0  0  0
  156.3638  139.1612  185.5370 C   0  0  0  0  0  0  0  0  0  0  0  0
  155.2345  139.6777  185.4588 O   0  0  0  0  0  0  0  0  0  0  0  0
  158.4325  139.3918  185.1548 H   0  0  0  0  0  0  0  0  0  0  0  0
  156.4934  137.8998  186.0761 O   0  0  0  0  0  0  0  0  0  0  0  0
  155.4832  137.2750  186.8079 C   0  0  0  0  0  0  0  0  0  0  0  0
  155.5677  137.6875  188.2469 C   0  0  0  0  0  0  0  0  0  0  0  0
  154.4998  138.3721  188.7683 C   0  0  0  0  0  0  0  0  0  0  0  0
  154.5277  138.7745  190.0876 C   0  0  0  0  0  0  0  0  0  0  0  0
  155.6378  138.4721  190.8428 C   0  0  0  0  0  0  0  0  0  0  0  0
  156.7025  137.7867  190.3140 C   0  0  0  0  0  0  0  0  0  0  0  0
  156.6737  137.3875  189.0038 C   0  0  0  0  0  0  0  0  0  0  0  0
  158.7504  141.4068  183.8382 C   0  0  0  0  0  0  0  0  0  0  0  0
  159.7704  141.8785  184.8345 C   0  0  0  0  0  0  0  0  0  0  0  0
  161.1216  141.9415  184.4699 C   0  0  0  0  0  0  0  0  0  0  0  0
  162.0711  142.3815  185.3625 C   0  0  0  0  0  0  0  0  0  0  0  0
  161.7080  142.7704  186.6390 C   0  0  0  0  0  0  0  0  0  0  0  0
  160.3900  142.7229  187.0358 C   0  0  0  0  0  0  0  0  0  0  0  0
  159.4643  142.2730  186.1047 C   0  0  0  0  0  0  0  0  0  0  0  0
  158.8282  142.1850  182.6088 C   0  0  0  0  0  0  0  0  0  0  0  0
  158.7534  143.5538  182.5983 C   0  0  0  0  0  0  0  0  0  0  0  0
  158.8477  144.3038  181.4166 C   0  0  0  0  0  0  0  0  0  0  0  0
  159.0219  143.6628  180.2101 C   0  0  0  0  0  0  0  0  0  0  0  0
  159.0990  142.2831  180.2043 C   0  0  0  0  0  0  0  0  0  0  0  0
  159.0051  141.5613  181.3684 C   0  0  0  0  0  0  0  0  0  0  0  0
  6  7  1  0  0  0
  7  2  1  0  0  0
  2  3  1  0  0  0
  3  4  2  0  0  0
  3  1  1  0  0  0
  1 12  1  0  0  0
 12 13  1  0  0  0
 13 14  2  0  0  0
 13 16  1  0  0  0
 16 17  1  0  0  0
 17 18  1  0  0  0
 18 19  2  0  0  0
 19 20  1  0  0  0
 20 21  2  0  0  0
 21 22  1  0  0  0
 22 23  2  0  0  0
  1 24  1  0  0  0
 24 25  1  0  0  0
 25 26  2  0  0  0
 26 27  1  0  0  0
 27 28  2  0  0  0
 28 29  1  0  0  0
 29 30  2  0  0  0
 24 31  1  0  0  0
 31 32  2  0  0  0
 32 33  1  0  0  0
 33 34  2  0  0  0
 34 35  1  0  0  0
 35 36  2  0  0  0
  7  8  1  0  0  0
  8  9  1  0  0  0
  8 10  2  0  0  0
 23 18  1  0  0  0
 30 25  1  0  0  0
 36 31  1  0  0  0
  2  5  1  0  0  0
 12 15  1  0  0  0
  9 11  1  0  0  0
M  END
> <minimizedAffinity>
-9.43378

> <CNNscore>
0.2581733465

> <CNNaffinity>
6.2896585464

> <CNN_VS>
1.6238222122

> <CNNaffinity_variance>
0.0215970688

$$$$
[H]OC(=O)[C@@]([H])(N([H])C(=O)[C@@]([H])(N([H])C(=O)OC([H])([H])c1c([H])c([H])c([H])c([H])c1[H])C([H])(c1c([H])c([H])c([H])c([H])c1[H])c1c([H])c([H])c([H])c([H])c1[H])C([H])([H])[H]


 36 38  0  0  0  0  0  0  0  0999 V2000
  152.9322  137.2196  186.6200 C   0  0  0  0  0  0  0  0  0  0  0  0
  153.0135  135.7133  184.5551 N   0  0  0  0  0  0  0  0  0  0  0  0
  152.3434  136.4374  185.5454 C   0  0  0  0  0  0  0  0  0  0  0  0
  151.0587  136.4010  185.4827 O   0  0  0  0  0  0  0  0  0  0  0  0
  154.0468  135.6358  184.4476 H   0  0  0  0  0  0  0  0  0  0  0  0
  152.8767  135.4717  182.1911 C   0  0  0  0  0  0  0  0  0  0  0  0
  152.2891  134.9680  183.5169 C   0  0  0  0  0  0  0  0  0  0  0  0
  152.3974  133.5224  183.6435 C   0  0  0  0  0  0  0  0  0  0  0  0
  153.1897  132.9478  184.6216 O   0  0  0  0  0  0  0  0  0  0  0  0
  151.7749  132.7654  182.8683 O   0  0  0  0  0  0  0  0  0  0  0  0
  154.2001  132.9542  184.6036 H   0  0  0  0  0  0  0  0  0  0  0  0
  152.7109  136.5100  187.9056 N   0  0  0  0  0  0  0  0  0  0  0  0
  152.9886  135.1479  188.0911 C   0  0  0  0  0  0  0  0  0  0  0  0
  153.4510  134.4597  187.1633 O   0  0  0  0  0  0  0  0  0  0  0  0
  152.3308  137.0654  188.6984 H   0  0  0  0  0  0  0  0  0  0  0  0
  152.7482  134.5590  189.3135 O   0  0  0  0  0  0  0  0  0  0  0  0
  153.6542  134.6035  190.3735 C   0  0  0  0  0  0  0  0  0  0  0  0
  153.0262  135.2867  191.5513 C   0  0  0  0  0  0  0  0  0  0  0  0
  153.2410  134.7326  192.7874 C   0  0  0  0  0  0  0  0  0  0  0  0
  152.6852  135.3227  193.9037 C   0  0  0  0  0  0  0  0  0  0  0  0
  151.9264  136.4587  193.7367 C   0  0  0  0  0  0  0  0  0  0  0  0
  151.7160  137.0071  192.4965 C   0  0  0  0  0  0  0  0  0  0  0  0
  152.2684  136.4204  191.3887 C   0  0  0  0  0  0  0  0  0  0  0  0
  154.3729  137.5166  186.5741 C   0  0  0  0  0  0  0  0  0  0  0  0
  154.8979  137.7420  187.9631 C   0  0  0  0  0  0  0  0  0  0  0  0
  156.0582  137.0792  188.3840 C   0  0  0  0  0  0  0  0  0  0  0  0
  156.5633  137.2796  189.6476 C   0  0  0  0  0  0  0  0  0  0  0  0
  155.9333  138.1410  190.5273 C   0  0  0  0  0  0  0  0  0  0  0  0
  154.7903  138.8111  190.1512 C   0  0  0  0  0  0  0  0  0  0  0  0
  154.3143  138.5804  188.8680 C   0  0  0  0  0  0  0  0  0  0  0  0
  154.8740  138.5338  185.6592 C   0  0  0  0  0  0  0  0  0  0  0  0
  154.0483  139.2521  184.8334 C   0  0  0  0  0  0  0  0  0  0  0  0
  154.5289  140.2449  183.9667 C   0  0  0  0  0  0  0  0  0  0  0  0
  155.8766  140.5257  183.9264 C   0  0  0  0  0  0  0  0  0  0  0  0
  156.7218  139.8100  184.7528 C   0  0  0  0  0  0  0  0  0  0  0  0
  156.2380  138.8409  185.5964 C   0  0  0  0  0  0  0  0  0  0  0  0
  6  7  1  0  0  0
  7  2  1  0  0  0
  2  3  1  0  0  0
  3  4  2  0  0  0
  3  1  1  0  0  0
  1 12  1  0  0  0
 12 13  1  0  0  0
 13 14  2  0  0  0
 13 16  1  0  0  0
 16 17  1  0  0  0
 17 18  1  0  0  0
 18 19  2  0  0  0
 19 20  1  0  0  0
 20 21  2  0  0  0
 21 22  1  0  0  0
 22 23  2  0  0  0
  1 24  1  0  0  0
 24 25  1  0  0  0
 25 26  2  0  0  0
 26 27  1  0  0  0
 27 28  2  0  0  0
 28 29  1  0  0  0
 29 30  2  0  0  0
 24 31  1  0  0  0
 31 32  2  0  0  0
 32 33  1  0  0  0
 33 34  2  0  0  0
 34 35  1  0  0  0
 35 36  2  0  0  0
  7  8  1  0  0  0
  8  9  1  0  0  0
  8 10  2  0  0  0
 23 18  1  0  0  0
 30 25  1  0  0  0
 36 31  1  0  0  0
  2  5  1  0  0  0
 12 15  1  0  0  0
  9 11  1  0  0  0
M  END
> <minimizedAffinity>
-6.38289

> <CNNscore>
0.2389623970

> <CNNaffinity>
5.1873140335

> <CNN_VS>
1.2395730019

> <CNNaffinity_variance>
0.1232865304

$$$$
[H]OC(=O)[C@@]([H])(N([H])C(=O)[C@@]([H])(N([H])C(=O)OC([H])([H])c1c([H])c([H])c([H])c([H])c1[H])C([H])(c1c([H])c([H])c([H])c([H])c1[H])c1c([H])c([H])c([H])c([H])c1[H])C([H])([H])[H]


 36 38  0  0  0  0  0  0  0  0999 V2000
  153.5656  138.5523  185.1911 C   0  0  0  0  0  0  0  0  0  0  0  0
  154.5789  138.0287  187.4799 N   0  0  0  0  0  0  0  0  0  0  0  0
  153.5100  138.3053  186.6226 C   0  0  0  0  0  0  0  0  0  0  0  0
  152.3499  138.3373  187.1784 O   0  0  0  0  0  0  0  0  0  0  0  0
  155.5811  137.9575  187.2045 H   0  0  0  0  0  0  0  0  0  0  0  0
  154.2629  136.2643  189.0460 C   0  0  0  0  0  0  0  0  0  0  0  0
  154.3784  137.7897  188.9154 C   0  0  0  0  0  0  0  0  0  0  0  0
  155.4366  138.3273  189.7571 C   0  0  0  0  0  0  0  0  0  0  0  0
  155.1451  138.9884  190.9372 O   0  0  0  0  0  0  0  0  0  0  0  0
  156.6366  138.2034  189.4311 O   0  0  0  0  0  0  0  0  0  0  0  0
  154.7353  139.9112  190.9794 H   0  0  0  0  0  0  0  0  0  0  0  0
  154.9698  138.3988  184.7329 N   0  0  0  0  0  0  0  0  0  0  0  0
  155.7652  139.4752  184.3137 C   0  0  0  0  0  0  0  0  0  0  0  0
  155.3179  140.6363  184.3146 O   0  0  0  0  0  0  0  0  0  0  0  0
  155.3686  137.4383  184.7290 H   0  0  0  0  0  0  0  0  0  0  0  0
  157.0582  139.2502  183.8942 O   0  0  0  0  0  0  0  0  0  0  0  0
  158.1066  140.1365  184.1433 C   0  0  0  0  0  0  0  0  0  0  0  0
  158.3880  140.9496  182.9154 C   0  0  0  0  0  0  0  0  0  0  0  0
  158.2626  140.3210  181.7029 C   0  0  0  0  0  0  0  0  0  0  0  0
  158.5103  141.0248  180.5424 C   0  0  0  0  0  0  0  0  0  0  0  0
  158.8788  142.3470  180.6425 C   0  0  0  0  0  0  0  0  0  0  0  0
  159.0023  142.9690  181.8595 C   0  0  0  0  0  0  0  0  0  0  0  0
  158.7559  142.2693  183.0112 C   0  0  0  0  0  0  0  0  0  0  0  0
  152.7613  137.7076  184.2936 C   0  0  0  0  0  0  0  0  0  0  0  0
  153.4565  136.3974  184.0574 C   0  0  0  0  0  0  0  0  0  0  0  0
  153.6633  135.9461  182.7474 C   0  0  0  0  0  0  0  0  0  0  0  0
  154.3080  134.7550  182.5075 C   0  0  0  0  0  0  0  0  0  0  0  0
  154.7645  133.9796  183.5578 C   0  0  0  0  0  0  0  0  0  0  0  0
  154.5804  134.3886  184.8600 C   0  0  0  0  0  0  0  0  0  0  0  0
  153.9254  135.5962  185.0578 C   0  0  0  0  0  0  0  0  0  0  0  0
  152.2532  138.2574  183.0437 C   0  0  0  0  0  0  0  0  0  0  0  0
  151.0650  137.8541  182.4913 C   0  0  0  0  0  0  0  0  0  0  0  0
  150.5668  138.3976  181.2979 C   0  0  0  0  0  0  0  0  0  0  0  0
  151.2805  139.3740  180.6390 C   0  0  0  0  0  0  0  0  0  0  0  0
  152.4802  139.7910  181.1832 C   0  0  0  0  0  0  0  0  0  0  0  0
  152.9563  139.2504  182.3521 C   0  0  0  0  0  0  0  0  0  0  0  0
  6  7  1  0  0  0
  7  2  1  0  0  0
  2  3  1  0  0  0
  3  4  2  0  0  0
  3  1  1  0  0  0
  1 12  1  0  0  0
 12 13  1  0  0  0
 13 14  2  0  0  0
 13 16  1  0  0  0
 16 17  1  0  0  0
 17 18  1  0  0  0
 18 19  2  0  0  0
 19 20  1  0  0  0
 20 21  2  0  0  0
 21 22  1  0  0  0
 22 23  2  0  0  0
  1 24  1  0  0  0
 24 25  1  0  0  0
 25 26  2  0  0  0
 26 27  1  0  0  0
 27 28  2  0  0  0
 28 29  1  0  0  0
 29 30  2  0  0  0
 24 31  1  0  0  0
 31 32  2  0  0  0
 32 33  1  0  0  0
 33 34  2  0  0  0
 34 35  1  0  0  0
 35 36  2  0  0  0
  7  8  1  0  0  0
  8  9  1  0  0  0
  8 10  2  0  0  0
 23 18  1  0  0  0
 30 25  1  0  0  0
 36 31  1  0  0  0
  2  5  1  0  0  0
 12 15  1  0  0  0
  9 11  1  0  0  0
M  END
> <minimizedAffinity>
-6.90045

> <CNNscore>
0.2376164198

> <CNNaffinity>
5.5837502480

> <CNN_VS>
1.3267906904

> <CNNaffinity_variance>
0.0942765772

$$$$
[H]OC(=O)[C@@]([H])(N([H])C(=O)[C@@]([H])(N([H])C(=O)OC([H])([H])c1c([H])c([H])c([H])c([H])c1[H])C([H])(c1c([H])c([H])c([H])c([H])c1[H])c1c([H])c([H])c([H])c([H])c1[H])C([H])([H])[H]


 36 38  0  0  0  0  0  0  0  0999 V2000
  154.1033  136.6601  184.9598 C   0  0  0  0  0  0  0  0  0  0  0  0
  155.0485  134.6020  186.1472 N   0  0  0  0  0  0  0  0  0  0  0  0
  154.0102  135.4617  185.7773 C   0  0  0  0  0  0  0  0  0  0  0  0
  152.8438  135.1397  186.2148 O   0  0  0  0  0  0  0  0  0  0  0  0
  156.0505  134.7027  185.8802 H   0  0  0  0  0  0  0  0  0  0  0  0
  155.5502  132.2777  186.2549 C   0  0  0  0  0  0  0  0  0  0  0  0
  154.8110  133.4131  186.9769 C   0  0  0  0  0  0  0  0  0  0  0  0
  155.2532  133.5573  188.3557 C   0  0  0  0  0  0  0  0  0  0  0  0
  156.1556  132.6691  188.9136 O   0  0  0  0  0  0  0  0  0  0  0  0
  154.8257  134.4901  189.0689 O   0  0  0  0  0  0  0  0  0  0  0  0
  155.9293  131.7146  189.1570 H   0  0  0  0  0  0  0  0  0  0  0  0
  152.9775  136.6680  183.9914 N   0  0  0  0  0  0  0  0  0  0  0  0
  152.9871  135.9392  182.7932 C   0  0  0  0  0  0  0  0  0  0  0  0
  153.9629  135.2309  182.4861 O   0  0  0  0  0  0  0  0  0  0  0  0
  152.1474  137.2478  184.2289 H   0  0  0  0  0  0  0  0  0  0  0  0
  151.9058  136.0048  181.9417 O   0  0  0  0  0  0  0  0  0  0  0  0
  150.8382  136.8830  182.1299 C   0  0  0  0  0  0  0  0  0  0  0  0
  150.8848  137.9693  181.0974 C   0  0  0  0  0  0  0  0  0  0  0  0
  151.9841  138.7894  181.0971 C   0  0  0  0  0  0  0  0  0  0  0  0
  152.0757  139.8046  180.1674 C   0  0  0  0  0  0  0  0  0  0  0  0
  151.0501  139.9612  179.2631 C   0  0  0  0  0  0  0  0  0  0  0  0
  149.9533  139.1366  179.2699 C   0  0  0  0  0  0  0  0  0  0  0  0
  149.8633  138.1287  180.1933 C   0  0  0  0  0  0  0  0  0  0  0  0
  154.0666  137.9745  185.6208 C   0  0  0  0  0  0  0  0  0  0  0  0
  154.7168  139.0096  184.7482 C   0  0  0  0  0  0  0  0  0  0  0  0
  153.9219  139.9105  184.0277 C   0  0  0  0  0  0  0  0  0  0  0  0
  154.4962  140.8740  183.2315 C   0  0  0  0  0  0  0  0  0  0  0  0
  155.8719  140.9707  183.1278 C   0  0  0  0  0  0  0  0  0  0  0  0
  156.6877  140.1035  183.8202 C   0  0  0  0  0  0  0  0  0  0  0  0
  156.0678  139.1467  184.6117 C   0  0  0  0  0  0  0  0  0  0  0  0
  154.5155  138.1040  187.0009 C   0  0  0  0  0  0  0  0  0  0  0  0
  153.6844  138.5182  188.0095 C   0  0  0  0  0  0  0  0  0  0  0  0
  154.1117  138.6242  189.3414 C   0  0  0  0  0  0  0  0  0  0  0  0
  155.4103  138.3057  189.6719 C   0  0  0  0  0  0  0  0  0  0  0  0
  156.2603  137.8868  188.6662 C   0  0  0  0  0  0  0  0  0  0  0  0
  155.8289  137.7876  187.3666 C   0  0  0  0  0  0  0  0  0  0  0  0
  6  7  1  0  0  0
  7  2  1  0  0  0
  2  3  1  0  0  0
  3  4  2  0  0  0
  3  1  1  0  0  0
  1 12  1  0  0  0
 12 13  1  0  0  0
 13 14  2  0  0  0
 13 16  1  0  0  0
 16 17  1  0  0  0
 17 18  1  0  0  0
 18 19  2  0  0  0
 19 20  1  0  0  0
 20 21  2  0  0  0
 21 22  1  0  0  0
 22 23  2  0  0  0
  1 24  1  0  0  0
 24 25  1  0  0  0
 25 26  2  0  0  0
 26 27  1  0  0  0
 27 28  2  0  0  0
 28 29  1  0  0  0
 29 30  2  0  0  0
 24 31  1  0  0  0
 31 32  2  0  0  0
 32 33  1  0  0  0
 33 34  2  0  0  0
 34 35  1  0  0  0
 35 36  2  0  0  0
  7  8  1  0  0  0
  8  9  1  0  0  0
  8 10  2  0  0  0
 23 18  1  0  0  0
 30 25  1  0  0  0
 36 31  1  0  0  0
  2  5  1  0  0  0
 12 15  1  0  0  0
  9 11  1  0  0  0
M  END
> <minimizedAffinity>
-7.01269

> <CNNscore>
0.2274453193

> <CNNaffinity>
5.2019348145

> <CNN_VS>
1.1831557751

> <CNNaffinity_variance>
0.1496062875

$$$$
[H]OC(=O)[C@@]([H])(N([H])C(=O)[C@@]([H])(N([H])C(=O)OC([H])([H])c1c([H])c([H])c([H])c([H])c1[H])C([H])(c1c([H])c([H])c([H])c([H])c1[H])c1c([H])c([H])c([H])c([H])c1[H])C([H])([H])[H]


 36 38  0  0  0  0  0  0  0  0999 V2000
  153.4653  137.8445  183.9704 C   0  0  0  0  0  0  0  0  0  0  0  0
  152.4216  135.8479  185.1802 N   0  0  0  0  0  0  0  0  0  0  0  0
  153.3377  136.4350  184.3026 C   0  0  0  0  0  0  0  0  0  0  0  0
  154.1579  135.6223  183.7348 O   0  0  0  0  0  0  0  0  0  0  0  0
  151.6925  136.3501  185.7293 H   0  0  0  0  0  0  0  0  0  0  0  0
  152.9565  134.2452  186.8568 C   0  0  0  0  0  0  0  0  0  0  0  0
  152.4083  134.4005  185.4312 C   0  0  0  0  0  0  0  0  0  0  0  0
  151.0965  133.7879  185.2851 C   0  0  0  0  0  0  0  0  0  0  0  0
  150.3474  133.9680  184.1358 O   0  0  0  0  0  0  0  0  0  0  0  0
  150.6159  133.0831  186.1983 O   0  0  0  0  0  0  0  0  0  0  0  0
  149.8943  134.8370  183.8892 H   0  0  0  0  0  0  0  0  0  0  0  0
  152.1579  138.3385  183.4682 N   0  0  0  0  0  0  0  0  0  0  0  0
  151.8734  138.5163  182.1065 C   0  0  0  0  0  0  0  0  0  0  0  0
  152.7249  138.2541  181.2381 O   0  0  0  0  0  0  0  0  0  0  0  0
  151.4273  138.5587  184.1748 H   0  0  0  0  0  0  0  0  0  0  0  0
  150.6375  138.9872  181.7198 O   0  0  0  0  0  0  0  0  0  0  0  0
  150.3915  139.5439  180.4643 C   0  0  0  0  0  0  0  0  0  0  0  0
  149.1048  139.0068  179.9129 C   0  0  0  0  0  0  0  0  0  0  0  0
  149.1207  138.5369  178.6244 C   0  0  0  0  0  0  0  0  0  0  0  0
  147.9629  138.0321  178.0697 C   0  0  0  0  0  0  0  0  0  0  0  0
  146.8198  138.0174  178.8361 C   0  0  0  0  0  0  0  0  0  0  0  0
  146.8118  138.4894  180.1245 C   0  0  0  0  0  0  0  0  0  0  0  0
  147.9621  138.9904  180.6746 C   0  0  0  0  0  0  0  0  0  0  0  0
  153.8668  138.7886  185.0257 C   0  0  0  0  0  0  0  0  0  0  0  0
  154.8690  139.7690  184.4871 C   0  0  0  0  0  0  0  0  0  0  0  0
  156.2289  139.6060  184.7815 C   0  0  0  0  0  0  0  0  0  0  0  0
  157.1653  140.4851  184.2893 C   0  0  0  0  0  0  0  0  0  0  0  0
  156.7800  141.5483  183.4932 C   0  0  0  0  0  0  0  0  0  0  0  0
  155.4528  141.7429  183.1812 C   0  0  0  0  0  0  0  0  0  0  0  0
  154.5409  140.8332  183.6981 C   0  0  0  0  0  0  0  0  0  0  0  0
  154.2825  138.2850  186.3281 C   0  0  0  0  0  0  0  0  0  0  0  0
  155.3400  137.4262  186.4819 C   0  0  0  0  0  0  0  0  0  0  0  0
  155.7521  136.9569  187.7380 C   0  0  0  0  0  0  0  0  0  0  0  0
  155.0844  137.3601  188.8731 C   0  0  0  0  0  0  0  0  0  0  0  0
  154.0161  138.2256  188.7344 C   0  0  0  0  0  0  0  0  0  0  0  0
  153.6233  138.6772  187.4988 C   0  0  0  0  0  0  0  0  0  0  0  0
  6  7  1  0  0  0
  7  2  1  0  0  0
  2  3  1  0  0  0
  3  4  2  0  0  0
  3  1  1  0  0  0
  1 12  1  0  0  0
 12 13  1  0  0  0
 13 14  2  0  0  0
 13 16  1  0  0  0
 16 17  1  0  0  0
 17 18  1  0  0  0
 18 19  2  0  0  0
 19 20  1  0  0  0
 20 21  2  0  0  0
 21 22  1  0  0  0
 22 23  2  0  0  0
  1 24  1  0  0  0
 24 25  1  0  0  0
 25 26  2  0  0  0
 26 27  1  0  0  0
 27 28  2  0  0  0
 28 29  1  0  0  0
 29 30  2  0  0  0
 24 31  1  0  0  0
 31 32  2  0  0  0
 32 33  1  0  0  0
 33 34  2  0  0  0
 34 35  1  0  0  0
 35 36  2  0  0  0
  7  8  1  0  0  0
  8  9  1  0  0  0
  8 10  2  0  0  0
 23 18  1  0  0  0
 30 25  1  0  0  0
 36 31  1  0  0  0
  2  5  1  0  0  0
 12 15  1  0  0  0
  9 11  1  0  0  0
M  END
> <minimizedAffinity>
-6.52305

> <CNNscore>
0.2169102579

> <CNNaffinity>
5.1924233437

> <CNN_VS>
1.1262898445

> <CNNaffinity_variance>
0.2880740166

$$$$
[H]OC(=O)[C@@]([H])(N([H])C(=O)[C@@]([H])(N([H])C(=O)OC([H])([H])c1c([H])c([H])c([H])c([H])c1[H])C([H])(c1c([H])c([H])c([H])c([H])c1[H])c1c([H])c([H])c([H])c([H])c1[H])C([H])([H])[H]


 36 38  0  0  0  0  0  0  0  0999 V2000
  154.1623  136.5664  185.7475 C   0  0  0  0  0  0  0  0  0  0  0  0
  155.7003  134.7693  186.7193 N   0  0  0  0  0  0  0  0  0  0  0  0
  154.4679  135.4140  186.5793 C   0  0  0  0  0  0  0  0  0  0  0  0
  153.5023  134.9162  187.2688 O   0  0  0  0  0  0  0  0  0  0  0  0
  156.5852  135.0296  186.2351 H   0  0  0  0  0  0  0  0  0  0  0  0
  156.7536  132.6361  186.7945 C   0  0  0  0  0  0  0  0  0  0  0  0
  155.8682  133.6017  187.5949 C   0  0  0  0  0  0  0  0  0  0  0  0
  156.4446  133.9156  188.8937 C   0  0  0  0  0  0  0  0  0  0  0  0
  157.7747  133.6513  189.1682 O   0  0  0  0  0  0  0  0  0  0  0  0
  155.7479  134.4326  189.7931 O   0  0  0  0  0  0  0  0  0  0  0  0
  158.1482  132.7219  189.3025 H   0  0  0  0  0  0  0  0  0  0  0  0
  152.7646  136.4479  185.2598 N   0  0  0  0  0  0  0  0  0  0  0  0
  152.4267  136.3771  183.9005 C   0  0  0  0  0  0  0  0  0  0  0  0
  153.3079  136.4044  183.0226 O   0  0  0  0  0  0  0  0  0  0  0  0
  152.0103  136.4168  185.9751 H   0  0  0  0  0  0  0  0  0  0  0  0
  151.1042  136.2764  183.5268 O   0  0  0  0  0  0  0  0  0  0  0  0
  150.0601  136.1446  184.4428 C   0  0  0  0  0  0  0  0  0  0  0  0
  149.1038  137.2897  184.2924 C   0  0  0  0  0  0  0  0  0  0  0  0
  148.3521  137.6288  185.3882 C   0  0  0  0  0  0  0  0  0  0  0  0
  147.4570  138.6751  185.3023 C   0  0  0  0  0  0  0  0  0  0  0  0
  147.3481  139.3494  184.1075 C   0  0  0  0  0  0  0  0  0  0  0  0
  148.1038  139.0041  183.0154 C   0  0  0  0  0  0  0  0  0  0  0  0
  148.9923  137.9650  183.1017 C   0  0  0  0  0  0  0  0  0  0  0  0
  154.2644  137.9122  186.3345 C   0  0  0  0  0  0  0  0  0  0  0  0
  154.9877  138.8324  185.3932 C   0  0  0  0  0  0  0  0  0  0  0  0
  154.2621  139.5780  184.4551 C   0  0  0  0  0  0  0  0  0  0  0  0
  154.9027  140.4356  183.5912 C   0  0  0  0  0  0  0  0  0  0  0  0
  156.2778  140.5773  183.6335 C   0  0  0  0  0  0  0  0  0  0  0  0
  157.0265  139.8616  184.5413 C   0  0  0  0  0  0  0  0  0  0  0  0
  156.3411  139.0079  185.3943 C   0  0  0  0  0  0  0  0  0  0  0  0
  154.7562  138.0729  187.6965 C   0  0  0  0  0  0  0  0  0  0  0  0
  153.9444  138.4595  188.7314 C   0  0  0  0  0  0  0  0  0  0  0  0
  154.4139  138.5954  190.0462 C   0  0  0  0  0  0  0  0  0  0  0  0
  155.7360  138.3363  190.3321 C   0  0  0  0  0  0  0  0  0  0  0  0
  156.5671  137.9457  189.2994 C   0  0  0  0  0  0  0  0  0  0  0  0
  156.0943  137.8167  188.0169 C   0  0  0  0  0  0  0  0  0  0  0  0
  6  7  1  0  0  0
  7  2  1  0  0  0
  2  3  1  0  0  0
  3  4  2  0  0  0
  3  1  1  0  0  0
  1 12  1  0  0  0
 12 13  1  0  0  0
 13 14  2  0  0  0
 13 16  1  0  0  0
 16 17  1  0  0  0
 17 18  1  0  0  0
 18 19  2  0  0  0
 19 20  1  0  0  0
 20 21  2  0  0  0
 21 22  1  0  0  0
 22 23  2  0  0  0
  1 24  1  0  0  0
 24 25  1  0  0  0
 25 26  2  0  0  0
 26 27  1  0  0  0
 27 28  2  0  0  0
 28 29  1  0  0  0
 29 30  2  0  0  0
 24 31  1  0  0  0
 31 32  2  0  0  0
 32 33  1  0  0  0
 33 34  2  0  0  0
 34 35  1  0  0  0
 35 36  2  0  0  0
  7  8  1  0  0  0
  8  9  1  0  0  0
  8 10  2  0  0  0
 23 18  1  0  0  0
 30 25  1  0  0  0
 36 31  1  0  0  0
  2  5  1  0  0  0
 12 15  1  0  0  0
  9 11  1  0  0  0
M  END
> <minimizedAffinity>
-6.40599

> <CNNscore>
0.1844722033

> <CNNaffinity>
5.2255363464

> <CNN_VS>
0.9639661908

> <CNNaffinity_variance>
0.1032851115

$$$$
[H]c1c([H])c([H])c(N2C([H])([H])N([H])C(=O)C23C([H])([H])C([H])([H])N(C(=O)c2c([H])c([H])c(C(C([H])([H])[H])(C([H])([H])[H])C([H])([H])[H])c([H])c2[H])C([H])([H])C3([H])[H])c([H])c1[H]


 30 33  0  0  0  0  0  0  0  0999 V2000
  154.6548  138.2684  185.0650 C   0  0  0  0  0  0  0  0  0  0  0  0
  153.7599  137.6595  184.3236 O   0  0  0  0  0  0  0  0  0  0  0  0
  154.7119  137.7160  186.3627 N   0  0  0  0  0  0  0  0  0  0  0  0
  155.5461  138.2020  187.4048 C   0  0  0  0  0  0  0  0  0  0  0  0
  155.0496  137.9289  188.8252 C   0  0  0  0  0  0  0  0  0  0  0  0
  154.6146  136.4798  188.9036 C   0  0  0  0  0  0  0  0  0  0  0  0
  153.4164  136.4025  187.9639 C   0  0  0  0  0  0  0  0  0  0  0  0
  153.8434  136.5281  186.5615 C   0  0  0  0  0  0  0  0  0  0  0  0
  154.1863  136.0282  190.1683 N   0  0  0  0  0  0  0  0  0  0  0  0
  155.1506  135.0422  190.6506 C   0  0  0  0  0  0  0  0  0  0  0  0
  156.0307  134.7590  189.5741 N   0  0  0  0  0  0  0  0  0  0  0  0
  155.7321  135.6187  188.4892 C   0  0  0  0  0  0  0  0  0  0  0  0
  156.3975  135.5472  187.4071 O   0  0  0  0  0  0  0  0  0  0  0  0
  156.7777  134.0239  189.5987 H   0  0  0  0  0  0  0  0  0  0  0  0
  156.6037  141.4992  183.0852 C   0  0  0  0  0  0  0  0  0  0  0  0
  155.2432  141.2248  182.9630 C   0  0  0  0  0  0  0  0  0  0  0  0
  154.6479  140.1895  183.6238 C   0  0  0  0  0  0  0  0  0  0  0  0
  155.3843  139.3346  184.4723 C   0  0  0  0  0  0  0  0  0  0  0  0
  156.7197  139.6144  184.5812 C   0  0  0  0  0  0  0  0  0  0  0  0
  157.2994  140.6734  183.9003 C   0  0  0  0  0  0  0  0  0  0  0  0
  158.5486  142.9770  182.9776 C   0  0  0  0  0  0  0  0  0  0  0  0
  157.2438  142.6019  182.3671 C   0  0  0  0  0  0  0  0  0  0  0  0
  156.3362  143.8137  182.3153 C   0  0  0  0  0  0  0  0  0  0  0  0
  157.5589  142.1382  180.9328 C   0  0  0  0  0  0  0  0  0  0  0  0
  153.0724  136.3357  191.0363 C   0  0  0  0  0  0  0  0  0  0  0  0
  153.1897  137.1018  192.1598 C   0  0  0  0  0  0  0  0  0  0  0  0
  152.0706  137.3598  192.9452 C   0  0  0  0  0  0  0  0  0  0  0  0
  150.8382  136.8607  192.6206 C   0  0  0  0  0  0  0  0  0  0  0  0
  150.6803  136.0856  191.4972 C   0  0  0  0  0  0  0  0  0  0  0  0
  151.8009  135.8446  190.7360 C   0  0  0  0  0  0  0  0  0  0  0  0
 21 22  1  0  0  0
 22 23  1  0  0  0
 22 24  1  0  0  0
 22 15  1  0  0  0
 15 16  2  0  0  0
 16 17  1  0  0  0
 17 18  2  0  0  0
 18 19  1  0  0  0
 19 20  2  0  0  0
 18  1  1  0  0  0
  1  2  2  0  0  0
  1  3  1  0  0  0
  3  4  1  0  0  0
  4  5  1  0  0  0
  5  6  1  0  0  0
  6  7  1  0  0  0
  7  8  1  0  0  0
  6  9  1  0  0  0
  9 10  1  0  0  0
 10 11  1  0  0  0
 11 12  1  0  0  0
 12 13  2  0  0  0
  9 25  1  0  0  0
 25 26  2  0  0  0
 26 27  1  0  0  0
 27 28  2  0  0  0
 28 29  1  0  0  0
 29 30  2  0  0  0
 20 15  1  0  0  0
  8  3  1  0  0  0
 30 25  1  0  0  0
 12  6  1  0  0  0
 11 14  1  0  0  0
M  END
> <minimizedAffinity>
-8.66116

> <CNNscore>
0.5403016806

> <CNNaffinity>
5.9133081436

> <CNN_VS>
3.1949703693

> <CNNaffinity_variance>
0.0306623876

$$$$
[H]c1c([H])c([H])c(N2C([H])([H])N([H])C(=O)C23C([H])([H])C([H])([H])N(C(=O)c2c([H])c([H])c(C(C([H])([H])[H])(C([H])([H])[H])C([H])([H])[H])c([H])c2[H])C([H])([H])C3([H])[H])c([H])c1[H]


 30 33  0  0  0  0  0  0  0  0999 V2000
  154.2830  134.8005  185.1748 C   0  0  0  0  0  0  0  0  0  0  0  0
  154.7455  134.8799  183.9495 O   0  0  0  0  0  0  0  0  0  0  0  0
  152.8777  134.9302  185.2051 N   0  0  0  0  0  0  0  0  0  0  0  0
  152.0991  134.9397  186.3932 C   0  0  0  0  0  0  0  0  0  0  0  0
  150.7670  135.6848  186.2997 C   0  0  0  0  0  0  0  0  0  0  0  0
  150.0756  135.2590  185.0207 C   0  0  0  0  0  0  0  0  0  0  0  0
  150.9863  135.7840  183.9162 C   0  0  0  0  0  0  0  0  0  0  0  0
  152.2417  135.0182  183.8662 C   0  0  0  0  0  0  0  0  0  0  0  0
  148.7927  135.7993  184.7994 N   0  0  0  0  0  0  0  0  0  0  0  0
  147.8215  134.7099  184.8684 C   0  0  0  0  0  0  0  0  0  0  0  0
  148.5578  133.4979  184.9185 N   0  0  0  0  0  0  0  0  0  0  0  0
  149.9391  133.7950  185.0118 C   0  0  0  0  0  0  0  0  0  0  0  0
  150.7981  132.8582  185.0710 O   0  0  0  0  0  0  0  0  0  0  0  0
  148.1269  132.5427  184.8891 H   0  0  0  0  0  0  0  0  0  0  0  0
  157.1533  133.9353  188.2027 C   0  0  0  0  0  0  0  0  0  0  0  0
  157.0194  133.1955  187.0297 C   0  0  0  0  0  0  0  0  0  0  0  0
  156.0982  133.5098  186.0729 C   0  0  0  0  0  0  0  0  0  0  0  0
  155.2247  134.6088  186.2219 C   0  0  0  0  0  0  0  0  0  0  0  0
  155.3658  135.3250  187.3796 C   0  0  0  0  0  0  0  0  0  0  0  0
  156.3109  134.9857  188.3350 C   0  0  0  0  0  0  0  0  0  0  0  0
  158.2573  132.1179  189.4095 C   0  0  0  0  0  0  0  0  0  0  0  0
  158.1329  133.5908  189.2337 C   0  0  0  0  0  0  0  0  0  0  0  0
  157.7754  134.2354  190.5572 C   0  0  0  0  0  0  0  0  0  0  0  0
  159.5187  134.0874  188.7817 C   0  0  0  0  0  0  0  0  0  0  0  0
  148.2744  137.1259  184.5543 C   0  0  0  0  0  0  0  0  0  0  0  0
  147.8574  137.9612  185.5499 C   0  0  0  0  0  0  0  0  0  0  0  0
  147.3740  139.2280  185.2377 C   0  0  0  0  0  0  0  0  0  0  0  0
  147.3024  139.6676  183.9435 C   0  0  0  0  0  0  0  0  0  0  0  0
  147.7130  138.8556  182.9140 C   0  0  0  0  0  0  0  0  0  0  0  0
  148.1878  137.6078  183.2472 C   0  0  0  0  0  0  0  0  0  0  0  0
 21 22  1  0  0  0
 22 23  1  0  0  0
 22 24  1  0  0  0
 22 15  1  0  0  0
 15 16  2  0  0  0
 16 17  1  0  0  0
 17 18  2  0  0  0
 18 19  1  0  0  0
 19 20  2  0  0  0
 18  1  1  0  0  0
  1  2  2  0  0  0
  1  3  1  0  0  0
  3  4  1  0  0  0
  4  5  1  0  0  0
  5  6  1  0  0  0
  6  7  1  0  0  0
  7  8  1  0  0  0
  6  9  1  0  0  0
  9 10  1  0  0  0
 10 11  1  0  0  0
 11 12  1  0  0  0
 12 13  2  0  0  0
  9 25  1  0  0  0
 25 26  2  0  0  0
 26 27  1  0  0  0
 27 28  2  0  0  0
 28 29  1  0  0  0
 29 30  2  0  0  0
 20 15  1  0  0  0
  8  3  1  0  0  0
 30 25  1  0  0  0
 12  6  1  0  0  0
 11 14  1  0  0  0
M  END
> <minimizedAffinity>
-4.27273

> <CNNscore>
0.5323988795

> <CNNaffinity>
5.2367172241

> <CNN_VS>
2.7880222797

> <CNNaffinity_variance>
0.3947390914

$$$$
[H]c1c([H])c([H])c(N2C([H])([H])N([H])C(=O)C23C([H])([H])C([H])([H])N(C(=O)c2c([H])c([H])c(C(C([H])([H])[H])(C([H])([H])[H])C([H])([H])[H])c([H])c2[H])C([H])([H])C3([H])[H])c([H])c1[H]


 30 33  0  0  0  0  0  0  0  0999 V2000
  154.7641  138.7735  185.1107 C   0  0  0  0  0  0  0  0  0  0  0  0
  153.6358  138.8322  184.4437 O   0  0  0  0  0  0  0  0  0  0  0  0
  154.6521  137.9354  186.2410 N   0  0  0  0  0  0  0  0  0  0  0  0
  155.6918  137.7191  187.1846 C   0  0  0  0  0  0  0  0  0  0  0  0
  155.2324  137.3312  188.5907 C   0  0  0  0  0  0  0  0  0  0  0  0
  154.1765  136.2524  188.4625 C   0  0  0  0  0  0  0  0  0  0  0  0
  153.0155  136.9530  187.7654 C   0  0  0  0  0  0  0  0  0  0  0  0
  153.3459  137.2394  186.3605 C   0  0  0  0  0  0  0  0  0  0  0  0
  153.6821  135.7215  189.6710 N   0  0  0  0  0  0  0  0  0  0  0  0
  154.1051  134.3260  189.7625 C   0  0  0  0  0  0  0  0  0  0  0  0
  154.6671  133.9779  188.5068 N   0  0  0  0  0  0  0  0  0  0  0  0
  154.7261  135.1308  187.6867 C   0  0  0  0  0  0  0  0  0  0  0  0
  155.1979  135.0601  186.5071 O   0  0  0  0  0  0  0  0  0  0  0  0
  154.9822  133.0124  188.2473 H   0  0  0  0  0  0  0  0  0  0  0  0
  157.9022  141.0526  183.3462 C   0  0  0  0  0  0  0  0  0  0  0  0
  156.6154  140.9697  182.8186 C   0  0  0  0  0  0  0  0  0  0  0  0
  155.6290  140.2417  183.4184 C   0  0  0  0  0  0  0  0  0  0  0  0
  155.8615  139.5277  184.6139 C   0  0  0  0  0  0  0  0  0  0  0  0
  157.1303  139.6161  185.1195 C   0  0  0  0  0  0  0  0  0  0  0  0
  158.1138  140.3641  184.4915 C   0  0  0  0  0  0  0  0  0  0  0  0
  158.9675  141.6247  181.2212 C   0  0  0  0  0  0  0  0  0  0  0  0
  158.9628  141.8235  182.6964 C   0  0  0  0  0  0  0  0  0  0  0  0
  160.3199  141.4637  183.2652 C   0  0  0  0  0  0  0  0  0  0  0  0
  158.6937  143.3222  182.9264 C   0  0  0  0  0  0  0  0  0  0  0  0
  152.9102  136.2468  190.7742 C   0  0  0  0  0  0  0  0  0  0  0  0
  153.4540  136.9956  191.7773 C   0  0  0  0  0  0  0  0  0  0  0  0
  152.6465  137.4720  192.8054 C   0  0  0  0  0  0  0  0  0  0  0  0
  151.3040  137.2076  192.8417 C   0  0  0  0  0  0  0  0  0  0  0  0
  150.7202  136.4575  191.8497 C   0  0  0  0  0  0  0  0  0  0  0  0
  151.5385  135.9981  190.8434 C   0  0  0  0  0  0  0  0  0  0  0  0
 21 22  1  0  0  0
 22 23  1  0  0  0
 22 24  1  0  0  0
 22 15  1  0  0  0
 15 16  2  0  0  0
 16 17  1  0  0  0
 17 18  2  0  0  0
 18 19  1  0  0  0
 19 20  2  0  0  0
 18  1  1  0  0  0
  1  2  2  0  0  0
  1  3  1  0  0  0
  3  4  1  0  0  0
  4  5  1  0  0  0
  5  6  1  0  0  0
  6  7  1  0  0  0
  7  8  1  0  0  0
  6  9  1  0  0  0
  9 10  1  0  0  0
 10 11  1  0  0  0
 11 12  1  0  0  0
 12 13  2  0  0  0
  9 25  1  0  0  0
 25 26  2  0  0  0
 26 27  1  0  0  0
 27 28  2  0  0  0
 28 29  1  0  0  0
 29 30  2  0  0  0
 20 15  1  0  0  0
  8  3  1  0  0  0
 30 25  1  0  0  0
 12  6  1  0  0  0
 11 14  1  0  0  0
M  END
> <minimizedAffinity>
-8.43727

> <CNNscore>
0.5139745474

> <CNNaffinity>
5.8987612724

> <CNN_VS>
3.0318131447

> <CNNaffinity_variance>
0.1121632904

$$$$
[H]c1c([H])c([H])c(N2C([H])([H])N([H])C(=O)C23C([H])([H])C([H])([H])N(C(=O)c2c([H])c([H])c(C(C([H])([H])[H])(C([H])([H])[H])C([H])([H])[H])c([H])c2[H])C([H])([H])C3([H])[H])c([H])c1[H]


 30 33  0  0  0  0  0  0  0  0999 V2000
  154.8212  137.8155  185.7925 C   0  0  0  0  0  0  0  0  0  0  0  0
  154.0224  136.9933  185.1543 O   0  0  0  0  0  0  0  0  0  0  0  0
  155.0373  137.3961  187.1229 N   0  0  0  0  0  0  0  0  0  0  0  0
  155.8126  138.1129  188.0733 C   0  0  0  0  0  0  0  0  0  0  0  0
  155.4390  137.8775  189.5375 C   0  0  0  0  0  0  0  0  0  0  0  0
  155.2839  136.3858  189.7520 C   0  0  0  0  0  0  0  0  0  0  0  0
  154.0801  136.0124  188.8939 C   0  0  0  0  0  0  0  0  0  0  0  0
  154.4137  136.0923  187.4631 C   0  0  0  0  0  0  0  0  0  0  0  0
  155.0034  135.9745  191.0706 N   0  0  0  0  0  0  0  0  0  0  0  0
  156.1542  135.2245  191.5686 C   0  0  0  0  0  0  0  0  0  0  0  0
  157.0228  135.0139  190.4663 N   0  0  0  0  0  0  0  0  0  0  0  0
  156.5220  135.7088  189.3387 C   0  0  0  0  0  0  0  0  0  0  0  0
  157.1404  135.6662  188.2275 O   0  0  0  0  0  0  0  0  0  0  0  0
  157.8933  134.4310  190.5025 H   0  0  0  0  0  0  0  0  0  0  0  0
  156.0292  141.1871  183.4841 C   0  0  0  0  0  0  0  0  0  0  0  0
  154.7122  140.7412  183.5714 C   0  0  0  0  0  0  0  0  0  0  0  0
  154.3575  139.6654  184.3329 C   0  0  0  0  0  0  0  0  0  0  0  0
  155.3134  138.9411  185.0778 C   0  0  0  0  0  0  0  0  0  0  0  0
  156.6031  139.3888  184.9809 C   0  0  0  0  0  0  0  0  0  0  0  0
  156.9366  140.4853  184.2015 C   0  0  0  0  0  0  0  0  0  0  0  0
  157.6298  143.0101  183.1792 C   0  0  0  0  0  0  0  0  0  0  0  0
  156.4108  142.3331  182.6580 C   0  0  0  0  0  0  0  0  0  0  0  0
  155.2751  143.3306  182.5580 C   0  0  0  0  0  0  0  0  0  0  0  0
  156.7709  141.8263  181.2492 C   0  0  0  0  0  0  0  0  0  0  0  0
  153.8917  136.1488  191.9775 C   0  0  0  0  0  0  0  0  0  0  0  0
  153.2117  137.3249  192.1089 C   0  0  0  0  0  0  0  0  0  0  0  0
  152.1471  137.4165  193.0001 C   0  0  0  0  0  0  0  0  0  0  0  0
  151.7563  136.3475  193.7603 C   0  0  0  0  0  0  0  0  0  0  0  0
  152.4162  135.1470  193.6557 C   0  0  0  0  0  0  0  0  0  0  0  0
  153.4650  135.0803  192.7675 C   0  0  0  0  0  0  0  0  0  0  0  0
 21 22  1  0  0  0
 22 23  1  0  0  0
 22 24  1  0  0  0
 22 15  1  0  0  0
 15 16  2  0  0  0
 16 17  1  0  0  0
 17 18  2  0  0  0
 18 19  1  0  0  0
 19 20  2  0  0  0
 18  1  1  0  0  0
  1  2  2  0  0  0
  1  3  1  0  0  0
  3  4  1  0  0  0
  4  5  1  0  0  0
  5  6  1  0  0  0
  6  7  1  0  0  0
  7  8  1  0  0  0
  6  9  1  0  0  0
  9 10  1  0  0  0
 10 11  1  0  0  0
 11 12  1  0  0  0
 12 13  2  0  0  0
  9 25  1  0  0  0
 25 26  2  0  0  0
 26 27  1  0  0  0
 27 28  2  0  0  0
 28 29  1  0  0  0
 29 30  2  0  0  0
 20 15  1  0  0  0
  8  3  1  0  0  0
 30 25  1  0  0  0
 12  6  1  0  0  0
 11 14  1  0  0  0
M  END
> <minimizedAffinity>
-8.48966

> <CNNscore>
0.5009289980

> <CNNaffinity>
5.8286828995

> <CNN_VS>
2.9197561741

> <CNNaffinity_variance>
0.0160483643

$$$$
[H]c1c([H])c([H])c(N2C([H])([H])N([H])C(=O)C23C([H])([H])C([H])([H])N(C(=O)c2c([H])c([H])c(C(C([H])([H])[H])(C([H])([H])[H])C([H])([H])[H])c([H])c2[H])C([H])([H])C3([H])[H])c([H])c1[H]


 30 33  0  0  0  0  0  0  0  0999 V2000
  152.8577  135.7613  186.0849 C   0  0  0  0  0  0  0  0  0  0  0  0
  153.5919  134.9881  185.3204 O   0  0  0  0  0  0  0  0  0  0  0  0
  151.5587  135.9249  185.5572 N   0  0  0  0  0  0  0  0  0  0  0  0
  150.5569  136.7500  186.1349 C   0  0  0  0  0  0  0  0  0  0  0  0
  149.5064  137.2868  185.1617 C   0  0  0  0  0  0  0  0  0  0  0  0
  149.0415  136.1400  184.2877 C   0  0  0  0  0  0  0  0  0  0  0  0
  150.2802  135.7641  183.4819 C   0  0  0  0  0  0  0  0  0  0  0  0
  151.2859  135.1189  184.3404 C   0  0  0  0  0  0  0  0  0  0  0  0
  148.0161  136.4374  183.3676 N   0  0  0  0  0  0  0  0  0  0  0  0
  146.8174  135.7047  183.7686 C   0  0  0  0  0  0  0  0  0  0  0  0
  147.2015  134.8111  184.8019 N   0  0  0  0  0  0  0  0  0  0  0  0
  148.5549  135.0486  185.1445 C   0  0  0  0  0  0  0  0  0  0  0  0
  149.1202  134.3621  186.0544 O   0  0  0  0  0  0  0  0  0  0  0  0
  146.5673  134.0947  185.2302 H   0  0  0  0  0  0  0  0  0  0  0  0
  154.9323  137.3487  189.4511 C   0  0  0  0  0  0  0  0  0  0  0  0
  155.4099  137.4196  188.1442 C   0  0  0  0  0  0  0  0  0  0  0  0
  154.7117  136.9134  187.0863 C   0  0  0  0  0  0  0  0  0  0  0  0
  153.4594  136.2854  187.2610 C   0  0  0  0  0  0  0  0  0  0  0  0
  153.0037  136.2208  188.5500 C   0  0  0  0  0  0  0  0  0  0  0  0
  153.7318  136.7445  189.6067 C   0  0  0  0  0  0  0  0  0  0  0  0
  154.9537  138.9801  191.2721 C   0  0  0  0  0  0  0  0  0  0  0  0
  155.6867  137.8809  190.5864 C   0  0  0  0  0  0  0  0  0  0  0  0
  157.0510  138.3718  190.1476 C   0  0  0  0  0  0  0  0  0  0  0  0
  155.8581  136.7627  191.6312 C   0  0  0  0  0  0  0  0  0  0  0  0
  147.9099  137.2790  182.1974 C   0  0  0  0  0  0  0  0  0  0  0  0
  147.9327  138.6425  182.2528 C   0  0  0  0  0  0  0  0  0  0  0  0
  147.8303  139.3876  181.0823 C   0  0  0  0  0  0  0  0  0  0  0  0
  147.7048  138.7856  179.8595 C   0  0  0  0  0  0  0  0  0  0  0  0
  147.6782  137.4153  179.7633 C   0  0  0  0  0  0  0  0  0  0  0  0
  147.7817  136.6997  180.9340 C   0  0  0  0  0  0  0  0  0  0  0  0
 21 22  1  0  0  0
 22 23  1  0  0  0
 22 24  1  0  0  0
 22 15  1  0  0  0
 15 16  2  0  0  0
 16 17  1  0  0  0
 17 18  2  0  0  0
 18 19  1  0  0  0
 19 20  2  0  0  0
 18  1  1  0  0  0
  1  2  2  0  0  0
  1  3  1  0  0  0
  3  4  1  0  0  0
  4  5  1  0  0  0
  5  6  1  0  0  0
  6  7  1  0  0  0
  7  8  1  0  0  0
  6  9  1  0  0  0
  9 10  1  0  0  0
 10 11  1  0  0  0
 11 12  1  0  0  0
 12 13  2  0  0  0
  9 25  1  0  0  0
 25 26  2  0  0  0
 26 27  1  0  0  0
 27 28  2  0  0  0
 28 29  1  0  0  0
 29 30  2  0  0  0
 20 15  1  0  0  0
  8  3  1  0  0  0
 30 25  1  0  0  0
 12  6  1  0  0  0
 11 14  1  0  0  0
M  END
> <minimizedAffinity>
-5.55799

> <CNNscore>
0.3634173572

> <CNNaffinity>
5.4901690483

> <CNN_VS>
1.9952226877

> <CNNaffinity_variance>
0.4462453723

$$$$
[H]c1c([H])c([H])c(N2C([H])([H])N([H])C(=O)C23C([H])([H])C([H])([H])N(C(=O)c2c([H])c([H])c(C(C([H])([H])[H])(C([H])([H])[H])C([H])([H])[H])c([H])c2[H])C([H])([H])C3([H])[H])c([H])c1[H]


 30 33  0  0  0  0  0  0  0  0999 V2000
  153.1141  136.3597  185.1913 C   0  0  0  0  0  0  0  0  0  0  0  0
  153.3656  135.0924  184.9632 O   0  0  0  0  0  0  0  0  0  0  0  0
  153.5514  136.7494  186.4756 N   0  0  0  0  0  0  0  0  0  0  0  0
  153.3671  138.0461  187.0259 C   0  0  0  0  0  0  0  0  0  0  0  0
  153.3196  138.1109  188.5531 C   0  0  0  0  0  0  0  0  0  0  0  0
  154.4655  137.2828  189.0974 C   0  0  0  0  0  0  0  0  0  0  0  0
  154.1238  135.8576  188.6766 C   0  0  0  0  0  0  0  0  0  0  0  0
  154.2771  135.6912  187.2228 C   0  0  0  0  0  0  0  0  0  0  0  0
  154.6193  137.2816  190.4985 N   0  0  0  0  0  0  0  0  0  0  0  0
  155.8718  137.9616  190.8200 C   0  0  0  0  0  0  0  0  0  0  0  0
  156.5570  138.1736  189.5955 N   0  0  0  0  0  0  0  0  0  0  0  0
  155.7275  137.7699  188.5211 C   0  0  0  0  0  0  0  0  0  0  0  0
  156.1339  137.8692  187.3195 O   0  0  0  0  0  0  0  0  0  0  0  0
  157.5254  138.5680  189.5204 H   0  0  0  0  0  0  0  0  0  0  0  0
  150.9558  138.3618  182.1109 C   0  0  0  0  0  0  0  0  0  0  0  0
  150.3882  137.4201  182.9665 C   0  0  0  0  0  0  0  0  0  0  0  0
  151.1057  136.8082  183.9533 C   0  0  0  0  0  0  0  0  0  0  0  0
  152.4716  137.0983  184.1609 C   0  0  0  0  0  0  0  0  0  0  0  0
  153.0166  138.0233  183.3119 C   0  0  0  0  0  0  0  0  0  0  0  0
  152.2652  138.6316  182.3186 C   0  0  0  0  0  0  0  0  0  0  0  0
  149.7782  138.0401  179.9925 C   0  0  0  0  0  0  0  0  0  0  0  0
  150.1893  139.0087  181.0454 C   0  0  0  0  0  0  0  0  0  0  0  0
  150.9796  140.1395  180.4197 C   0  0  0  0  0  0  0  0  0  0  0  0
  148.8862  139.5678  181.6461 C   0  0  0  0  0  0  0  0  0  0  0  0
  153.8332  136.7947  191.6092 C   0  0  0  0  0  0  0  0  0  0  0  0
  154.0688  135.5995  192.2246 C   0  0  0  0  0  0  0  0  0  0  0  0
  153.2723  135.1985  193.2926 C   0  0  0  0  0  0  0  0  0  0  0  0
  152.2444  135.9775  193.7506 C   0  0  0  0  0  0  0  0  0  0  0  0
  151.9765  137.1873  193.1570 C   0  0  0  0  0  0  0  0  0  0  0  0
  152.7778  137.5629  192.1034 C   0  0  0  0  0  0  0  0  0  0  0  0
 21 22  1  0  0  0
 22 23  1  0  0  0
 22 24  1  0  0  0
 22 15  1  0  0  0
 15 16  2  0  0  0
 16 17  1  0  0  0
 17 18  2  0  0  0
 18 19  1  0  0  0
 19 20  2  0  0  0
 18  1  1  0  0  0
  1  2  2  0  0  0
  1  3  1  0  0  0
  3  4  1  0  0  0
  4  5  1  0  0  0
  5  6  1  0  0  0
  6  7  1  0  0  0
  7  8  1  0  0  0
  6  9  1  0  0  0
  9 10  1  0  0  0
 10 11  1  0  0  0
 11 12  1  0  0  0
 12 13  2  0  0  0
  9 25  1  0  0  0
 25 26  2  0  0  0
 26 27  1  0  0  0
 27 28  2  0  0  0
 28 29  1  0  0  0
 29 30  2  0  0  0
 20 15  1  0  0  0
  8  3  1  0  0  0
 30 25  1  0  0  0
 12  6  1  0  0  0
 11 14  1  0  0  0
M  END
> <minimizedAffinity>
-7.58214

> <CNNscore>
0.3573534191

> <CNNaffinity>
5.3878116608

> <CNN_VS>
1.9253529310

> <CNNaffinity_variance>
0.0645971820

$$$$
[H]c1c([H])c([H])c(N2C([H])([H])N([H])C(=O)C23C([H])([H])C([H])([H])N(C(=O)c2c([H])c([H])c(C(C([H])([H])[H])(C([H])([H])[H])C([H])([H])[H])c([H])c2[H])C([H])([H])C3([H])[H])c([H])c1[H]


 30 33  0  0  0  0  0  0  0  0999 V2000
  153.9114  135.8252  185.6243 C   0  0  0  0  0  0  0  0  0  0  0  0
  154.7893  135.1061  184.9658 O   0  0  0  0  0  0  0  0  0  0  0  0
  152.7381  136.0282  184.8662 N   0  0  0  0  0  0  0  0  0  0  0  0
  151.6336  136.8129  185.2932 C   0  0  0  0  0  0  0  0  0  0  0  0
  150.7863  137.4190  184.1736 C   0  0  0  0  0  0  0  0  0  0  0  0
  150.5138  136.3374  183.1484 C   0  0  0  0  0  0  0  0  0  0  0  0
  151.8898  136.0164  182.5753 C   0  0  0  0  0  0  0  0  0  0  0  0
  152.7167  135.3103  183.5666 C   0  0  0  0  0  0  0  0  0  0  0  0
  149.6837  136.7009  182.0688 N   0  0  0  0  0  0  0  0  0  0  0  0
  148.4384  135.9443  182.1767 C   0  0  0  0  0  0  0  0  0  0  0  0
  148.6245  134.9796  183.2006 N   0  0  0  0  0  0  0  0  0  0  0  0
  149.8824  135.1895  183.8160 C   0  0  0  0  0  0  0  0  0  0  0  0
  150.2678  134.4395  184.7688 O   0  0  0  0  0  0  0  0  0  0  0  0
  147.9274  134.2361  183.4462 H   0  0  0  0  0  0  0  0  0  0  0  0
  154.7084  137.0124  189.6381 C   0  0  0  0  0  0  0  0  0  0  0  0
  153.7758  136.0374  189.2905 C   0  0  0  0  0  0  0  0  0  0  0  0
  153.5561  135.6705  187.9944 C   0  0  0  0  0  0  0  0  0  0  0  0
  154.2666  136.2641  186.9286 C   0  0  0  0  0  0  0  0  0  0  0  0
  155.1775  137.2217  187.2844 C   0  0  0  0  0  0  0  0  0  0  0  0
  155.3828  137.5748  188.6089 C   0  0  0  0  0  0  0  0  0  0  0  0
  153.8956  136.8636  191.9393 C   0  0  0  0  0  0  0  0  0  0  0  0
  154.9350  137.4141  191.0269 C   0  0  0  0  0  0  0  0  0  0  0  0
  154.9796  138.9230  191.1537 C   0  0  0  0  0  0  0  0  0  0  0  0
  156.2763  136.8222  191.4979 C   0  0  0  0  0  0  0  0  0  0  0  0
  149.7974  137.6228  180.9616 C   0  0  0  0  0  0  0  0  0  0  0  0
  148.9925  137.5716  179.8606 C   0  0  0  0  0  0  0  0  0  0  0  0
  149.1578  138.4970  178.8349 C   0  0  0  0  0  0  0  0  0  0  0  0
  150.1178  139.4707  178.8975 C   0  0  0  0  0  0  0  0  0  0  0  0
  150.9471  139.5545  179.9897 C   0  0  0  0  0  0  0  0  0  0  0  0
  150.7642  138.6290  180.9916 C   0  0  0  0  0  0  0  0  0  0  0  0
 21 22  1  0  0  0
 22 23  1  0  0  0
 22 24  1  0  0  0
 22 15  1  0  0  0
 15 16  2  0  0  0
 16 17  1  0  0  0
 17 18  2  0  0  0
 18 19  1  0  0  0
 19 20  2  0  0  0
 18  1  1  0  0  0
  1  2  2  0  0  0
  1  3  1  0  0  0
  3  4  1  0  0  0
  4  5  1  0  0  0
  5  6  1  0  0  0
  6  7  1  0  0  0
  7  8  1  0  0  0
  6  9  1  0  0  0
  9 10  1  0  0  0
 10 11  1  0  0  0
 11 12  1  0  0  0
 12 13  2  0  0  0
  9 25  1  0  0  0
 25 26  2  0  0  0
 26 27  1  0  0  0
 27 28  2  0  0  0
 28 29  1  0  0  0
 29 30  2  0  0  0
 20 15  1  0  0  0
  8  3  1  0  0  0
 30 25  1  0  0  0
 12  6  1  0  0  0
 11 14  1  0  0  0
M  END
> <minimizedAffinity>
-6.30118

> <CNNscore>
0.3467770517

> <CNNaffinity>
5.2882318497

> <CNN_VS>
1.8338373899

> <CNNaffinity_variance>
0.1019607037

$$$$
[H]c1c([H])c([H])c(N2C([H])([H])N([H])C(=O)C23C([H])([H])C([H])([H])N(C(=O)c2c([H])c([H])c(C(C([H])([H])[H])(C([H])([H])[H])C([H])([H])[H])c([H])c2[H])C([H])([H])C3([H])[H])c([H])c1[H]


 30 33  0  0  0  0  0  0  0  0999 V2000
  154.3439  138.8954  184.3136 C   0  0  0  0  0  0  0  0  0  0  0  0
  155.2734  139.7877  184.0661 O   0  0  0  0  0  0  0  0  0  0  0  0
  154.5977  138.2070  185.5194 N   0  0  0  0  0  0  0  0  0  0  0  0
  153.7962  137.1468  186.0211 C   0  0  0  0  0  0  0  0  0  0  0  0
  154.5176  136.1521  186.9316 C   0  0  0  0  0  0  0  0  0  0  0  0
  155.3364  136.9376  187.9355 C   0  0  0  0  0  0  0  0  0  0  0  0
  156.3867  137.6428  187.0843 C   0  0  0  0  0  0  0  0  0  0  0  0
  155.7740  138.7077  186.2748 C   0  0  0  0  0  0  0  0  0  0  0  0
  156.0221  136.1793  188.9058 N   0  0  0  0  0  0  0  0  0  0  0  0
  155.4284  136.4644  190.2100 C   0  0  0  0  0  0  0  0  0  0  0  0
  154.5341  137.5517  190.0319 N   0  0  0  0  0  0  0  0  0  0  0  0
  154.4532  137.8681  188.6540 C   0  0  0  0  0  0  0  0  0  0  0  0
  153.7056  138.8160  188.2524 O   0  0  0  0  0  0  0  0  0  0  0  0
  154.0239  138.0315  190.8119 H   0  0  0  0  0  0  0  0  0  0  0  0
  151.2024  138.8283  181.4358 C   0  0  0  0  0  0  0  0  0  0  0  0
  152.1411  139.8533  181.5324 C   0  0  0  0  0  0  0  0  0  0  0  0
  153.1445  139.8356  182.4576 C   0  0  0  0  0  0  0  0  0  0  0  0
  153.2855  138.7705  183.3733 C   0  0  0  0  0  0  0  0  0  0  0  0
  152.3553  137.7719  183.2685 C   0  0  0  0  0  0  0  0  0  0  0  0
  151.3468  137.8132  182.3185 C   0  0  0  0  0  0  0  0  0  0  0  0
  149.6624  137.4822  180.0961 C   0  0  0  0  0  0  0  0  0  0  0  0
  150.1197  138.8535  180.4517 C   0  0  0  0  0  0  0  0  0  0  0  0
  150.5437  139.5921  179.1988 C   0  0  0  0  0  0  0  0  0  0  0  0
  148.9036  139.5628  181.0757 C   0  0  0  0  0  0  0  0  0  0  0  0
  157.1075  135.2256  188.8733 C   0  0  0  0  0  0  0  0  0  0  0  0
  157.8721  135.0009  187.7653 C   0  0  0  0  0  0  0  0  0  0  0  0
  158.9046  134.0694  187.8104 C   0  0  0  0  0  0  0  0  0  0  0  0
  159.1800  133.3610  188.9487 C   0  0  0  0  0  0  0  0  0  0  0  0
  158.4324  133.5596  190.0842 C   0  0  0  0  0  0  0  0  0  0  0  0
  157.4174  134.4862  190.0158 C   0  0  0  0  0  0  0  0  0  0  0  0
 21 22  1  0  0  0
 22 23  1  0  0  0
 22 24  1  0  0  0
 22 15  1  0  0  0
 15 16  2  0  0  0
 16 17  1  0  0  0
 17 18  2  0  0  0
 18 19  1  0  0  0
 19 20  2  0  0  0
 18  1  1  0  0  0
  1  2  2  0  0  0
  1  3  1  0  0  0
  3  4  1  0  0  0
  4  5  1  0  0  0
  5  6  1  0  0  0
  6  7  1  0  0  0
  7  8  1  0  0  0
  6  9  1  0  0  0
  9 10  1  0  0  0
 10 11  1  0  0  0
 11 12  1  0  0  0
 12 13  2  0  0  0
  9 25  1  0  0  0
 25 26  2  0  0  0
 26 27  1  0  0  0
 27 28  2  0  0  0
 28 29  1  0  0  0
 29 30  2  0  0  0
 20 15  1  0  0  0
  8  3  1  0  0  0
 30 25  1  0  0  0
 12  6  1  0  0  0
 11 14  1  0  0  0
M  END
> <minimizedAffinity>
-7.89052

> <CNNscore>
0.3401126266

> <CNNaffinity>
5.3799052238

> <CNN_VS>
1.8297736645

> <CNNaffinity_variance>
0.0440826006

$$$$
[H]c1c([H])c([H])c(N2C([H])([H])N([H])C(=O)C23C([H])([H])C([H])([H])N(C(=O)c2c([H])c([H])c(C(C([H])([H])[H])(C([H])([H])[H])C([H])([H])[H])c([H])c2[H])C([H])([H])C3([H])[H])c([H])c1[H]


 30 33  0  0  0  0  0  0  0  0999 V2000
  152.8220  136.1367  184.5275 C   0  0  0  0  0  0  0  0  0  0  0  0
  153.2438  134.9175  184.2884 O   0  0  0  0  0  0  0  0  0  0  0  0
  153.2553  136.5940  185.7906 N   0  0  0  0  0  0  0  0  0  0  0  0
  152.9101  137.8541  186.3485 C   0  0  0  0  0  0  0  0  0  0  0  0
  152.9220  137.9216  187.8763 C   0  0  0  0  0  0  0  0  0  0  0  0
  154.1988  137.2713  188.3684 C   0  0  0  0  0  0  0  0  0  0  0  0
  154.0484  135.8090  187.9637 C   0  0  0  0  0  0  0  0  0  0  0  0
  154.1591  135.6568  186.5045 C   0  0  0  0  0  0  0  0  0  0  0  0
  154.4135  137.3017  189.7611 N   0  0  0  0  0  0  0  0  0  0  0  0
  155.5676  138.1578  190.0257 C   0  0  0  0  0  0  0  0  0  0  0  0
  156.1596  138.4583  188.7715 N   0  0  0  0  0  0  0  0  0  0  0  0
  155.3501  137.9318  187.7357 C   0  0  0  0  0  0  0  0  0  0  0  0
  155.6838  138.0808  186.5170 O   0  0  0  0  0  0  0  0  0  0  0  0
  157.0564  138.9880  188.6527 H   0  0  0  0  0  0  0  0  0  0  0  0
  150.7000  138.2267  181.4805 C   0  0  0  0  0  0  0  0  0  0  0  0
  152.0789  138.3118  181.6602 C   0  0  0  0  0  0  0  0  0  0  0  0
  152.7292  137.6163  182.6381 C   0  0  0  0  0  0  0  0  0  0  0  0
  152.0342  136.7678  183.5270 C   0  0  0  0  0  0  0  0  0  0  0  0
  150.6802  136.6957  183.3404 C   0  0  0  0  0  0  0  0  0  0  0  0
  150.0442  137.4113  182.3381 C   0  0  0  0  0  0  0  0  0  0  0  0
  148.9250  139.8398  181.0057 C   0  0  0  0  0  0  0  0  0  0  0  0
  150.0017  138.9819  180.4396 C   0  0  0  0  0  0  0  0  0  0  0  0
  149.4188  138.0524  179.3950 C   0  0  0  0  0  0  0  0  0  0  0  0
  151.0045  139.9389  179.7690 C   0  0  0  0  0  0  0  0  0  0  0  0
  153.7565  136.7138  190.9063 C   0  0  0  0  0  0  0  0  0  0  0  0
  152.5051  137.0730  191.3160 C   0  0  0  0  0  0  0  0  0  0  0  0
  151.9341  136.4589  192.4263 C   0  0  0  0  0  0  0  0  0  0  0  0
  152.5996  135.4921  193.1304 C   0  0  0  0  0  0  0  0  0  0  0  0
  153.8609  135.1037  192.7485 C   0  0  0  0  0  0  0  0  0  0  0  0
  154.4046  135.7245  191.6474 C   0  0  0  0  0  0  0  0  0  0  0  0
 21 22  1  0  0  0
 22 23  1  0  0  0
 22 24  1  0  0  0
 22 15  1  0  0  0
 15 16  2  0  0  0
 16 17  1  0  0  0
 17 18  2  0  0  0
 18 19  1  0  0  0
 19 20  2  0  0  0
 18  1  1  0  0  0
  1  2  2  0  0  0
  1  3  1  0  0  0
  3  4  1  0  0  0
  4  5  1  0  0  0
  5  6  1  0  0  0
  6  7  1  0  0  0
  7  8  1  0  0  0
  6  9  1  0  0  0
  9 10  1  0  0  0
 10 11  1  0  0  0
 11 12  1  0  0  0
 12 13  2  0  0  0
  9 25  1  0  0  0
 25 26  2  0  0  0
 26 27  1  0  0  0
 27 28  2  0  0  0
 28 29  1  0  0  0
 29 30  2  0  0  0
 20 15  1  0  0  0
  8  3  1  0  0  0
 30 25  1  0  0  0
 12  6  1  0  0  0
 11 14  1  0  0  0
M  END
> <minimizedAffinity>
-6.66467

> <CNNscore>
0.3306221366

> <CNNaffinity>
5.3639774323

> <CNN_VS>
1.7734496593

> <CNNaffinity_variance>
0.0708227754

$$$$
[H]c1nc2c([H])c(N([H])c3nn([H])c(C([H])([H])[H])c3[H])nc(N([H])[C@@]3([H])C([H])([H])[C@@]4([H])N(S(=O)(=O)C5([H])C([H])([H])C5([H])[H])[C@]([H])(C([H])([H])C([H])([H])C4([H])[H])C3([H])[H])c2c([H])c1[H]


 36 41  0  0  0  0  0  0  0  0999 V2000
  157.5321  140.4237  184.1644 C   0  0  0  0  0  0  0  0  0  0  0  0
  156.8091  140.9995  183.1589 C   0  0  0  0  0  0  0  0  0  0  0  0
  155.4835  140.6164  182.9737 C   0  0  0  0  0  0  0  0  0  0  0  0
  154.8010  141.1990  181.9788 N   0  0  0  0  0  0  0  0  0  0  0  0
  153.5169  140.8978  181.7180 C   0  0  0  0  0  0  0  0  0  0  0  0
  152.9276  139.9522  182.5290 C   0  0  0  0  0  0  0  0  0  0  0  0
  153.6158  139.3380  183.5630 C   0  0  0  0  0  0  0  0  0  0  0  0
  154.9321  139.6598  183.8152 C   0  0  0  0  0  0  0  0  0  0  0  0
  155.6692  139.0852  184.8259 C   0  0  0  0  0  0  0  0  0  0  0  0
  156.9250  139.4891  184.9543 N   0  0  0  0  0  0  0  0  0  0  0  0
  158.8795  140.7723  184.3999 N   0  0  0  0  0  0  0  0  0  0  0  0
  159.5725  140.3894  183.6661 H   0  0  0  0  0  0  0  0  0  0  0  0
  162.3079  143.2909  186.9397 C   0  0  0  0  0  0  0  0  0  0  0  0
  161.0104  142.6769  186.5765 C   0  0  0  0  0  0  0  0  0  0  0  0
  160.7665  141.9579  185.4439 C   0  0  0  0  0  0  0  0  0  0  0  0
  159.4254  141.5279  185.4294 C   0  0  0  0  0  0  0  0  0  0  0  0
  158.9330  142.0255  186.5798 N   0  0  0  0  0  0  0  0  0  0  0  0
  159.8466  142.6960  187.2556 N   0  0  0  0  0  0  0  0  0  0  0  0
  159.7611  143.1908  188.1755 H   0  0  0  0  0  0  0  0  0  0  0  0
  155.0581  138.1213  185.6621 N   0  0  0  0  0  0  0  0  0  0  0  0
  154.4163  137.4031  185.2540 H   0  0  0  0  0  0  0  0  0  0  0  0
  155.2840  138.0746  187.1223 C   0  0  0  0  0  0  0  0  0  0  0  0
  153.9834  138.3233  187.7881 C   0  0  0  0  0  0  0  0  0  0  0  0
  154.0510  137.8330  189.2463 C   0  0  0  0  0  0  0  0  0  0  0  0
  154.9447  138.7122  190.0301 C   0  0  0  0  0  0  0  0  0  0  0  0
  156.2619  138.1978  190.4119 C   0  0  0  0  0  0  0  0  0  0  0  0
  156.7004  136.9078  189.8368 C   0  0  0  0  0  0  0  0  0  0  0  0
  155.7407  136.2879  188.8548 C   0  0  0  0  0  0  0  0  0  0  0  0
  155.9834  136.8051  187.4434 C   0  0  0  0  0  0  0  0  0  0  0  0
  154.3859  136.4658  189.1883 N   0  0  0  0  0  0  0  0  0  0  0  0
  153.7185  135.5001  190.3961 S   0  0  0  0  0  0  0  0  0  0  0  0
  154.4834  134.1799  190.4026 O   0  0  0  0  0  0  0  0  0  0  0  0
  152.2868  135.1144  190.1173 O   0  0  0  0  0  0  0  0  0  0  0  0
  153.8253  136.1484  192.0231 C   0  0  0  0  0  0  0  0  0  0  0  0
  152.6246  136.7297  192.7000 C   0  0  0  0  0  0  0  0  0  0  0  0
  153.0288  135.3251  193.0539 C   0  0  0  0  0  0  0  0  0  0  0  0
 13 14  1  0  0  0
 14 15  2  0  0  0
 15 16  1  0  0  0
 16 11  1  0  0  0
 11  1  1  0  0  0
  1  2  2  0  0  0
  2  3  1  0  0  0
  3  4  2  0  0  0
  4  5  1  0  0  0
  5  6  2  0  0  0
  6  7  1  0  0  0
  7  8  2  0  0  0
  8  9  1  0  0  0
  9 20  1  0  0  0
 20 22  1  0  0  0
 22 23  1  0  0  0
 23 24  1  0  0  0
 24 25  1  0  0  0
 25 26  1  0  0  0
 26 27  1  0  0  0
 27 28  1  0  0  0
 28 29  1  0  0  0
 28 30  1  0  0  0
 30 31  1  0  0  0
 31 32  2  0  0  0
 31 33  2  0  0  0
 31 34  1  0  0  0
 34 35  1  0  0  0
 35 36  1  0  0  0
  9 10  2  0  0  0
 16 17  2  0  0  0
 17 18  1  0  0  0
 18 14  1  0  0  0
 10  1  1  0  0  0
  8  3  1  0  0  0
 29 22  1  0  0  0
 36 34  1  0  0  0
 30 24  1  0  0  0
 11 12  1  0  0  0
 20 21  1  0  0  0
 18 19  1  0  0  0
M  END
> <minimizedAffinity>
-9.64319

> <CNNscore>
0.5270138383

> <CNNaffinity>
7.1580162048

> <CNN_VS>
3.7723736763

> <CNNaffinity_variance>
0.1388830692

$$$$
[H]c1nc2c([H])c(N([H])c3nn([H])c(C([H])([H])[H])c3[H])nc(N([H])[C@@]3([H])C([H])([H])[C@@]4([H])N(S(=O)(=O)C5([H])C([H])([H])C5([H])[H])[C@]([H])(C([H])([H])C([H])([H])C4([H])[H])C3([H])[H])c2c([H])c1[H]


 36 41  0  0  0  0  0  0  0  0999 V2000
  158.4518  140.9303  183.3490 C   0  0  0  0  0  0  0  0  0  0  0  0
  157.9026  142.1178  182.9571 C   0  0  0  0  0  0  0  0  0  0  0  0
  156.5167  142.2484  182.9369 C   0  0  0  0  0  0  0  0  0  0  0  0
  156.0086  143.4253  182.5474 N   0  0  0  0  0  0  0  0  0  0  0  0
  154.6844  143.6517  182.4933 C   0  0  0  0  0  0  0  0  0  0  0  0
  153.8640  142.6071  182.8604 C   0  0  0  0  0  0  0  0  0  0  0  0
  154.3693  141.3823  183.2661 C   0  0  0  0  0  0  0  0  0  0  0  0
  155.7301  141.1689  183.3152 C   0  0  0  0  0  0  0  0  0  0  0  0
  156.2933  139.9760  183.7087 C   0  0  0  0  0  0  0  0  0  0  0  0
  157.6170  139.9104  183.7080 N   0  0  0  0  0  0  0  0  0  0  0  0
  159.8498  140.7394  183.3895 N   0  0  0  0  0  0  0  0  0  0  0  0
  160.2111  139.9596  182.7362 H   0  0  0  0  0  0  0  0  0  0  0  0
  161.7143  143.5077  187.0512 C   0  0  0  0  0  0  0  0  0  0  0  0
  161.6406  142.6770  185.8277 C   0  0  0  0  0  0  0  0  0  0  0  0
  160.5021  142.1346  185.3089 C   0  0  0  0  0  0  0  0  0  0  0  0
  160.8071  141.4069  184.1422 C   0  0  0  0  0  0  0  0  0  0  0  0
  162.1403  141.5590  184.0275 N   0  0  0  0  0  0  0  0  0  0  0  0
  162.6360  142.2964  185.0030 N   0  0  0  0  0  0  0  0  0  0  0  0
  163.6284  142.5841  185.1785 H   0  0  0  0  0  0  0  0  0  0  0  0
  155.4479  138.9087  184.0935 N   0  0  0  0  0  0  0  0  0  0  0  0
  155.1048  138.2263  183.3787 H   0  0  0  0  0  0  0  0  0  0  0  0
  155.0112  138.7014  185.4905 C   0  0  0  0  0  0  0  0  0  0  0  0
  153.7407  137.9389  185.4574 C   0  0  0  0  0  0  0  0  0  0  0  0
  153.4897  137.2992  186.8355 C   0  0  0  0  0  0  0  0  0  0  0  0
  153.1655  138.3495  187.8244 C   0  0  0  0  0  0  0  0  0  0  0  0
  154.1794  138.6979  188.8224 C   0  0  0  0  0  0  0  0  0  0  0  0
  155.5327  138.1204  188.6727 C   0  0  0  0  0  0  0  0  0  0  0  0
  155.7303  137.2671  187.4470 C   0  0  0  0  0  0  0  0  0  0  0  0
  156.1427  138.1097  186.2477 C   0  0  0  0  0  0  0  0  0  0  0  0
  154.6100  136.4886  187.1048 N   0  0  0  0  0  0  0  0  0  0  0  0
  154.3007  135.0875  187.9870 S   0  0  0  0  0  0  0  0  0  0  0  0
  152.9285  135.2472  188.6347 O   0  0  0  0  0  0  0  0  0  0  0  0
  155.2523  134.8974  189.1422 O   0  0  0  0  0  0  0  0  0  0  0  0
  154.2422  133.6054  187.0496 C   0  0  0  0  0  0  0  0  0  0  0  0
  153.4834  133.5389  185.7621 C   0  0  0  0  0  0  0  0  0  0  0  0
  154.9753  133.7169  185.6987 C   0  0  0  0  0  0  0  0  0  0  0  0
 13 14  1  0  0  0
 14 15  2  0  0  0
 15 16  1  0  0  0
 16 11  1  0  0  0
 11  1  1  0  0  0
  1  2  2  0  0  0
  2  3  1  0  0  0
  3  4  2  0  0  0
  4  5  1  0  0  0
  5  6  2  0  0  0
  6  7  1  0  0  0
  7  8  2  0  0  0
  8  9  1  0  0  0
  9 20  1  0  0  0
 20 22  1  0  0  0
 22 23  1  0  0  0
 23 24  1  0  0  0
 24 25  1  0  0  0
 25 26  1  0  0  0
 26 27  1  0  0  0
 27 28  1  0  0  0
 28 29  1  0  0  0
 28 30  1  0  0  0
 30 31  1  0  0  0
 31 32  2  0  0  0
 31 33  2  0  0  0
 31 34  1  0  0  0
 34 35  1  0  0  0
 35 36  1  0  0  0
  9 10  2  0  0  0
 16 17  2  0  0  0
 17 18  1  0  0  0
 18 14  1  0  0  0
 10  1  1  0  0  0
  8  3  1  0  0  0
 29 22  1  0  0  0
 36 34  1  0  0  0
 30 24  1  0  0  0
 11 12  1  0  0  0
 20 21  1  0  0  0
 18 19  1  0  0  0
M  END
> <minimizedAffinity>
-8.87462

> <CNNscore>
0.5119140744

> <CNNaffinity>
7.2698616982

> <CNN_VS>
3.7215445042

> <CNNaffinity_variance>
0.1437088847

$$$$
[H]c1nc2c([H])c(N([H])c3nn([H])c(C([H])([H])[H])c3[H])nc(N([H])[C@@]3([H])C([H])([H])[C@@]4([H])N(S(=O)(=O)C5([H])C([H])([H])C5([H])[H])[C@]([H])(C([H])([H])C([H])([H])C4([H])[H])C3([H])[H])c2c([H])c1[H]


 36 41  0  0  0  0  0  0  0  0999 V2000
  156.2698  140.8589  184.1984 C   0  0  0  0  0  0  0  0  0  0  0  0
  155.4449  141.0882  183.1344 C   0  0  0  0  0  0  0  0  0  0  0  0
  154.3838  140.2178  182.9010 C   0  0  0  0  0  0  0  0  0  0  0  0
  153.5928  140.4693  181.8492 N   0  0  0  0  0  0  0  0  0  0  0  0
  152.5430  139.6888  181.5389 C   0  0  0  0  0  0  0  0  0  0  0  0
  152.3145  138.6061  182.3603 C   0  0  0  0  0  0  0  0  0  0  0  0
  153.1204  138.3284  183.4528 C   0  0  0  0  0  0  0  0  0  0  0  0
  154.1924  139.1403  183.7552 C   0  0  0  0  0  0  0  0  0  0  0  0
  155.0296  138.9177  184.8251 C   0  0  0  0  0  0  0  0  0  0  0  0
  156.0220  139.7791  184.9975 N   0  0  0  0  0  0  0  0  0  0  0  0
  157.3612  141.7072  184.4846 N   0  0  0  0  0  0  0  0  0  0  0  0
  157.0885  142.6374  184.9597 H   0  0  0  0  0  0  0  0  0  0  0  0
  162.2533  142.3678  184.9069 C   0  0  0  0  0  0  0  0  0  0  0  0
  160.9514  141.8296  184.4510 C   0  0  0  0  0  0  0  0  0  0  0  0
  159.7287  142.2413  184.8923 C   0  0  0  0  0  0  0  0  0  0  0  0
  158.7145  141.5112  184.2425 C   0  0  0  0  0  0  0  0  0  0  0  0
  159.4043  140.6863  183.4316 N   0  0  0  0  0  0  0  0  0  0  0  0
  160.7070  140.8629  183.5446 N   0  0  0  0  0  0  0  0  0  0  0  0
  161.4884  140.3727  183.0473 H   0  0  0  0  0  0  0  0  0  0  0  0
  154.7865  137.8103  185.6715 N   0  0  0  0  0  0  0  0  0  0  0  0
  154.3497  136.9410  185.2868 H   0  0  0  0  0  0  0  0  0  0  0  0
  155.1255  137.8169  187.1103 C   0  0  0  0  0  0  0  0  0  0  0  0
  153.9229  138.2590  187.8551 C   0  0  0  0  0  0  0  0  0  0  0  0
  154.0530  137.8454  189.3327 C   0  0  0  0  0  0  0  0  0  0  0  0
  155.1055  138.6507  189.9881 C   0  0  0  0  0  0  0  0  0  0  0  0
  156.3803  138.0011  190.3017 C   0  0  0  0  0  0  0  0  0  0  0  0
  156.6152  136.6374  189.7798 C   0  0  0  0  0  0  0  0  0  0  0  0
  155.5113  136.0862  188.9154 C   0  0  0  0  0  0  0  0  0  0  0  0
  155.6952  136.4912  187.4592 C   0  0  0  0  0  0  0  0  0  0  0  0
  154.2191  136.4464  189.3381 N   0  0  0  0  0  0  0  0  0  0  0  0
  153.5453  135.6376  190.6530 S   0  0  0  0  0  0  0  0  0  0  0  0
  154.5079  134.5211  191.0468 O   0  0  0  0  0  0  0  0  0  0  0  0
  152.2559  134.9322  190.3122 O   0  0  0  0  0  0  0  0  0  0  0  0
  153.2961  136.6135  192.0897 C   0  0  0  0  0  0  0  0  0  0  0  0
  151.9178  136.9806  192.5408 C   0  0  0  0  0  0  0  0  0  0  0  0
  152.6112  135.8398  193.2330 C   0  0  0  0  0  0  0  0  0  0  0  0
 13 14  1  0  0  0
 14 15  2  0  0  0
 15 16  1  0  0  0
 16 11  1  0  0  0
 11  1  1  0  0  0
  1  2  2  0  0  0
  2  3  1  0  0  0
  3  4  2  0  0  0
  4  5  1  0  0  0
  5  6  2  0  0  0
  6  7  1  0  0  0
  7  8  2  0  0  0
  8  9  1  0  0  0
  9 20  1  0  0  0
 20 22  1  0  0  0
 22 23  1  0  0  0
 23 24  1  0  0  0
 24 25  1  0  0  0
 25 26  1  0  0  0
 26 27  1  0  0  0
 27 28  1  0  0  0
 28 29  1  0  0  0
 28 30  1  0  0  0
 30 31  1  0  0  0
 31 32  2  0  0  0
 31 33  2  0  0  0
 31 34  1  0  0  0
 34 35  1  0  0  0
 35 36  1  0  0  0
  9 10  2  0  0  0
 16 17  2  0  0  0
 17 18  1  0  0  0
 18 14  1  0  0  0
 10  1  1  0  0  0
  8  3  1  0  0  0
 29 22  1  0  0  0
 36 34  1  0  0  0
 30 24  1  0  0  0
 11 12  1  0  0  0
 20 21  1  0  0  0
 18 19  1  0  0  0
M  END
> <minimizedAffinity>
-9.32196

> <CNNscore>
0.3255066276

> <CNNaffinity>
6.7155661583

> <CNN_VS>
2.1859612465

> <CNNaffinity_variance>
0.0736785084

$$$$
[H]c1nc2c([H])c(N([H])c3nn([H])c(C([H])([H])[H])c3[H])nc(N([H])[C@@]3([H])C([H])([H])[C@@]4([H])N(S(=O)(=O)C5([H])C([H])([H])C5([H])[H])[C@]([H])(C([H])([H])C([H])([H])C4([H])[H])C3([H])[H])c2c([H])c1[H]


 36 41  0  0  0  0  0  0  0  0999 V2000
  154.8204  138.5525  185.4868 C   0  0  0  0  0  0  0  0  0  0  0  0
  155.7178  138.3609  186.4985 C   0  0  0  0  0  0  0  0  0  0  0  0
  155.2532  137.9608  187.7483 C   0  0  0  0  0  0  0  0  0  0  0  0
  156.1580  137.7817  188.7201 N   0  0  0  0  0  0  0  0  0  0  0  0
  155.8109  137.3969  189.9606 C   0  0  0  0  0  0  0  0  0  0  0  0
  154.4675  137.1928  190.1906 C   0  0  0  0  0  0  0  0  0  0  0  0
  153.5159  137.3725  189.1995 C   0  0  0  0  0  0  0  0  0  0  0  0
  153.8909  137.7674  187.9333 C   0  0  0  0  0  0  0  0  0  0  0  0
  152.9944  137.9631  186.9072 C   0  0  0  0  0  0  0  0  0  0  0  0
  153.4945  138.3435  185.7403 N   0  0  0  0  0  0  0  0  0  0  0  0
  155.2328  138.9576  184.1991 N   0  0  0  0  0  0  0  0  0  0  0  0
  156.0992  138.4339  183.8245 H   0  0  0  0  0  0  0  0  0  0  0  0
  153.8924  143.4614  182.6283 C   0  0  0  0  0  0  0  0  0  0  0  0
  154.0795  141.9930  182.6620 C   0  0  0  0  0  0  0  0  0  0  0  0
  154.6846  141.2969  183.6663 C   0  0  0  0  0  0  0  0  0  0  0  0
  154.6847  139.9215  183.3628 C   0  0  0  0  0  0  0  0  0  0  0  0
  154.0659  139.8727  182.1677 N   0  0  0  0  0  0  0  0  0  0  0  0
  153.7092  141.0725  181.7502 N   0  0  0  0  0  0  0  0  0  0  0  0
  153.2162  141.3482  180.8675 H   0  0  0  0  0  0  0  0  0  0  0  0
  151.6169  137.7439  187.1446 N   0  0  0  0  0  0  0  0  0  0  0  0
  151.1455  138.1986  187.9603 H   0  0  0  0  0  0  0  0  0  0  0  0
  150.7858  136.8820  186.2776 C   0  0  0  0  0  0  0  0  0  0  0  0
  149.4288  137.4753  186.2197 C   0  0  0  0  0  0  0  0  0  0  0  0
  148.6750  136.9149  184.9995 C   0  0  0  0  0  0  0  0  0  0  0  0
  148.3529  135.4889  185.2203 C   0  0  0  0  0  0  0  0  0  0  0  0
  149.1145  134.4833  184.4758 C   0  0  0  0  0  0  0  0  0  0  0  0
  150.2841  134.9343  183.6910 C   0  0  0  0  0  0  0  0  0  0  0  0
  150.5975  136.4038  183.8001 C   0  0  0  0  0  0  0  0  0  0  0  0
  151.5016  136.6889  184.9916 C   0  0  0  0  0  0  0  0  0  0  0  0
  149.4601  137.2279  183.8723 N   0  0  0  0  0  0  0  0  0  0  0  0
  148.6065  137.5513  182.4567 S   0  0  0  0  0  0  0  0  0  0  0  0
  147.8116  138.8338  182.6835 O   0  0  0  0  0  0  0  0  0  0  0  0
  147.5667  136.5038  182.1441 O   0  0  0  0  0  0  0  0  0  0  0  0
  149.5905  137.8184  181.0288 C   0  0  0  0  0  0  0  0  0  0  0  0
  149.4526  139.0710  180.2226 C   0  0  0  0  0  0  0  0  0  0  0  0
  150.5948  138.9752  181.1961 C   0  0  0  0  0  0  0  0  0  0  0  0
 13 14  1  0  0  0
 14 15  2  0  0  0
 15 16  1  0  0  0
 16 11  1  0  0  0
 11  1  1  0  0  0
  1  2  2  0  0  0
  2  3  1  0  0  0
  3  4  2  0  0  0
  4  5  1  0  0  0
  5  6  2  0  0  0
  6  7  1  0  0  0
  7  8  2  0  0  0
  8  9  1  0  0  0
  9 20  1  0  0  0
 20 22  1  0  0  0
 22 23  1  0  0  0
 23 24  1  0  0  0
 24 25  1  0  0  0
 25 26  1  0  0  0
 26 27  1  0  0  0
 27 28  1  0  0  0
 28 29  1  0  0  0
 28 30  1  0  0  0
 30 31  1  0  0  0
 31 32  2  0  0  0
 31 33  2  0  0  0
 31 34  1  0  0  0
 34 35  1  0  0  0
 35 36  1  0  0  0
  9 10  2  0  0  0
 16 17  2  0  0  0
 17 18  1  0  0  0
 18 14  1  0  0  0
 10  1  1  0  0  0
  8  3  1  0  0  0
 29 22  1  0  0  0
 36 34  1  0  0  0
 30 24  1  0  0  0
 11 12  1  0  0  0
 20 21  1  0  0  0
 18 19  1  0  0  0
M  END
> <minimizedAffinity>
-6.67591

> <CNNscore>
0.2585369945

> <CNNaffinity>
6.2408523560

> <CNN_VS>
1.6134911776

> <CNNaffinity_variance>
0.1092326641

$$$$
[H]c1nc2c([H])c(N([H])c3nn([H])c(C([H])([H])[H])c3[H])nc(N([H])[C@@]3([H])C([H])([H])[C@@]4([H])N(S(=O)(=O)C5([H])C([H])([H])C5([H])[H])[C@]([H])(C([H])([H])C([H])([H])C4([H])[H])C3([H])[H])c2c([H])c1[H]


 36 41  0  0  0  0  0  0  0  0999 V2000
  152.3261  138.7887  181.7294 C   0  0  0  0  0  0  0  0  0  0  0  0
  152.2873  137.7456  182.6102 C   0  0  0  0  0  0  0  0  0  0  0  0
  153.0406  137.8183  183.7787 C   0  0  0  0  0  0  0  0  0  0  0  0
  152.9817  136.7791  184.6223 N   0  0  0  0  0  0  0  0  0  0  0  0
  153.6716  136.7524  185.7759 C   0  0  0  0  0  0  0  0  0  0  0  0
  154.4509  137.8541  186.0549 C   0  0  0  0  0  0  0  0  0  0  0  0
  154.5257  138.9389  185.1960 C   0  0  0  0  0  0  0  0  0  0  0  0
  153.8110  138.9483  184.0175 C   0  0  0  0  0  0  0  0  0  0  0  0
  153.8434  139.9945  183.1234 C   0  0  0  0  0  0  0  0  0  0  0  0
  153.1063  139.8692  182.0291 N   0  0  0  0  0  0  0  0  0  0  0  0
  151.5837  138.7713  180.5290 N   0  0  0  0  0  0  0  0  0  0  0  0
  152.1865  138.7492  179.6338 H   0  0  0  0  0  0  0  0  0  0  0  0
  147.2326  137.9319  178.3128 C   0  0  0  0  0  0  0  0  0  0  0  0
  148.2250  138.3843  179.3142 C   0  0  0  0  0  0  0  0  0  0  0  0
  149.5760  138.2294  179.2129 C   0  0  0  0  0  0  0  0  0  0  0  0
  150.2070  138.7784  180.3462 C   0  0  0  0  0  0  0  0  0  0  0  0
  149.1743  139.2404  181.0766 N   0  0  0  0  0  0  0  0  0  0  0  0
  148.0160  139.0166  180.4857 N   0  0  0  0  0  0  0  0  0  0  0  0
  147.0488  139.2591  180.8084 H   0  0  0  0  0  0  0  0  0  0  0  0
  154.6377  141.1279  183.4175 N   0  0  0  0  0  0  0  0  0  0  0  0
  154.3314  141.8080  184.1510 H   0  0  0  0  0  0  0  0  0  0  0  0
  155.9121  141.4101  182.7237 C   0  0  0  0  0  0  0  0  0  0  0  0
  156.3655  142.7573  183.1435 C   0  0  0  0  0  0  0  0  0  0  0  0
  157.8676  142.9109  182.8414 C   0  0  0  0  0  0  0  0  0  0  0  0
  158.0805  142.9816  181.3800 C   0  0  0  0  0  0  0  0  0  0  0  0
  158.6621  141.8175  180.7075 C   0  0  0  0  0  0  0  0  0  0  0  0
  158.8288  140.5724  181.4880 C   0  0  0  0  0  0  0  0  0  0  0  0
  158.3131  140.6320  182.9023 C   0  0  0  0  0  0  0  0  0  0  0  0
  156.8349  140.2730  182.9669 C   0  0  0  0  0  0  0  0  0  0  0  0
  158.5183  141.8714  183.5347 N   0  0  0  0  0  0  0  0  0  0  0  0
  160.0561  142.2352  184.1177 S   0  0  0  0  0  0  0  0  0  0  0  0
  160.2476  143.7441  183.9955 O   0  0  0  0  0  0  0  0  0  0  0  0
  161.1596  141.6378  183.2802 O   0  0  0  0  0  0  0  0  0  0  0  0
  160.3381  141.8298  185.8014 C   0  0  0  0  0  0  0  0  0  0  0  0
  161.0309  142.7879  186.7178 C   0  0  0  0  0  0  0  0  0  0  0  0
  159.5303  142.7079  186.7767 C   0  0  0  0  0  0  0  0  0  0  0  0
 13 14  1  0  0  0
 14 15  2  0  0  0
 15 16  1  0  0  0
 16 11  1  0  0  0
 11  1  1  0  0  0
  1  2  2  0  0  0
  2  3  1  0  0  0
  3  4  2  0  0  0
  4  5  1  0  0  0
  5  6  2  0  0  0
  6  7  1  0  0  0
  7  8  2  0  0  0
  8  9  1  0  0  0
  9 20  1  0  0  0
 20 22  1  0  0  0
 22 23  1  0  0  0
 23 24  1  0  0  0
 24 25  1  0  0  0
 25 26  1  0  0  0
 26 27  1  0  0  0
 27 28  1  0  0  0
 28 29  1  0  0  0
 28 30  1  0  0  0
 30 31  1  0  0  0
 31 32  2  0  0  0
 31 33  2  0  0  0
 31 34  1  0  0  0
 34 35  1  0  0  0
 35 36  1  0  0  0
  9 10  2  0  0  0
 16 17  2  0  0  0
 17 18  1  0  0  0
 18 14  1  0  0  0
 10  1  1  0  0  0
  8  3  1  0  0  0
 29 22  1  0  0  0
 36 34  1  0  0  0
 30 24  1  0  0  0
 11 12  1  0  0  0
 20 21  1  0  0  0
 18 19  1  0  0  0
M  END
> <minimizedAffinity>
-9.17405

> <CNNscore>
0.2547253370

> <CNNaffinity>
6.7546896935

> <CNN_VS>
1.7205905914

> <CNNaffinity_variance>
0.0303792153

$$$$
[H]c1nc2c([H])c(N([H])c3nn([H])c(C([H])([H])[H])c3[H])nc(N([H])[C@@]3([H])C([H])([H])[C@@]4([H])N(S(=O)(=O)C5([H])C([H])([H])C5([H])[H])[C@]([H])(C([H])([H])C([H])([H])C4([H])[H])C3([H])[H])c2c([H])c1[H]


 36 41  0  0  0  0  0  0  0  0999 V2000
  158.0895  140.6544  183.9100 C   0  0  0  0  0  0  0  0  0  0  0  0
  157.6720  141.8201  183.3338 C   0  0  0  0  0  0  0  0  0  0  0  0
  156.3072  142.0493  183.1828 C   0  0  0  0  0  0  0  0  0  0  0  0
  155.9293  143.2019  182.6137 N   0  0  0  0  0  0  0  0  0  0  0  0
  154.6364  143.5170  182.4227 C   0  0  0  0  0  0  0  0  0  0  0  0
  153.7065  142.5908  182.8431 C   0  0  0  0  0  0  0  0  0  0  0  0
  154.0764  141.3932  183.4338 C   0  0  0  0  0  0  0  0  0  0  0  0
  155.4072  141.0875  183.6214 C   0  0  0  0  0  0  0  0  0  0  0  0
  155.8381  139.9156  184.2010 C   0  0  0  0  0  0  0  0  0  0  0  0
  157.1482  139.7527  184.3184 N   0  0  0  0  0  0  0  0  0  0  0  0
  159.4599  140.3672  184.0895 N   0  0  0  0  0  0  0  0  0  0  0  0
  159.7396  139.3566  183.8328 H   0  0  0  0  0  0  0  0  0  0  0  0
  161.7890  143.6189  187.0134 C   0  0  0  0  0  0  0  0  0  0  0  0
  161.5283  142.6837  185.8955 C   0  0  0  0  0  0  0  0  0  0  0  0
  160.3746  141.9821  185.7056 C   0  0  0  0  0  0  0  0  0  0  0  0
  160.4795  141.1936  184.5433 C   0  0  0  0  0  0  0  0  0  0  0  0
  161.7178  141.4751  184.0945 N   0  0  0  0  0  0  0  0  0  0  0  0
  162.3373  142.3411  184.8737 N   0  0  0  0  0  0  0  0  0  0  0  0
  163.2997  142.7456  184.7821 H   0  0  0  0  0  0  0  0  0  0  0  0
  154.8804  138.9710  184.6396 N   0  0  0  0  0  0  0  0  0  0  0  0
  154.1927  138.5670  183.9626 H   0  0  0  0  0  0  0  0  0  0  0  0
  154.7971  138.5127  186.0425 C   0  0  0  0  0  0  0  0  0  0  0  0
  153.5165  139.0055  186.6028 C   0  0  0  0  0  0  0  0  0  0  0  0
  153.1597  138.1923  187.8608 C   0  0  0  0  0  0  0  0  0  0  0  0
  154.0960  138.5252  188.9555 C   0  0  0  0  0  0  0  0  0  0  0  0
  155.1147  137.5379  189.3201 C   0  0  0  0  0  0  0  0  0  0  0  0
  155.2738  136.3483  188.4559 C   0  0  0  0  0  0  0  0  0  0  0  0
  154.3868  136.3209  187.2384 C   0  0  0  0  0  0  0  0  0  0  0  0
  155.0338  137.0474  186.0671 C   0  0  0  0  0  0  0  0  0  0  0  0
  153.0996  136.8442  187.4560 N   0  0  0  0  0  0  0  0  0  0  0  0
  151.9663  135.8918  188.2594 S   0  0  0  0  0  0  0  0  0  0  0  0
  152.3666  134.4335  188.0564 O   0  0  0  0  0  0  0  0  0  0  0  0
  150.5828  135.9976  187.6669 O   0  0  0  0  0  0  0  0  0  0  0  0
  151.8628  136.1458  189.9924 C   0  0  0  0  0  0  0  0  0  0  0  0
  151.1917  135.1441  190.8780 C   0  0  0  0  0  0  0  0  0  0  0  0
  152.6936  135.1309  190.8014 C   0  0  0  0  0  0  0  0  0  0  0  0
 13 14  1  0  0  0
 14 15  2  0  0  0
 15 16  1  0  0  0
 16 11  1  0  0  0
 11  1  1  0  0  0
  1  2  2  0  0  0
  2  3  1  0  0  0
  3  4  2  0  0  0
  4  5  1  0  0  0
  5  6  2  0  0  0
  6  7  1  0  0  0
  7  8  2  0  0  0
  8  9  1  0  0  0
  9 20  1  0  0  0
 20 22  1  0  0  0
 22 23  1  0  0  0
 23 24  1  0  0  0
 24 25  1  0  0  0
 25 26  1  0  0  0
 26 27  1  0  0  0
 27 28  1  0  0  0
 28 29  1  0  0  0
 28 30  1  0  0  0
 30 31  1  0  0  0
 31 32  2  0  0  0
 31 33  2  0  0  0
 31 34  1  0  0  0
 34 35  1  0  0  0
 35 36  1  0  0  0
  9 10  2  0  0  0
 16 17  2  0  0  0
 17 18  1  0  0  0
 18 14  1  0  0  0
 10  1  1  0  0  0
  8  3  1  0  0  0
 29 22  1  0  0  0
 36 34  1  0  0  0
 30 24  1  0  0  0
 11 12  1  0  0  0
 20 21  1  0  0  0
 18 19  1  0  0  0
M  END
> <minimizedAffinity>
-8.18163

> <CNNscore>
0.2369880676

> <CNNaffinity>
6.8078613281

> <CNN_VS>
1.6133818626

> <CNNaffinity_variance>
0.0682961419

$$$$
[H]c1nc2c([H])c(N([H])c3nn([H])c(C([H])([H])[H])c3[H])nc(N([H])[C@@]3([H])C([H])([H])[C@@]4([H])N(S(=O)(=O)C5([H])C([H])([H])C5([H])[H])[C@]([H])(C([H])([H])C([H])([H])C4([H])[H])C3([H])[H])c2c([H])c1[H]


 36 41  0  0  0  0  0  0  0  0999 V2000
  153.3551  139.4449  182.7845 C   0  0  0  0  0  0  0  0  0  0  0  0
  153.9273  140.5372  182.1972 C   0  0  0  0  0  0  0  0  0  0  0  0
  155.0971  141.0621  182.7397 C   0  0  0  0  0  0  0  0  0  0  0  0
  155.6338  142.1340  182.1413 N   0  0  0  0  0  0  0  0  0  0  0  0
  156.7609  142.7150  182.5879 C   0  0  0  0  0  0  0  0  0  0  0  0
  157.3461  142.1524  183.7016 C   0  0  0  0  0  0  0  0  0  0  0  0
  156.8071  141.0441  184.3351 C   0  0  0  0  0  0  0  0  0  0  0  0
  155.6506  140.4619  183.8624 C   0  0  0  0  0  0  0  0  0  0  0  0
  155.0663  139.3611  184.4471 C   0  0  0  0  0  0  0  0  0  0  0  0
  153.9546  138.9058  183.8871 N   0  0  0  0  0  0  0  0  0  0  0  0
  152.1696  138.8692  182.2790 N   0  0  0  0  0  0  0  0  0  0  0  0
  151.7203  138.1338  182.9291 H   0  0  0  0  0  0  0  0  0  0  0  0
  148.7186  138.4414  178.7497 C   0  0  0  0  0  0  0  0  0  0  0  0
  149.9229  138.9047  179.4758 C   0  0  0  0  0  0  0  0  0  0  0  0
  150.3302  138.4555  180.6972 C   0  0  0  0  0  0  0  0  0  0  0  0
  151.5138  139.1162  181.0800 C   0  0  0  0  0  0  0  0  0  0  0  0
  151.7518  139.9412  180.0425 N   0  0  0  0  0  0  0  0  0  0  0  0
  150.8324  139.8265  179.1031 N   0  0  0  0  0  0  0  0  0  0  0  0
  150.7514  140.3327  178.1890 H   0  0  0  0  0  0  0  0  0  0  0  0
  155.6748  138.7807  185.5849 N   0  0  0  0  0  0  0  0  0  0  0  0
  156.6607  139.0250  185.8355 H   0  0  0  0  0  0  0  0  0  0  0  0
  154.9723  137.8205  186.4622 C   0  0  0  0  0  0  0  0  0  0  0  0
  155.9975  137.0951  187.2493 C   0  0  0  0  0  0  0  0  0  0  0  0
  155.3362  136.4450  188.4786 C   0  0  0  0  0  0  0  0  0  0  0  0
  154.4658  135.3298  188.0488 C   0  0  0  0  0  0  0  0  0  0  0  0
  153.0149  135.5236  188.1012 C   0  0  0  0  0  0  0  0  0  0  0  0
  152.5025  136.8787  188.3986 C   0  0  0  0  0  0  0  0  0  0  0  0
  153.5600  137.9398  188.5583 C   0  0  0  0  0  0  0  0  0  0  0  0
  153.9287  138.5587  187.2169 C   0  0  0  0  0  0  0  0  0  0  0  0
  154.7285  137.4915  189.2000 N   0  0  0  0  0  0  0  0  0  0  0  0
  154.7102  137.3078  190.8742 S   0  0  0  0  0  0  0  0  0  0  0  0
  154.6904  138.7044  191.4884 O   0  0  0  0  0  0  0  0  0  0  0  0
  155.9677  136.6692  191.4099 O   0  0  0  0  0  0  0  0  0  0  0  0
  153.3200  136.4561  191.5228 C   0  0  0  0  0  0  0  0  0  0  0  0
  153.3635  134.9795  191.7583 C   0  0  0  0  0  0  0  0  0  0  0  0
  153.5634  135.8927  192.9363 C   0  0  0  0  0  0  0  0  0  0  0  0
 13 14  1  0  0  0
 14 15  2  0  0  0
 15 16  1  0  0  0
 16 11  1  0  0  0
 11  1  1  0  0  0
  1  2  2  0  0  0
  2  3  1  0  0  0
  3  4  2  0  0  0
  4  5  1  0  0  0
  5  6  2  0  0  0
  6  7  1  0  0  0
  7  8  2  0  0  0
  8  9  1  0  0  0
  9 20  1  0  0  0
 20 22  1  0  0  0
 22 23  1  0  0  0
 23 24  1  0  0  0
 24 25  1  0  0  0
 25 26  1  0  0  0
 26 27  1  0  0  0
 27 28  1  0  0  0
 28 29  1  0  0  0
 28 30  1  0  0  0
 30 31  1  0  0  0
 31 32  2  0  0  0
 31 33  2  0  0  0
 31 34  1  0  0  0
 34 35  1  0  0  0
 35 36  1  0  0  0
  9 10  2  0  0  0
 16 17  2  0  0  0
 17 18  1  0  0  0
 18 14  1  0  0  0
 10  1  1  0  0  0
  8  3  1  0  0  0
 29 22  1  0  0  0
 36 34  1  0  0  0
 30 24  1  0  0  0
 11 12  1  0  0  0
 20 21  1  0  0  0
 18 19  1  0  0  0
M  END
> <minimizedAffinity>
-8.06321

> <CNNscore>
0.2309249640

> <CNNaffinity>
6.1137890816

> <CNN_VS>
1.4118264914

> <CNNaffinity_variance>
0.1006287485

$$$$
[H]c1nc2c([H])c(N([H])c3nn([H])c(C([H])([H])[H])c3[H])nc(N([H])[C@@]3([H])C([H])([H])[C@@]4([H])N(S(=O)(=O)C5([H])C([H])([H])C5([H])[H])[C@]([H])(C([H])([H])C([H])([H])C4([H])[H])C3([H])[H])c2c([H])c1[H]


 36 41  0  0  0  0  0  0  0  0999 V2000
  152.7787  139.4852  182.4431 C   0  0  0  0  0  0  0  0  0  0  0  0
  153.2373  140.6925  181.9987 C   0  0  0  0  0  0  0  0  0  0  0  0
  154.3967  141.2232  182.5576 C   0  0  0  0  0  0  0  0  0  0  0  0
  154.8207  142.4092  182.1009 N   0  0  0  0  0  0  0  0  0  0  0  0
  155.9281  143.0058  182.5755 C   0  0  0  0  0  0  0  0  0  0  0  0
  156.6152  142.3352  183.5641 C   0  0  0  0  0  0  0  0  0  0  0  0
  156.1935  141.1080  184.0502 C   0  0  0  0  0  0  0  0  0  0  0  0
  155.0555  140.5118  183.5512 C   0  0  0  0  0  0  0  0  0  0  0  0
  154.5851  139.2955  183.9922 C   0  0  0  0  0  0  0  0  0  0  0  0
  153.4777  138.8406  183.4237 N   0  0  0  0  0  0  0  0  0  0  0  0
  151.6093  138.8978  181.9139 N   0  0  0  0  0  0  0  0  0  0  0  0
  151.1235  138.1986  182.5776 H   0  0  0  0  0  0  0  0  0  0  0  0
  148.3466  138.2883  178.2353 C   0  0  0  0  0  0  0  0  0  0  0  0
  149.5041  138.7993  179.0045 C   0  0  0  0  0  0  0  0  0  0  0  0
  149.8591  138.3965  180.2579 C   0  0  0  0  0  0  0  0  0  0  0  0
  151.0089  139.0938  180.6770 C   0  0  0  0  0  0  0  0  0  0  0  0
  151.2817  139.8916  179.6268 N   0  0  0  0  0  0  0  0  0  0  0  0
  150.4124  139.7286  178.6477 N   0  0  0  0  0  0  0  0  0  0  0  0
  150.3667  140.2046  177.7151 H   0  0  0  0  0  0  0  0  0  0  0  0
  155.2982  138.6058  185.0010 N   0  0  0  0  0  0  0  0  0  0  0  0
  156.3442  138.5936  184.9901 H   0  0  0  0  0  0  0  0  0  0  0  0
  154.6249  137.8809  186.0994 C   0  0  0  0  0  0  0  0  0  0  0  0
  153.5107  138.7298  186.5838 C   0  0  0  0  0  0  0  0  0  0  0  0
  152.5112  137.8642  187.3730 C   0  0  0  0  0  0  0  0  0  0  0  0
  153.1189  137.4358  188.6511 C   0  0  0  0  0  0  0  0  0  0  0  0
  153.5367  136.0383  188.7854 C   0  0  0  0  0  0  0  0  0  0  0  0
  153.5038  135.1816  187.5803 C   0  0  0  0  0  0  0  0  0  0  0  0
  153.0899  135.8807  186.3116 C   0  0  0  0  0  0  0  0  0  0  0  0
  154.2852  136.5187  185.6171 C   0  0  0  0  0  0  0  0  0  0  0  0
  152.0864  136.8494  186.4930 N   0  0  0  0  0  0  0  0  0  0  0  0
  150.4942  136.3356  186.6874 S   0  0  0  0  0  0  0  0  0  0  0  0
  149.5917  137.5458  186.4659 O   0  0  0  0  0  0  0  0  0  0  0  0
  150.1901  135.8805  188.0933 O   0  0  0  0  0  0  0  0  0  0  0  0
  149.9594  135.0999  185.5624 C   0  0  0  0  0  0  0  0  0  0  0  0
  148.7521  135.3109  184.7046 C   0  0  0  0  0  0  0  0  0  0  0  0
  150.1073  135.5220  184.0877 C   0  0  0  0  0  0  0  0  0  0  0  0
 13 14  1  0  0  0
 14 15  2  0  0  0
 15 16  1  0  0  0
 16 11  1  0  0  0
 11  1  1  0  0  0
  1  2  2  0  0  0
  2  3  1  0  0  0
  3  4  2  0  0  0
  4  5  1  0  0  0
  5  6  2  0  0  0
  6  7  1  0  0  0
  7  8  2  0  0  0
  8  9  1  0  0  0
  9 20  1  0  0  0
 20 22  1  0  0  0
 22 23  1  0  0  0
 23 24  1  0  0  0
 24 25  1  0  0  0
 25 26  1  0  0  0
 26 27  1  0  0  0
 27 28  1  0  0  0
 28 29  1  0  0  0
 28 30  1  0  0  0
 30 31  1  0  0  0
 31 32  2  0  0  0
 31 33  2  0  0  0
 31 34  1  0  0  0
 34 35  1  0  0  0
 35 36  1  0  0  0
  9 10  2  0  0  0
 16 17  2  0  0  0
 17 18  1  0  0  0
 18 14  1  0  0  0
 10  1  1  0  0  0
  8  3  1  0  0  0
 29 22  1  0  0  0
 36 34  1  0  0  0
 30 24  1  0  0  0
 11 12  1  0  0  0
 20 21  1  0  0  0
 18 19  1  0  0  0
M  END
> <minimizedAffinity>
-7.10496

> <CNNscore>
0.2111099958

> <CNNaffinity>
6.1384153366

> <CNN_VS>
1.2958807945

> <CNNaffinity_variance>
0.1960107982

$$$$
[H]c1nc2c([H])c(N([H])c3nn([H])c(C([H])([H])[H])c3[H])nc(N([H])[C@@]3([H])C([H])([H])[C@@]4([H])N(S(=O)(=O)C5([H])C([H])([H])C5([H])[H])[C@]([H])(C([H])([H])C([H])([H])C4([H])[H])C3([H])[H])c2c([H])c1[H]


 36 41  0  0  0  0  0  0  0  0999 V2000
  153.8126  138.1391  184.6147 C   0  0  0  0  0  0  0  0  0  0  0  0
  152.9159  137.6465  183.7099 C   0  0  0  0  0  0  0  0  0  0  0  0
  152.5494  138.4349  182.6226 C   0  0  0  0  0  0  0  0  0  0  0  0
  151.6676  137.9238  181.7530 N   0  0  0  0  0  0  0  0  0  0  0  0
  151.2498  138.6052  180.6719 C   0  0  0  0  0  0  0  0  0  0  0  0
  151.7749  139.8671  180.4964 C   0  0  0  0  0  0  0  0  0  0  0  0
  152.6879  140.4139  181.3839 C   0  0  0  0  0  0  0  0  0  0  0  0
  153.1045  139.7001  182.4869 C   0  0  0  0  0  0  0  0  0  0  0  0
  154.0077  140.1876  183.4044 C   0  0  0  0  0  0  0  0  0  0  0  0
  154.3186  139.3926  184.4183 N   0  0  0  0  0  0  0  0  0  0  0  0
  154.2216  137.3857  185.7362 N   0  0  0  0  0  0  0  0  0  0  0  0
  154.3723  136.3358  185.5354 H   0  0  0  0  0  0  0  0  0  0  0  0
  156.6798  138.0564  189.9853 C   0  0  0  0  0  0  0  0  0  0  0  0
  155.5961  138.1008  188.9774 C   0  0  0  0  0  0  0  0  0  0  0  0
  155.6655  137.5785  187.7197 C   0  0  0  0  0  0  0  0  0  0  0  0
  154.4527  137.8042  187.0401 C   0  0  0  0  0  0  0  0  0  0  0  0
  153.7108  138.4633  187.9505 N   0  0  0  0  0  0  0  0  0  0  0  0
  154.3661  138.6414  189.0818 N   0  0  0  0  0  0  0  0  0  0  0  0
  154.0525  139.1149  189.9626 H   0  0  0  0  0  0  0  0  0  0  0  0
  154.5516  141.4801  183.2161 N   0  0  0  0  0  0  0  0  0  0  0  0
  154.0339  142.3227  183.5573 H   0  0  0  0  0  0  0  0  0  0  0  0
  155.8479  141.7094  182.5437 C   0  0  0  0  0  0  0  0  0  0  0  0
  156.3644  143.0230  182.9957 C   0  0  0  0  0  0  0  0  0  0  0  0
  157.8763  143.1046  182.7151 C   0  0  0  0  0  0  0  0  0  0  0  0
  158.1119  143.1922  181.2581 C   0  0  0  0  0  0  0  0  0  0  0  0
  158.6418  142.0128  180.5699 C   0  0  0  0  0  0  0  0  0  0  0  0
  158.7339  140.7460  181.3275 C   0  0  0  0  0  0  0  0  0  0  0  0
  158.2032  140.8050  182.7363 C   0  0  0  0  0  0  0  0  0  0  0  0
  156.7077  140.5216  182.7756 C   0  0  0  0  0  0  0  0  0  0  0  0
  158.4635  142.0197  183.3956 N   0  0  0  0  0  0  0  0  0  0  0  0
  160.0100  142.2924  184.0045 S   0  0  0  0  0  0  0  0  0  0  0  0
  160.2529  143.7986  183.9812 O   0  0  0  0  0  0  0  0  0  0  0  0
  161.0965  141.7135  183.1324 O   0  0  0  0  0  0  0  0  0  0  0  0
  160.2706  141.7690  185.6589 C   0  0  0  0  0  0  0  0  0  0  0  0
  160.3571  142.7612  186.7751 C   0  0  0  0  0  0  0  0  0  0  0  0
  159.0578  142.0315  186.5727 C   0  0  0  0  0  0  0  0  0  0  0  0
 13 14  1  0  0  0
 14 15  2  0  0  0
 15 16  1  0  0  0
 16 11  1  0  0  0
 11  1  1  0  0  0
  1  2  2  0  0  0
  2  3  1  0  0  0
  3  4  2  0  0  0
  4  5  1  0  0  0
  5  6  2  0  0  0
  6  7  1  0  0  0
  7  8  2  0  0  0
  8  9  1  0  0  0
  9 20  1  0  0  0
 20 22  1  0  0  0
 22 23  1  0  0  0
 23 24  1  0  0  0
 24 25  1  0  0  0
 25 26  1  0  0  0
 26 27  1  0  0  0
 27 28  1  0  0  0
 28 29  1  0  0  0
 28 30  1  0  0  0
 30 31  1  0  0  0
 31 32  2  0  0  0
 31 33  2  0  0  0
 31 34  1  0  0  0
 34 35  1  0  0  0
 35 36  1  0  0  0
  9 10  2  0  0  0
 16 17  2  0  0  0
 17 18  1  0  0  0
 18 14  1  0  0  0
 10  1  1  0  0  0
  8  3  1  0  0  0
 29 22  1  0  0  0
 36 34  1  0  0  0
 30 24  1  0  0  0
 11 12  1  0  0  0
 20 21  1  0  0  0
 18 19  1  0  0  0
M  END
> <minimizedAffinity>
-9.99074

> <CNNscore>
0.1856552213

> <CNNaffinity>
7.0504465103

> <CNN_VS>
1.3089522123

> <CNNaffinity_variance>
0.0137221394

$$$$
[H]c1c([H])c(C2=C(c3c([H])n(C([H])([H])[H])c4c([H])c([H])c([H])c([H])c34)C(=O)N([H])C2=O)c([H])c(C(F)(F)F)c1[H]


 28 31  0  0  0  0  0  0  0  0999 V2000
  154.1397  139.3919  183.7299 C   0  0  0  0  0  0  0  0  0  0  0  0
  153.0637  138.8567  183.2863 C   0  0  0  0  0  0  0  0  0  0  0  0
  152.6601  137.6920  184.1764 C   0  0  0  0  0  0  0  0  0  0  0  0
  151.6234  137.0060  183.9638 O   0  0  0  0  0  0  0  0  0  0  0  0
  153.6064  137.5805  185.1843 N   0  0  0  0  0  0  0  0  0  0  0  0
  154.5435  138.6153  184.9486 C   0  0  0  0  0  0  0  0  0  0  0  0
  155.5400  138.7996  185.6794 O   0  0  0  0  0  0  0  0  0  0  0  0
  153.5813  136.8424  185.9389 H   0  0  0  0  0  0  0  0  0  0  0  0
  155.5022  144.0089  182.2345 C   0  0  0  0  0  0  0  0  0  0  0  0
  155.5387  142.5921  182.6411 N   0  0  0  0  0  0  0  0  0  0  0  0
  154.5456  141.8287  183.1137 C   0  0  0  0  0  0  0  0  0  0  0  0
  154.9711  140.5265  183.2847 C   0  0  0  0  0  0  0  0  0  0  0  0
  156.2928  140.5035  182.8997 C   0  0  0  0  0  0  0  0  0  0  0  0
  157.2764  139.5450  182.8081 C   0  0  0  0  0  0  0  0  0  0  0  0
  158.5368  139.8592  182.3614 C   0  0  0  0  0  0  0  0  0  0  0  0
  158.8838  141.1178  181.9849 C   0  0  0  0  0  0  0  0  0  0  0  0
  157.8864  142.0815  182.0696 C   0  0  0  0  0  0  0  0  0  0  0  0
  156.6107  141.8046  182.5085 C   0  0  0  0  0  0  0  0  0  0  0  0
  152.2726  138.9535  182.0382 C   0  0  0  0  0  0  0  0  0  0  0  0
  152.8118  139.4543  180.9053 C   0  0  0  0  0  0  0  0  0  0  0  0
  152.0161  139.8654  179.8227 C   0  0  0  0  0  0  0  0  0  0  0  0
  150.6581  139.7436  179.9405 C   0  0  0  0  0  0  0  0  0  0  0  0
  150.0794  139.2271  181.0730 C   0  0  0  0  0  0  0  0  0  0  0  0
  150.8862  138.8288  182.1222 C   0  0  0  0  0  0  0  0  0  0  0  0
  148.5874  139.1903  181.2479 C   0  0  0  0  0  0  0  0  0  0  0  0
  148.1047  138.6184  180.0441 F   0  0  0  0  0  0  0  0  0  0  0  0
  148.0962  140.4315  181.4437 F   0  0  0  0  0  0  0  0  0  0  0  0
  148.3089  138.2708  182.2442 F   0  0  0  0  0  0  0  0  0  0  0  0
  9 10  1  0  0  0
 10 11  1  0  0  0
 11 12  2  0  0  0
 12  1  1  0  0  0
  1  2  2  0  0  0
  2  3  1  0  0  0
  3  4  2  0  0  0
  3  5  1  0  0  0
  5  6  1  0  0  0
  6  7  2  0  0  0
  2 19  1  0  0  0
 19 20  2  0  0  0
 20 21  1  0  0  0
 21 22  2  0  0  0
 22 23  1  0  0  0
 23 24  2  0  0  0
 23 25  1  0  0  0
 25 26  1  0  0  0
 25 27  1  0  0  0
 25 28  1  0  0  0
 12 13  1  0  0  0
 13 14  2  0  0  0
 14 15  1  0  0  0
 15 16  2  0  0  0
 16 17  1  0  0  0
 17 18  2  0  0  0
 18 10  1  0  0  0
  6  1  1  0  0  0
 24 19  1  0  0  0
 18 13  1  0  0  0
  5  8  1  0  0  0
M  END
> <minimizedAffinity>
-8.27392

> <CNNscore>
0.4512940347

> <CNNaffinity>
5.8860979080

> <CNN_VS>
2.6563608646

> <CNNaffinity_variance>
0.0994021297

$$$$
[H]c1c([H])c(C2=C(c3c([H])n(C([H])([H])[H])c4c([H])c([H])c([H])c([H])c34)C(=O)N([H])C2=O)c([H])c(C(F)(F)F)c1[H]


 28 31  0  0  0  0  0  0  0  0999 V2000
  153.5965  137.6923  185.9459 C   0  0  0  0  0  0  0  0  0  0  0  0
  153.7601  138.4054  184.8942 C   0  0  0  0  0  0  0  0  0  0  0  0
  152.7783  137.9719  183.8173 C   0  0  0  0  0  0  0  0  0  0  0  0
  152.7242  138.5295  182.6874 O   0  0  0  0  0  0  0  0  0  0  0  0
  152.0242  136.9253  184.3271 N   0  0  0  0  0  0  0  0  0  0  0  0
  152.4959  136.7176  185.6458 C   0  0  0  0  0  0  0  0  0  0  0  0
  152.0282  135.8351  186.3963 O   0  0  0  0  0  0  0  0  0  0  0  0
  151.2722  136.4203  183.7847 H   0  0  0  0  0  0  0  0  0  0  0  0
  154.8688  138.9358  190.6622 C   0  0  0  0  0  0  0  0  0  0  0  0
  154.7735  138.2389  189.3665 N   0  0  0  0  0  0  0  0  0  0  0  0
  153.9528  138.4874  188.3382 C   0  0  0  0  0  0  0  0  0  0  0  0
  154.2482  137.6652  187.2691 C   0  0  0  0  0  0  0  0  0  0  0  0
  155.2999  136.8749  187.6753 C   0  0  0  0  0  0  0  0  0  0  0  0
  156.0673  135.8851  187.1041 C   0  0  0  0  0  0  0  0  0  0  0  0
  157.0838  135.2804  187.8026 C   0  0  0  0  0  0  0  0  0  0  0  0
  157.3916  135.6201  189.0818 C   0  0  0  0  0  0  0  0  0  0  0  0
  156.6215  136.6259  189.6527 C   0  0  0  0  0  0  0  0  0  0  0  0
  155.5972  137.2581  188.9836 C   0  0  0  0  0  0  0  0  0  0  0  0
  154.7844  139.3617  184.4153 C   0  0  0  0  0  0  0  0  0  0  0  0
  156.0918  139.1923  184.7101 C   0  0  0  0  0  0  0  0  0  0  0  0
  157.0264  140.2313  184.5650 C   0  0  0  0  0  0  0  0  0  0  0  0
  156.5774  141.4404  184.1077 C   0  0  0  0  0  0  0  0  0  0  0  0
  155.2579  141.6416  183.7873 C   0  0  0  0  0  0  0  0  0  0  0  0
  154.3602  140.6014  183.9380 C   0  0  0  0  0  0  0  0  0  0  0  0
  154.7425  142.9951  183.3867 C   0  0  0  0  0  0  0  0  0  0  0  0
  153.8149  142.7269  182.3490 F   0  0  0  0  0  0  0  0  0  0  0  0
  155.7501  143.7866  182.9641 F   0  0  0  0  0  0  0  0  0  0  0  0
  153.9978  143.4855  184.4452 F   0  0  0  0  0  0  0  0  0  0  0  0
  9 10  1  0  0  0
 10 11  1  0  0  0
 11 12  2  0  0  0
 12  1  1  0  0  0
  1  2  2  0  0  0
  2  3  1  0  0  0
  3  4  2  0  0  0
  3  5  1  0  0  0
  5  6  1  0  0  0
  6  7  2  0  0  0
  2 19  1  0  0  0
 19 20  2  0  0  0
 20 21  1  0  0  0
 21 22  2  0  0  0
 22 23  1  0  0  0
 23 24  2  0  0  0
 23 25  1  0  0  0
 25 26  1  0  0  0
 25 27  1  0  0  0
 25 28  1  0  0  0
 12 13  1  0  0  0
 13 14  2  0  0  0
 14 15  1  0  0  0
 15 16  2  0  0  0
 16 17  1  0  0  0
 17 18  2  0  0  0
 18 10  1  0  0  0
  6  1  1  0  0  0
 24 19  1  0  0  0
 18 13  1  0  0  0
  5  8  1  0  0  0
M  END
> <minimizedAffinity>
-8.00082

> <CNNscore>
0.4473006427

> <CNNaffinity>
5.5896091461

> <CNN_VS>
2.5002357960

> <CNNaffinity_variance>
0.0592712685

$$$$
[H]c1c([H])c(C2=C(c3c([H])n(C([H])([H])[H])c4c([H])c([H])c([H])c([H])c34)C(=O)N([H])C2=O)c([H])c(C(F)(F)F)c1[H]


 28 31  0  0  0  0  0  0  0  0999 V2000
  151.1096  138.9536  181.3017 C   0  0  0  0  0  0  0  0  0  0  0  0
  149.8570  138.7221  181.4385 C   0  0  0  0  0  0  0  0  0  0  0  0
  149.1543  138.8694  180.0983 C   0  0  0  0  0  0  0  0  0  0  0  0
  147.9155  138.6776  179.9596 O   0  0  0  0  0  0  0  0  0  0  0  0
  150.1085  139.2218  179.1553 N   0  0  0  0  0  0  0  0  0  0  0  0
  151.3371  139.2849  179.8560 C   0  0  0  0  0  0  0  0  0  0  0  0
  152.4149  139.5825  179.2985 O   0  0  0  0  0  0  0  0  0  0  0  0
  149.8940  139.4035  178.1376 H   0  0  0  0  0  0  0  0  0  0  0  0
  154.3477  137.5019  184.8816 C   0  0  0  0  0  0  0  0  0  0  0  0
  153.6777  138.2693  183.8158 N   0  0  0  0  0  0  0  0  0  0  0  0
  152.6389  137.9118  183.0504 C   0  0  0  0  0  0  0  0  0  0  0  0
  152.2523  138.9565  182.2348 C   0  0  0  0  0  0  0  0  0  0  0  0
  153.1062  139.9985  182.5192 C   0  0  0  0  0  0  0  0  0  0  0  0
  153.2545  141.2973  182.0882 C   0  0  0  0  0  0  0  0  0  0  0  0
  154.2395  142.1080  182.5975 C   0  0  0  0  0  0  0  0  0  0  0  0
  155.1138  141.6838  183.5471 C   0  0  0  0  0  0  0  0  0  0  0  0
  154.9561  140.3753  183.9871 C   0  0  0  0  0  0  0  0  0  0  0  0
  153.9788  139.5338  183.5038 C   0  0  0  0  0  0  0  0  0  0  0  0
  148.9296  138.5714  182.5831 C   0  0  0  0  0  0  0  0  0  0  0  0
  148.0340  139.5352  182.8894 C   0  0  0  0  0  0  0  0  0  0  0  0
  147.3864  139.5783  184.1356 C   0  0  0  0  0  0  0  0  0  0  0  0
  147.6852  138.6043  185.0491 C   0  0  0  0  0  0  0  0  0  0  0  0
  148.5811  137.6039  184.7646 C   0  0  0  0  0  0  0  0  0  0  0  0
  149.2023  137.5847  183.5301 C   0  0  0  0  0  0  0  0  0  0  0  0
  148.9905  136.5956  185.8009 C   0  0  0  0  0  0  0  0  0  0  0  0
  150.4076  136.6090  185.7662 F   0  0  0  0  0  0  0  0  0  0  0  0
  148.4949  135.3759  185.5060 F   0  0  0  0  0  0  0  0  0  0  0  0
  148.6356  137.1045  187.0380 F   0  0  0  0  0  0  0  0  0  0  0  0
  9 10  1  0  0  0
 10 11  1  0  0  0
 11 12  2  0  0  0
 12  1  1  0  0  0
  1  2  2  0  0  0
  2  3  1  0  0  0
  3  4  2  0  0  0
  3  5  1  0  0  0
  5  6  1  0  0  0
  6  7  2  0  0  0
  2 19  1  0  0  0
 19 20  2  0  0  0
 20 21  1  0  0  0
 21 22  2  0  0  0
 22 23  1  0  0  0
 23 24  2  0  0  0
 23 25  1  0  0  0
 25 26  1  0  0  0
 25 27  1  0  0  0
 25 28  1  0  0  0
 12 13  1  0  0  0
 13 14  2  0  0  0
 14 15  1  0  0  0
 15 16  2  0  0  0
 16 17  1  0  0  0
 17 18  2  0  0  0
 18 10  1  0  0  0
  6  1  1  0  0  0
 24 19  1  0  0  0
 18 13  1  0  0  0
  5  8  1  0  0  0
M  END
> <minimizedAffinity>
-7.99835

> <CNNscore>
0.4390035570

> <CNNaffinity>
5.5725822449

> <CNN_VS>
2.4463834763

> <CNNaffinity_variance>
0.0781417340

$$$$
[H]c1c([H])c(C2=C(c3c([H])n(C([H])([H])[H])c4c([H])c([H])c([H])c([H])c34)C(=O)N([H])C2=O)c([H])c(C(F)(F)F)c1[H]


 28 31  0  0  0  0  0  0  0  0999 V2000
  154.3258  137.3877  185.9301 C   0  0  0  0  0  0  0  0  0  0  0  0
  154.3015  138.2965  185.0275 C   0  0  0  0  0  0  0  0  0  0  0  0
  153.1102  138.0807  184.1078 C   0  0  0  0  0  0  0  0  0  0  0  0
  152.8517  138.8515  183.1438 O   0  0  0  0  0  0  0  0  0  0  0  0
  152.4364  136.9497  184.5447 N   0  0  0  0  0  0  0  0  0  0  0  0
  153.1539  136.4864  185.6739 C   0  0  0  0  0  0  0  0  0  0  0  0
  152.8143  135.4698  186.3159 O   0  0  0  0  0  0  0  0  0  0  0  0
  151.5741  136.5587  184.0774 H   0  0  0  0  0  0  0  0  0  0  0  0
  157.8881  135.2185  188.7608 C   0  0  0  0  0  0  0  0  0  0  0  0
  156.8270  136.1228  188.2814 N   0  0  0  0  0  0  0  0  0  0  0  0
  156.2460  136.1705  187.0760 C   0  0  0  0  0  0  0  0  0  0  0  0
  155.2267  137.1015  187.0628 C   0  0  0  0  0  0  0  0  0  0  0  0
  155.1936  137.6486  188.3258 C   0  0  0  0  0  0  0  0  0  0  0  0
  154.4267  138.5915  188.9719 C   0  0  0  0  0  0  0  0  0  0  0  0
  154.6556  138.9154  190.2870 C   0  0  0  0  0  0  0  0  0  0  0  0
  155.6380  138.3303  191.0212 C   0  0  0  0  0  0  0  0  0  0  0  0
  156.4046  137.3722  190.3693 C   0  0  0  0  0  0  0  0  0  0  0  0
  156.2031  137.0179  189.0538 C   0  0  0  0  0  0  0  0  0  0  0  0
  155.2428  139.3344  184.5481 C   0  0  0  0  0  0  0  0  0  0  0  0
  156.5459  139.3148  184.9034 C   0  0  0  0  0  0  0  0  0  0  0  0
  157.3746  140.4390  184.7496 C   0  0  0  0  0  0  0  0  0  0  0  0
  156.8250  141.5749  184.2202 C   0  0  0  0  0  0  0  0  0  0  0  0
  155.5076  141.6237  183.8374 C   0  0  0  0  0  0  0  0  0  0  0  0
  154.7156  140.5025  183.9982 C   0  0  0  0  0  0  0  0  0  0  0  0
  154.8747  142.8985  183.3552 C   0  0  0  0  0  0  0  0  0  0  0  0
  153.9902  142.4868  182.3269 F   0  0  0  0  0  0  0  0  0  0  0  0
  155.8103  143.7553  182.8963 F   0  0  0  0  0  0  0  0  0  0  0  0
  154.0733  143.3763  184.3774 F   0  0  0  0  0  0  0  0  0  0  0  0
  9 10  1  0  0  0
 10 11  1  0  0  0
 11 12  2  0  0  0
 12  1  1  0  0  0
  1  2  2  0  0  0
  2  3  1  0  0  0
  3  4  2  0  0  0
  3  5  1  0  0  0
  5  6  1  0  0  0
  6  7  2  0  0  0
  2 19  1  0  0  0
 19 20  2  0  0  0
 20 21  1  0  0  0
 21 22  2  0  0  0
 22 23  1  0  0  0
 23 24  2  0  0  0
 23 25  1  0  0  0
 25 26  1  0  0  0
 25 27  1  0  0  0
 25 28  1  0  0  0
 12 13  1  0  0  0
 13 14  2  0  0  0
 14 15  1  0  0  0
 15 16  2  0  0  0
 16 17  1  0  0  0
 17 18  2  0  0  0
 18 10  1  0  0  0
  6  1  1  0  0  0
 24 19  1  0  0  0
 18 13  1  0  0  0
  5  8  1  0  0  0
M  END
> <minimizedAffinity>
-8.69770

> <CNNscore>
0.4284331203

> <CNNaffinity>
5.5439372063

> <CNN_VS>
2.3752062321

> <CNNaffinity_variance>
0.0879587755

$$$$
[H]c1c([H])c(C2=C(c3c([H])n(C([H])([H])[H])c4c([H])c([H])c([H])c([H])c34)C(=O)N([H])C2=O)c([H])c(C(F)(F)F)c1[H]


 28 31  0  0  0  0  0  0  0  0999 V2000
  154.6477  138.4758  184.6604 C   0  0  0  0  0  0  0  0  0  0  0  0
  154.6285  137.6805  185.6646 C   0  0  0  0  0  0  0  0  0  0  0  0
  153.3319  136.8866  185.6711 C   0  0  0  0  0  0  0  0  0  0  0  0
  153.0736  136.0205  186.5507 O   0  0  0  0  0  0  0  0  0  0  0  0
  152.5785  137.2955  184.5806 N   0  0  0  0  0  0  0  0  0  0  0  0
  153.3554  138.2799  183.9235 C   0  0  0  0  0  0  0  0  0  0  0  0
  152.9658  138.8656  182.8909 O   0  0  0  0  0  0  0  0  0  0  0  0
  151.6203  136.9169  184.3495 H   0  0  0  0  0  0  0  0  0  0  0  0
  159.0284  140.6443  183.4293 C   0  0  0  0  0  0  0  0  0  0  0  0
  157.5891  140.3814  183.6111 N   0  0  0  0  0  0  0  0  0  0  0  0
  156.9875  139.2648  184.0399 C   0  0  0  0  0  0  0  0  0  0  0  0
  155.6260  139.4600  184.1597 C   0  0  0  0  0  0  0  0  0  0  0  0
  155.3925  140.7621  183.7782 C   0  0  0  0  0  0  0  0  0  0  0  0
  154.2889  141.5796  183.6857 C   0  0  0  0  0  0  0  0  0  0  0  0
  154.4009  142.8811  183.2612 C   0  0  0  0  0  0  0  0  0  0  0  0
  155.5924  143.4344  182.9142 C   0  0  0  0  0  0  0  0  0  0  0  0
  156.7061  142.6100  183.0172 C   0  0  0  0  0  0  0  0  0  0  0  0
  156.6346  141.3019  183.4422 C   0  0  0  0  0  0  0  0  0  0  0  0
  155.4333  137.5153  186.8966 C   0  0  0  0  0  0  0  0  0  0  0  0
  156.3262  136.5090  187.0192 C   0  0  0  0  0  0  0  0  0  0  0  0
  156.8492  136.1280  188.2664 C   0  0  0  0  0  0  0  0  0  0  0  0
  156.4298  136.8118  189.3752 C   0  0  0  0  0  0  0  0  0  0  0  0
  155.5334  137.8472  189.2833 C   0  0  0  0  0  0  0  0  0  0  0  0
  155.0362  138.2021  188.0435 C   0  0  0  0  0  0  0  0  0  0  0  0
  154.9907  138.5296  190.5073 C   0  0  0  0  0  0  0  0  0  0  0  0
  154.2162  137.5332  191.1529 F   0  0  0  0  0  0  0  0  0  0  0  0
  154.2442  139.6011  190.1683 F   0  0  0  0  0  0  0  0  0  0  0  0
  156.0597  138.7848  191.3484 F   0  0  0  0  0  0  0  0  0  0  0  0
  9 10  1  0  0  0
 10 11  1  0  0  0
 11 12  2  0  0  0
 12  1  1  0  0  0
  1  2  2  0  0  0
  2  3  1  0  0  0
  3  4  2  0  0  0
  3  5  1  0  0  0
  5  6  1  0  0  0
  6  7  2  0  0  0
  2 19  1  0  0  0
 19 20  2  0  0  0
 20 21  1  0  0  0
 21 22  2  0  0  0
 22 23  1  0  0  0
 23 24  2  0  0  0
 23 25  1  0  0  0
 25 26  1  0  0  0
 25 27  1  0  0  0
 25 28  1  0  0  0
 12 13  1  0  0  0
 13 14  2  0  0  0
 14 15  1  0  0  0
 15 16  2  0  0  0
 16 17  1  0  0  0
 17 18  2  0  0  0
 18 10  1  0  0  0
  6  1  1  0  0  0
 24 19  1  0  0  0
 18 13  1  0  0  0
  5  8  1  0  0  0
M  END
> <minimizedAffinity>
-8.11001

> <CNNscore>
0.4022507966

> <CNNaffinity>
5.6616830826

> <CNN_VS>
2.2774164677

> <CNNaffinity_variance>
0.1295618713

$$$$
[H]c1c([H])c(C2=C(c3c([H])n(C([H])([H])[H])c4c([H])c([H])c([H])c([H])c34)C(=O)N([H])C2=O)c([H])c(C(F)(F)F)c1[H]


 28 31  0  0  0  0  0  0  0  0999 V2000
  150.6233  139.2195  180.9784 C   0  0  0  0  0  0  0  0  0  0  0  0
  149.4687  138.7536  181.2802 C   0  0  0  0  0  0  0  0  0  0  0  0
  148.6402  138.5671  180.0191 C   0  0  0  0  0  0  0  0  0  0  0  0
  147.4671  138.1048  180.0428 O   0  0  0  0  0  0  0  0  0  0  0  0
  149.4102  138.9779  178.9410 N   0  0  0  0  0  0  0  0  0  0  0  0
  150.6494  139.3901  179.4879 C   0  0  0  0  0  0  0  0  0  0  0  0
  151.5841  139.8262  178.7828 O   0  0  0  0  0  0  0  0  0  0  0  0
  149.0759  138.9702  177.9395 H   0  0  0  0  0  0  0  0  0  0  0  0
  154.5689  141.8206  182.7319 C   0  0  0  0  0  0  0  0  0  0  0  0
  153.5434  140.7799  182.5348 N   0  0  0  0  0  0  0  0  0  0  0  0
  152.4677  140.8017  181.7380 C   0  0  0  0  0  0  0  0  0  0  0  0
  151.8118  139.5874  181.7713 C   0  0  0  0  0  0  0  0  0  0  0  0
  152.5266  138.7916  182.6381 C   0  0  0  0  0  0  0  0  0  0  0  0
  152.4302  137.4966  183.0947 C   0  0  0  0  0  0  0  0  0  0  0  0
  153.3442  136.9855  183.9836 C   0  0  0  0  0  0  0  0  0  0  0  0
  154.3870  137.7164  184.4576 C   0  0  0  0  0  0  0  0  0  0  0  0
  154.4873  139.0203  183.9880 C   0  0  0  0  0  0  0  0  0  0  0  0
  153.5934  139.5668  183.0942 C   0  0  0  0  0  0  0  0  0  0  0  0
  148.6973  138.5713  182.5311 C   0  0  0  0  0  0  0  0  0  0  0  0
  147.9363  139.5671  183.0352 C   0  0  0  0  0  0  0  0  0  0  0  0
  147.4713  139.5482  184.3609 C   0  0  0  0  0  0  0  0  0  0  0  0
  147.8093  138.4789  185.1453 C   0  0  0  0  0  0  0  0  0  0  0  0
  148.5704  137.4448  184.6598 C   0  0  0  0  0  0  0  0  0  0  0  0
  149.0129  137.4884  183.3512 C   0  0  0  0  0  0  0  0  0  0  0  0
  149.0315  136.3228  185.5468 C   0  0  0  0  0  0  0  0  0  0  0  0
  150.3309  136.0103  185.0744 F   0  0  0  0  0  0  0  0  0  0  0  0
  148.1987  135.2653  185.4552 F   0  0  0  0  0  0  0  0  0  0  0  0
  149.2037  136.8427  186.8179 F   0  0  0  0  0  0  0  0  0  0  0  0
  9 10  1  0  0  0
 10 11  1  0  0  0
 11 12  2  0  0  0
 12  1  1  0  0  0
  1  2  2  0  0  0
  2  3  1  0  0  0
  3  4  2  0  0  0
  3  5  1  0  0  0
  5  6  1  0  0  0
  6  7  2  0  0  0
  2 19  1  0  0  0
 19 20  2  0  0  0
 20 21  1  0  0  0
 21 22  2  0  0  0
 22 23  1  0  0  0
 23 24  2  0  0  0
 23 25  1  0  0  0
 25 26  1  0  0  0
 25 27  1  0  0  0
 25 28  1  0  0  0
 12 13  1  0  0  0
 13 14  2  0  0  0
 14 15  1  0  0  0
 15 16  2  0  0  0
 16 17  1  0  0  0
 17 18  2  0  0  0
 18 10  1  0  0  0
  6  1  1  0  0  0
 24 19  1  0  0  0
 18 13  1  0  0  0
  5  8  1  0  0  0
M  END
> <minimizedAffinity>
-6.72519

> <CNNscore>
0.3976854086

> <CNNaffinity>
5.4640045166

> <CNN_VS>
2.1729547977

> <CNNaffinity_variance>
0.0918226391

$$$$
[H]c1c([H])c(C2=C(c3c([H])n(C([H])([H])[H])c4c([H])c([H])c([H])c([H])c34)C(=O)N([H])C2=O)c([H])c(C(F)(F)F)c1[H]


 28 31  0  0  0  0  0  0  0  0999 V2000
  155.1661  142.1153  182.9509 C   0  0  0  0  0  0  0  0  0  0  0  0
  156.4083  142.4263  182.9141 C   0  0  0  0  0  0  0  0  0  0  0  0
  156.5670  143.8710  182.4677 C   0  0  0  0  0  0  0  0  0  0  0  0
  157.6942  144.4272  182.3651 O   0  0  0  0  0  0  0  0  0  0  0  0
  155.2999  144.3839  182.2321 N   0  0  0  0  0  0  0  0  0  0  0  0
  154.3987  143.3305  182.5197 C   0  0  0  0  0  0  0  0  0  0  0  0
  153.1606  143.4549  182.4072 O   0  0  0  0  0  0  0  0  0  0  0  0
  155.1141  145.3674  181.8958 H   0  0  0  0  0  0  0  0  0  0  0  0
  153.6950  137.9917  185.4489 C   0  0  0  0  0  0  0  0  0  0  0  0
  153.7983  139.0714  184.4503 N   0  0  0  0  0  0  0  0  0  0  0  0
  154.5594  140.1726  184.4805 C   0  0  0  0  0  0  0  0  0  0  0  0
  154.4350  140.8834  183.3035 C   0  0  0  0  0  0  0  0  0  0  0  0
  153.5478  140.1765  182.5232 C   0  0  0  0  0  0  0  0  0  0  0  0
  153.0148  140.3177  181.2619 C   0  0  0  0  0  0  0  0  0  0  0  0
  152.1284  139.3977  180.7569 C   0  0  0  0  0  0  0  0  0  0  0  0
  151.7316  138.3055  181.4611 C   0  0  0  0  0  0  0  0  0  0  0  0
  152.2782  138.1606  182.7302 C   0  0  0  0  0  0  0  0  0  0  0  0
  153.1722  139.0589  183.2693 C   0  0  0  0  0  0  0  0  0  0  0  0
  157.6862  141.6811  182.9826 C   0  0  0  0  0  0  0  0  0  0  0  0
  157.7377  140.3557  182.7264 C   0  0  0  0  0  0  0  0  0  0  0  0
  158.8400  139.5692  183.1010 C   0  0  0  0  0  0  0  0  0  0  0  0
  159.8813  140.1852  183.7404 C   0  0  0  0  0  0  0  0  0  0  0  0
  159.8657  141.5322  184.0043 C   0  0  0  0  0  0  0  0  0  0  0  0
  158.7692  142.2823  183.6231 C   0  0  0  0  0  0  0  0  0  0  0  0
  160.9576  142.1915  184.7988 C   0  0  0  0  0  0  0  0  0  0  0  0
  160.8150  143.5732  184.5161 F   0  0  0  0  0  0  0  0  0  0  0  0
  162.1688  141.7277  184.4270 F   0  0  0  0  0  0  0  0  0  0  0  0
  160.6436  142.0430  186.1385 F   0  0  0  0  0  0  0  0  0  0  0  0
  9 10  1  0  0  0
 10 11  1  0  0  0
 11 12  2  0  0  0
 12  1  1  0  0  0
  1  2  2  0  0  0
  2  3  1  0  0  0
  3  4  2  0  0  0
  3  5  1  0  0  0
  5  6  1  0  0  0
  6  7  2  0  0  0
  2 19  1  0  0  0
 19 20  2  0  0  0
 20 21  1  0  0  0
 21 22  2  0  0  0
 22 23  1  0  0  0
 23 24  2  0  0  0
 23 25  1  0  0  0
 25 26  1  0  0  0
 25 27  1  0  0  0
 25 28  1  0  0  0
 12 13  1  0  0  0
 13 14  2  0  0  0
 14 15  1  0  0  0
 15 16  2  0  0  0
 16 17  1  0  0  0
 17 18  2  0  0  0
 18 10  1  0  0  0
  6  1  1  0  0  0
 24 19  1  0  0  0
 18 13  1  0  0  0
  5  8  1  0  0  0
M  END
> <minimizedAffinity>
-9.37149

> <CNNscore>
0.3969343007

> <CNNaffinity>
6.3882207870

> <CNN_VS>
2.5357038975

> <CNNaffinity_variance>
0.0204249527

$$$$
[H]c1c([H])c(C2=C(c3c([H])n(C([H])([H])[H])c4c([H])c([H])c([H])c([H])c34)C(=O)N([H])C2=O)c([H])c(C(F)(F)F)c1[H]


 28 31  0  0  0  0  0  0  0  0999 V2000
  153.1851  136.5326  186.6682 C   0  0  0  0  0  0  0  0  0  0  0  0
  152.7319  137.2062  185.6771 C   0  0  0  0  0  0  0  0  0  0  0  0
  151.2983  136.7937  185.3835 C   0  0  0  0  0  0  0  0  0  0  0  0
  150.6182  137.3211  184.4617 O   0  0  0  0  0  0  0  0  0  0  0  0
  150.9482  135.8025  186.2885 N   0  0  0  0  0  0  0  0  0  0  0  0
  152.0875  135.6082  187.1063 C   0  0  0  0  0  0  0  0  0  0  0  0
  152.1143  134.7727  188.0349 O   0  0  0  0  0  0  0  0  0  0  0  0
  150.0082  135.3219  186.3035 H   0  0  0  0  0  0  0  0  0  0  0  0
  157.8313  135.1710  188.0710 C   0  0  0  0  0  0  0  0  0  0  0  0
  156.5466  135.8856  187.9591 N   0  0  0  0  0  0  0  0  0  0  0  0
  155.5532  135.6940  187.0821 C   0  0  0  0  0  0  0  0  0  0  0  0
  154.4788  136.5095  187.3769 C   0  0  0  0  0  0  0  0  0  0  0  0
  154.8449  137.2356  188.4880 C   0  0  0  0  0  0  0  0  0  0  0  0
  154.2486  138.1869  189.2844 C   0  0  0  0  0  0  0  0  0  0  0  0
  154.9068  138.7265  190.3625 C   0  0  0  0  0  0  0  0  0  0  0  0
  156.1685  138.3569  190.7057 C   0  0  0  0  0  0  0  0  0  0  0  0
  156.7646  137.3898  189.9056 C   0  0  0  0  0  0  0  0  0  0  0  0
  156.1358  136.8228  188.8194 C   0  0  0  0  0  0  0  0  0  0  0  0
  153.3182  138.0942  184.6472 C   0  0  0  0  0  0  0  0  0  0  0  0
  154.2211  139.0443  184.9744 C   0  0  0  0  0  0  0  0  0  0  0  0
  154.5372  140.1000  184.1029 C   0  0  0  0  0  0  0  0  0  0  0  0
  153.9017  140.1457  182.8918 C   0  0  0  0  0  0  0  0  0  0  0  0
  152.9887  139.1891  182.5237 C   0  0  0  0  0  0  0  0  0  0  0  0
  152.6980  138.1604  183.3999 C   0  0  0  0  0  0  0  0  0  0  0  0
  152.2122  139.2939  181.2415 C   0  0  0  0  0  0  0  0  0  0  0  0
  150.8736  139.0155  181.6155 F   0  0  0  0  0  0  0  0  0  0  0  0
  152.6701  138.4114  180.3294 F   0  0  0  0  0  0  0  0  0  0  0  0
  152.2301  140.6221  180.8530 F   0  0  0  0  0  0  0  0  0  0  0  0
  9 10  1  0  0  0
 10 11  1  0  0  0
 11 12  2  0  0  0
 12  1  1  0  0  0
  1  2  2  0  0  0
  2  3  1  0  0  0
  3  4  2  0  0  0
  3  5  1  0  0  0
  5  6  1  0  0  0
  6  7  2  0  0  0
  2 19  1  0  0  0
 19 20  2  0  0  0
 20 21  1  0  0  0
 21 22  2  0  0  0
 22 23  1  0  0  0
 23 24  2  0  0  0
 23 25  1  0  0  0
 25 26  1  0  0  0
 25 27  1  0  0  0
 25 28  1  0  0  0
 12 13  1  0  0  0
 13 14  2  0  0  0
 14 15  1  0  0  0
 15 16  2  0  0  0
 16 17  1  0  0  0
 17 18  2  0  0  0
 18 10  1  0  0  0
  6  1  1  0  0  0
 24 19  1  0  0  0
 18 13  1  0  0  0
  5  8  1  0  0  0
M  END
> <minimizedAffinity>
-7.64126

> <CNNscore>
0.3733774424

> <CNNaffinity>
5.1338400841

> <CNN_VS>
1.9168601036

> <CNNaffinity_variance>
0.0835484862

$$$$
[H]c1c([H])c(C2=C(c3c([H])n(C([H])([H])[H])c4c([H])c([H])c([H])c([H])c34)C(=O)N([H])C2=O)c([H])c(C(F)(F)F)c1[H]


 28 31  0  0  0  0  0  0  0  0999 V2000
  153.1806  138.8262  182.9060 C   0  0  0  0  0  0  0  0  0  0  0  0
  154.1806  139.5131  183.3177 C   0  0  0  0  0  0  0  0  0  0  0  0
  154.9560  138.7241  184.3607 C   0  0  0  0  0  0  0  0  0  0  0  0
  155.9971  139.1736  184.9126 O   0  0  0  0  0  0  0  0  0  0  0  0
  154.3134  137.5075  184.5366 N   0  0  0  0  0  0  0  0  0  0  0  0
  153.2067  137.5257  183.6538 C   0  0  0  0  0  0  0  0  0  0  0  0
  152.4047  136.5721  183.5608 O   0  0  0  0  0  0  0  0  0  0  0  0
  154.6307  136.7650  185.2169 H   0  0  0  0  0  0  0  0  0  0  0  0
  150.7968  140.3401  178.7306 C   0  0  0  0  0  0  0  0  0  0  0  0
  151.0906  139.7467  180.0479 N   0  0  0  0  0  0  0  0  0  0  0  0
  152.2750  139.5894  180.6522 C   0  0  0  0  0  0  0  0  0  0  0  0
  152.1092  139.0763  181.9231 C   0  0  0  0  0  0  0  0  0  0  0  0
  150.7531  138.9102  182.0934 C   0  0  0  0  0  0  0  0  0  0  0  0
  149.9334  138.4702  183.1079 C   0  0  0  0  0  0  0  0  0  0  0  0
  148.5688  138.4338  182.9552 C   0  0  0  0  0  0  0  0  0  0  0  0
  147.9530  138.8276  181.8097 C   0  0  0  0  0  0  0  0  0  0  0  0
  148.7820  139.2801  180.7906 C   0  0  0  0  0  0  0  0  0  0  0  0
  150.1532  139.3350  180.9074 C   0  0  0  0  0  0  0  0  0  0  0  0
  154.6174  140.9225  183.1920 C   0  0  0  0  0  0  0  0  0  0  0  0
  153.7386  141.9410  183.3157 C   0  0  0  0  0  0  0  0  0  0  0  0
  154.0426  143.2413  182.8790 C   0  0  0  0  0  0  0  0  0  0  0  0
  155.2713  143.4599  182.3175 C   0  0  0  0  0  0  0  0  0  0  0  0
  156.1916  142.4496  182.1887 C   0  0  0  0  0  0  0  0  0  0  0  0
  155.8667  141.1802  182.6285 C   0  0  0  0  0  0  0  0  0  0  0  0
  157.4986  142.6611  181.4780 C   0  0  0  0  0  0  0  0  0  0  0  0
  157.6260  144.0698  181.3849 F   0  0  0  0  0  0  0  0  0  0  0  0
  157.4827  142.0793  180.2608 F   0  0  0  0  0  0  0  0  0  0  0  0
  158.5064  142.2435  182.3296 F   0  0  0  0  0  0  0  0  0  0  0  0
  9 10  1  0  0  0
 10 11  1  0  0  0
 11 12  2  0  0  0
 12  1  1  0  0  0
  1  2  2  0  0  0
  2  3  1  0  0  0
  3  4  2  0  0  0
  3  5  1  0  0  0
  5  6  1  0  0  0
  6  7  2  0  0  0
  2 19  1  0  0  0
 19 20  2  0  0  0
 20 21  1  0  0  0
 21 22  2  0  0  0
 22 23  1  0  0  0
 23 24  2  0  0  0
 23 25  1  0  0  0
 25 26  1  0  0  0
 25 27  1  0  0  0
 25 28  1  0  0  0
 12 13  1  0  0  0
 13 14  2  0  0  0
 14 15  1  0  0  0
 15 16  2  0  0  0
 16 17  1  0  0  0
 17 18  2  0  0  0
 18 10  1  0  0  0
  6  1  1  0  0  0
 24 19  1  0  0  0
 18 13  1  0  0  0
  5  8  1  0  0  0
M  END
> <minimizedAffinity>
-8.05614

> <CNNscore>
0.3534861505

> <CNNaffinity>
5.8392848969

> <CNN_VS>
2.0641062260

> <CNNaffinity_variance>
0.1594097763

$$$$
[H]c1nc(N([H])c2c([H])c(N3C([H])([H])C([H])([H])OC([H])([H])C3([H])[H])c([H])c(N3C([H])([H])C([H])([H])OC([H])([H])C3([H])[H])c2[H])nc(N(c2c([H])c(C(=O)N([H])[H])c([H])c(C(F)(F)F)c2[H])C([H])([H])[H])c1[H]


 43 47  0  0  0  0  0  0  0  0999 V2000
  154.2853  141.0814  182.9633 C   0  0  0  0  0  0  0  0  0  0  0  0
  153.4395  141.0717  181.8788 C   0  0  0  0  0  0  0  0  0  0  0  0
  152.7664  139.9044  181.6021 C   0  0  0  0  0  0  0  0  0  0  0  0
  152.9487  138.8215  182.3791 N   0  0  0  0  0  0  0  0  0  0  0  0
  153.7706  138.8154  183.4345 C   0  0  0  0  0  0  0  0  0  0  0  0
  154.4343  139.9802  183.7052 N   0  0  0  0  0  0  0  0  0  0  0  0
  154.3010  143.3639  183.8709 C   0  0  0  0  0  0  0  0  0  0  0  0
  155.0388  142.2709  183.2807 N   0  0  0  0  0  0  0  0  0  0  0  0
  156.4359  142.2747  183.0230 C   0  0  0  0  0  0  0  0  0  0  0  0
  156.9290  142.4993  181.7511 C   0  0  0  0  0  0  0  0  0  0  0  0
  158.2708  142.5116  181.3982 C   0  0  0  0  0  0  0  0  0  0  0  0
  159.1826  142.2785  182.4140 C   0  0  0  0  0  0  0  0  0  0  0  0
  158.7293  142.0445  183.7179 C   0  0  0  0  0  0  0  0  0  0  0  0
  157.3756  142.0407  184.0217 C   0  0  0  0  0  0  0  0  0  0  0  0
  158.6733  142.7631  180.0313 C   0  0  0  0  0  0  0  0  0  0  0  0
  158.1271  142.0016  178.9806 N   0  0  0  0  0  0  0  0  0  0  0  0
  159.5058  143.6610  179.8000 O   0  0  0  0  0  0  0  0  0  0  0  0
  157.8576  142.5061  178.1137 H   0  0  0  0  0  0  0  0  0  0  0  0
  157.9914  140.9747  179.0449 H   0  0  0  0  0  0  0  0  0  0  0  0
  159.7241  141.8061  184.7870 C   0  0  0  0  0  0  0  0  0  0  0  0
  160.2738  143.0203  185.2198 F   0  0  0  0  0  0  0  0  0  0  0  0
  160.7788  141.0434  184.3182 F   0  0  0  0  0  0  0  0  0  0  0  0
  159.1174  141.1923  185.8859 F   0  0  0  0  0  0  0  0  0  0  0  0
  154.0328  137.6735  184.2359 N   0  0  0  0  0  0  0  0  0  0  0  0
  154.7732  136.9924  183.9301 H   0  0  0  0  0  0  0  0  0  0  0  0
  153.3405  137.4099  185.4274 C   0  0  0  0  0  0  0  0  0  0  0  0
  151.9902  137.1629  185.5027 C   0  0  0  0  0  0  0  0  0  0  0  0
  151.4135  136.9052  186.7301 C   0  0  0  0  0  0  0  0  0  0  0  0
  152.2086  136.8984  187.8664 C   0  0  0  0  0  0  0  0  0  0  0  0
  153.5633  137.1385  187.8391 C   0  0  0  0  0  0  0  0  0  0  0  0
  154.1256  137.3953  186.6097 C   0  0  0  0  0  0  0  0  0  0  0  0
  154.4009  137.1138  188.9965 N   0  0  0  0  0  0  0  0  0  0  0  0
  155.8276  136.9940  188.8854 C   0  0  0  0  0  0  0  0  0  0  0  0
  156.5084  137.9819  189.8282 C   0  0  0  0  0  0  0  0  0  0  0  0
  155.8090  138.2276  190.9868 O   0  0  0  0  0  0  0  0  0  0  0  0
  154.9236  137.2128  191.3549 C   0  0  0  0  0  0  0  0  0  0  0  0
  153.8136  137.2090  190.3170 C   0  0  0  0  0  0  0  0  0  0  0  0
  150.0151  136.6836  186.8213 N   0  0  0  0  0  0  0  0  0  0  0  0
  149.0413  137.0418  185.8224 C   0  0  0  0  0  0  0  0  0  0  0  0
  148.0768  137.9994  186.4852 C   0  0  0  0  0  0  0  0  0  0  0  0
  147.5801  137.4972  187.6785 O   0  0  0  0  0  0  0  0  0  0  0  0
  147.9683  136.1894  187.9168 C   0  0  0  0  0  0  0  0  0  0  0  0
  149.4790  136.0261  188.0123 C   0  0  0  0  0  0  0  0  0  0  0  0
  7  8  1  0  0  0
  8  1  1  0  0  0
  1  2  2  0  0  0
  2  3  1  0  0  0
  3  4  2  0  0  0
  4  5  1  0  0  0
  5 24  1  0  0  0
 24 26  1  0  0  0
 26 27  2  0  0  0
 27 28  1  0  0  0
 28 29  2  0  0  0
 29 30  1  0  0  0
 30 31  2  0  0  0
 30 32  1  0  0  0
 32 33  1  0  0  0
 33 34  1  0  0  0
 34 35  1  0  0  0
 35 36  1  0  0  0
 36 37  1  0  0  0
 28 38  1  0  0  0
 38 39  1  0  0  0
 39 40  1  0  0  0
 40 41  1  0  0  0
 41 42  1  0  0  0
 42 43  1  0  0  0
  5  6  2  0  0  0
  8  9  1  0  0  0
  9 10  2  0  0  0
 10 11  1  0  0  0
 11 12  2  0  0  0
 12 13  1  0  0  0
 13 14  2  0  0  0
 13 20  1  0  0  0
 20 21  1  0  0  0
 20 22  1  0  0  0
 20 23  1  0  0  0
 11 15  1  0  0  0
 15 16  1  0  0  0
 15 17  2  0  0  0
  6  1  1  0  0  0
 14  9  1  0  0  0
 31 26  1  0  0  0
 37 32  1  0  0  0
 43 38  1  0  0  0
 24 25  1  0  0  0
 16 18  1  0  0  0
 16 19  1  0  0  0
M  END
> <minimizedAffinity>
-9.46720

> <CNNscore>
0.3259709477

> <CNNaffinity>
6.9463715553

> <CNN_VS>
2.2643153667

> <CNNaffinity_variance>
0.2996175587

$$$$
[H]c1nc(N([H])c2c([H])c(N3C([H])([H])C([H])([H])OC([H])([H])C3([H])[H])c([H])c(N3C([H])([H])C([H])([H])OC([H])([H])C3([H])[H])c2[H])nc(N(c2c([H])c(C(=O)N([H])[H])c([H])c(C(F)(F)F)c2[H])C([H])([H])[H])c1[H]


 43 47  0  0  0  0  0  0  0  0999 V2000
  155.2407  141.1186  183.2243 C   0  0  0  0  0  0  0  0  0  0  0  0
  154.8127  142.4133  183.4042 C   0  0  0  0  0  0  0  0  0  0  0  0
  153.6285  142.7845  182.8107 C   0  0  0  0  0  0  0  0  0  0  0  0
  152.9324  141.8937  182.0815 N   0  0  0  0  0  0  0  0  0  0  0  0
  153.3383  140.6327  181.8952 C   0  0  0  0  0  0  0  0  0  0  0  0
  154.5150  140.2701  182.4904 N   0  0  0  0  0  0  0  0  0  0  0  0
  156.4196  139.6151  184.7682 C   0  0  0  0  0  0  0  0  0  0  0  0
  156.4913  140.6851  183.8000 N   0  0  0  0  0  0  0  0  0  0  0  0
  157.6897  141.3089  183.3608 C   0  0  0  0  0  0  0  0  0  0  0  0
  157.8432  141.7227  182.0506 C   0  0  0  0  0  0  0  0  0  0  0  0
  158.9751  142.3291  181.5250 C   0  0  0  0  0  0  0  0  0  0  0  0
  160.0327  142.5314  182.3957 C   0  0  0  0  0  0  0  0  0  0  0  0
  159.9233  142.1269  183.7317 C   0  0  0  0  0  0  0  0  0  0  0  0
  158.7700  141.5227  184.2109 C   0  0  0  0  0  0  0  0  0  0  0  0
  159.0227  142.7262  180.1345 C   0  0  0  0  0  0  0  0  0  0  0  0
  158.4008  141.9347  179.1501 N   0  0  0  0  0  0  0  0  0  0  0  0
  159.6186  143.7755  179.8238 O   0  0  0  0  0  0  0  0  0  0  0  0
  157.8674  142.4266  178.4070 H   0  0  0  0  0  0  0  0  0  0  0  0
  158.4604  140.8986  179.1444 H   0  0  0  0  0  0  0  0  0  0  0  0
  161.0645  142.3618  184.6439 C   0  0  0  0  0  0  0  0  0  0  0  0
  160.7215  142.0038  185.9546 F   0  0  0  0  0  0  0  0  0  0  0  0
  161.3997  143.7035  184.6791 F   0  0  0  0  0  0  0  0  0  0  0  0
  162.1609  141.5859  184.2586 F   0  0  0  0  0  0  0  0  0  0  0  0
  152.6605  139.6877  181.0813 N   0  0  0  0  0  0  0  0  0  0  0  0
  152.7712  139.7388  180.0369 H   0  0  0  0  0  0  0  0  0  0  0  0
  151.8409  138.6807  181.6130 C   0  0  0  0  0  0  0  0  0  0  0  0
  150.6062  138.9009  182.1759 C   0  0  0  0  0  0  0  0  0  0  0  0
  149.8793  137.8320  182.6603 C   0  0  0  0  0  0  0  0  0  0  0  0
  150.4083  136.5532  182.5685 C   0  0  0  0  0  0  0  0  0  0  0  0
  151.6381  136.2852  182.0124 C   0  0  0  0  0  0  0  0  0  0  0  0
  152.3530  137.3594  181.5345 C   0  0  0  0  0  0  0  0  0  0  0  0
  152.1887  134.9723  181.8900 N   0  0  0  0  0  0  0  0  0  0  0  0
  151.3717  133.8493  181.5244 C   0  0  0  0  0  0  0  0  0  0  0  0
  152.0899  133.0010  180.4789 C   0  0  0  0  0  0  0  0  0  0  0  0
  153.4595  132.9930  180.6048 O   0  0  0  0  0  0  0  0  0  0  0  0
  153.9249  133.2899  181.8872 C   0  0  0  0  0  0  0  0  0  0  0  0
  153.5986  134.7527  182.1384 C   0  0  0  0  0  0  0  0  0  0  0  0
  148.6195  138.0541  183.2740 N   0  0  0  0  0  0  0  0  0  0  0  0
  147.7718  139.1988  183.0607 C   0  0  0  0  0  0  0  0  0  0  0  0
  147.5950  139.8606  184.4088 C   0  0  0  0  0  0  0  0  0  0  0  0
  147.1844  138.9618  185.3816 O   0  0  0  0  0  0  0  0  0  0  0  0
  146.8979  137.7071  184.8706 C   0  0  0  0  0  0  0  0  0  0  0  0
  148.0969  137.0506  184.2003 C   0  0  0  0  0  0  0  0  0  0  0  0
  7  8  1  0  0  0
  8  1  1  0  0  0
  1  2  2  0  0  0
  2  3  1  0  0  0
  3  4  2  0  0  0
  4  5  1  0  0  0
  5 24  1  0  0  0
 24 26  1  0  0  0
 26 27  2  0  0  0
 27 28  1  0  0  0
 28 29  2  0  0  0
 29 30  1  0  0  0
 30 31  2  0  0  0
 30 32  1  0  0  0
 32 33  1  0  0  0
 33 34  1  0  0  0
 34 35  1  0  0  0
 35 36  1  0  0  0
 36 37  1  0  0  0
 28 38  1  0  0  0
 38 39  1  0  0  0
 39 40  1  0  0  0
 40 41  1  0  0  0
 41 42  1  0  0  0
 42 43  1  0  0  0
  5  6  2  0  0  0
  8  9  1  0  0  0
  9 10  2  0  0  0
 10 11  1  0  0  0
 11 12  2  0  0  0
 12 13  1  0  0  0
 13 14  2  0  0  0
 13 20  1  0  0  0
 20 21  1  0  0  0
 20 22  1  0  0  0
 20 23  1  0  0  0
 11 15  1  0  0  0
 15 16  1  0  0  0
 15 17  2  0  0  0
  6  1  1  0  0  0
 14  9  1  0  0  0
 31 26  1  0  0  0
 37 32  1  0  0  0
 43 38  1  0  0  0
 24 25  1  0  0  0
 16 18  1  0  0  0
 16 19  1  0  0  0
M  END
> <minimizedAffinity>
-8.91967

> <CNNscore>
0.3033973277

> <CNNaffinity>
6.8577070236

> <CNN_VS>
2.0806100368

> <CNNaffinity_variance>
0.1510054767

$$$$
[H]c1nc(N([H])c2c([H])c(N3C([H])([H])C([H])([H])OC([H])([H])C3([H])[H])c([H])c(N3C([H])([H])C([H])([H])OC([H])([H])C3([H])[H])c2[H])nc(N(c2c([H])c(C(=O)N([H])[H])c([H])c(C(F)(F)F)c2[H])C([H])([H])[H])c1[H]


 43 47  0  0  0  0  0  0  0  0999 V2000
  155.1859  141.1071  183.2048 C   0  0  0  0  0  0  0  0  0  0  0  0
  154.7813  142.4074  183.3977 C   0  0  0  0  0  0  0  0  0  0  0  0
  153.6019  142.8048  182.8117 C   0  0  0  0  0  0  0  0  0  0  0  0
  152.8879  141.9331  182.0769 N   0  0  0  0  0  0  0  0  0  0  0  0
  153.2708  140.6669  181.8778 C   0  0  0  0  0  0  0  0  0  0  0  0
  154.4429  140.2782  182.4657 N   0  0  0  0  0  0  0  0  0  0  0  0
  156.3452  139.5544  184.7144 C   0  0  0  0  0  0  0  0  0  0  0  0
  156.4305  140.6464  183.7722 N   0  0  0  0  0  0  0  0  0  0  0  0
  157.6365  141.2675  183.3504 C   0  0  0  0  0  0  0  0  0  0  0  0
  157.8077  141.6857  182.0437 C   0  0  0  0  0  0  0  0  0  0  0  0
  158.9483  142.2899  181.5345 C   0  0  0  0  0  0  0  0  0  0  0  0
  159.9957  142.4851  182.4191 C   0  0  0  0  0  0  0  0  0  0  0  0
  159.8681  142.0760  183.7520 C   0  0  0  0  0  0  0  0  0  0  0  0
  158.7068  141.4742  184.2146 C   0  0  0  0  0  0  0  0  0  0  0  0
  159.0145  142.6921  180.1462 C   0  0  0  0  0  0  0  0  0  0  0  0
  158.4223  141.8944  179.1486 N   0  0  0  0  0  0  0  0  0  0  0  0
  159.5999  143.7513  179.8493 O   0  0  0  0  0  0  0  0  0  0  0  0
  157.8948  142.3805  178.3976 H   0  0  0  0  0  0  0  0  0  0  0  0
  158.4977  140.8594  179.1410 H   0  0  0  0  0  0  0  0  0  0  0  0
  160.9988  142.3033  184.6793 C   0  0  0  0  0  0  0  0  0  0  0  0
  161.3945  143.6470  184.6439 F   0  0  0  0  0  0  0  0  0  0  0  0
  162.1028  141.5596  184.3024 F   0  0  0  0  0  0  0  0  0  0  0  0
  160.6197  142.0004  185.9896 F   0  0  0  0  0  0  0  0  0  0  0  0
  152.5739  139.7413  181.0578 N   0  0  0  0  0  0  0  0  0  0  0  0
  152.4820  139.9371  180.0288 H   0  0  0  0  0  0  0  0  0  0  0  0
  151.9955  138.5675  181.5639 C   0  0  0  0  0  0  0  0  0  0  0  0
  152.5194  137.3079  181.3941 C   0  0  0  0  0  0  0  0  0  0  0  0
  151.8703  136.2215  181.9454 C   0  0  0  0  0  0  0  0  0  0  0  0
  150.7005  136.4213  182.6631 C   0  0  0  0  0  0  0  0  0  0  0  0
  150.1405  137.6628  182.8599 C   0  0  0  0  0  0  0  0  0  0  0  0
  150.7965  138.7371  182.3042 C   0  0  0  0  0  0  0  0  0  0  0  0
  148.9484  137.8891  183.6146 N   0  0  0  0  0  0  0  0  0  0  0  0
  148.6254  137.0879  184.7617 C   0  0  0  0  0  0  0  0  0  0  0  0
  148.1432  137.9804  185.9015 C   0  0  0  0  0  0  0  0  0  0  0  0
  147.4668  139.1046  185.4887 O   0  0  0  0  0  0  0  0  0  0  0  0
  146.8888  139.0000  184.2221 C   0  0  0  0  0  0  0  0  0  0  0  0
  148.0353  138.9442  183.2262 C   0  0  0  0  0  0  0  0  0  0  0  0
  152.3851  134.9146  181.7457 N   0  0  0  0  0  0  0  0  0  0  0  0
  153.7669  134.5281  181.8718 C   0  0  0  0  0  0  0  0  0  0  0  0
  154.1861  133.9831  180.5250 C   0  0  0  0  0  0  0  0  0  0  0  0
  153.3135  133.0105  180.0610 O   0  0  0  0  0  0  0  0  0  0  0  0
  152.3471  132.6647  180.9906 C   0  0  0  0  0  0  0  0  0  0  0  0
  151.4623  133.8369  181.3918 C   0  0  0  0  0  0  0  0  0  0  0  0
  7  8  1  0  0  0
  8  1  1  0  0  0
  1  2  2  0  0  0
  2  3  1  0  0  0
  3  4  2  0  0  0
  4  5  1  0  0  0
  5 24  1  0  0  0
 24 26  1  0  0  0
 26 27  2  0  0  0
 27 28  1  0  0  0
 28 29  2  0  0  0
 29 30  1  0  0  0
 30 31  2  0  0  0
 30 32  1  0  0  0
 32 33  1  0  0  0
 33 34  1  0  0  0
 34 35  1  0  0  0
 35 36  1  0  0  0
 36 37  1  0  0  0
 28 38  1  0  0  0
 38 39  1  0  0  0
 39 40  1  0  0  0
 40 41  1  0  0  0
 41 42  1  0  0  0
 42 43  1  0  0  0
  5  6  2  0  0  0
  8  9  1  0  0  0
  9 10  2  0  0  0
 10 11  1  0  0  0
 11 12  2  0  0  0
 12 13  1  0  0  0
 13 14  2  0  0  0
 13 20  1  0  0  0
 20 21  1  0  0  0
 20 22  1  0  0  0
 20 23  1  0  0  0
 11 15  1  0  0  0
 15 16  1  0  0  0
 15 17  2  0  0  0
  6  1  1  0  0  0
 14  9  1  0  0  0
 31 26  1  0  0  0
 37 32  1  0  0  0
 43 38  1  0  0  0
 24 25  1  0  0  0
 16 18  1  0  0  0
 16 19  1  0  0  0
M  END
> <minimizedAffinity>
-8.96472

> <CNNscore>
0.2883782685

> <CNNaffinity>
6.8048262596

> <CNN_VS>
1.9623639584

> <CNNaffinity_variance>
0.2113949358

$$$$
[H]c1nc(N([H])c2c([H])c(N3C([H])([H])C([H])([H])OC([H])([H])C3([H])[H])c([H])c(N3C([H])([H])C([H])([H])OC([H])([H])C3([H])[H])c2[H])nc(N(c2c([H])c(C(=O)N([H])[H])c([H])c(C(F)(F)F)c2[H])C([H])([H])[H])c1[H]


 43 47  0  0  0  0  0  0  0  0999 V2000
  154.2590  140.9933  183.1006 C   0  0  0  0  0  0  0  0  0  0  0  0
  153.3461  140.9425  182.0732 C   0  0  0  0  0  0  0  0  0  0  0  0
  152.7103  139.7451  181.8402 C   0  0  0  0  0  0  0  0  0  0  0  0
  152.9915  138.6736  182.6034 N   0  0  0  0  0  0  0  0  0  0  0  0
  153.8796  138.7075  183.6033 C   0  0  0  0  0  0  0  0  0  0  0  0
  154.5056  139.9020  183.8309 N   0  0  0  0  0  0  0  0  0  0  0  0
  154.2055  143.3115  183.9115 C   0  0  0  0  0  0  0  0  0  0  0  0
  154.9766  142.2167  183.3690 N   0  0  0  0  0  0  0  0  0  0  0  0
  156.3737  142.2505  183.1139 C   0  0  0  0  0  0  0  0  0  0  0  0
  156.8640  142.4624  181.8387 C   0  0  0  0  0  0  0  0  0  0  0  0
  158.2059  142.5015  181.4880 C   0  0  0  0  0  0  0  0  0  0  0  0
  159.1209  142.3113  182.5099 C   0  0  0  0  0  0  0  0  0  0  0  0
  158.6706  142.0917  183.8173 C   0  0  0  0  0  0  0  0  0  0  0  0
  157.3167  142.0598  184.1187 C   0  0  0  0  0  0  0  0  0  0  0  0
  158.6051  142.7361  180.1172 C   0  0  0  0  0  0  0  0  0  0  0  0
  158.1370  141.8955  179.0894 N   0  0  0  0  0  0  0  0  0  0  0  0
  159.3648  143.6903  179.8619 O   0  0  0  0  0  0  0  0  0  0  0  0
  157.8391  142.3450  178.2018 H   0  0  0  0  0  0  0  0  0  0  0  0
  158.0844  140.8639  179.1898 H   0  0  0  0  0  0  0  0  0  0  0  0
  159.6686  141.8994  184.8927 C   0  0  0  0  0  0  0  0  0  0  0  0
  160.7601  141.1604  184.4172 F   0  0  0  0  0  0  0  0  0  0  0  0
  159.1308  141.1738  185.9407 F   0  0  0  0  0  0  0  0  0  0  0  0
  160.1461  143.1349  185.3377 F   0  0  0  0  0  0  0  0  0  0  0  0
  154.2447  137.5807  184.3856 N   0  0  0  0  0  0  0  0  0  0  0  0
  154.9289  136.8853  183.9935 H   0  0  0  0  0  0  0  0  0  0  0  0
  153.7273  137.3507  185.6693 C   0  0  0  0  0  0  0  0  0  0  0  0
  154.4730  137.3795  186.8238 C   0  0  0  0  0  0  0  0  0  0  0  0
  153.8570  137.1476  188.0372 C   0  0  0  0  0  0  0  0  0  0  0  0
  152.4944  136.8912  188.0694 C   0  0  0  0  0  0  0  0  0  0  0  0
  151.7083  136.8540  186.9406 C   0  0  0  0  0  0  0  0  0  0  0  0
  152.3347  137.0854  185.7375 C   0  0  0  0  0  0  0  0  0  0  0  0
  150.2999  136.6131  186.9574 N   0  0  0  0  0  0  0  0  0  0  0  0
  149.7295  135.5649  187.7562 C   0  0  0  0  0  0  0  0  0  0  0  0
  148.4879  136.0782  188.4797 C   0  0  0  0  0  0  0  0  0  0  0  0
  147.7844  137.0325  187.7825 O   0  0  0  0  0  0  0  0  0  0  0  0
  147.9796  137.0011  186.4004 C   0  0  0  0  0  0  0  0  0  0  0  0
  149.4157  137.4337  186.1559 C   0  0  0  0  0  0  0  0  0  0  0  0
  154.6252  137.1411  189.2300 N   0  0  0  0  0  0  0  0  0  0  0  0
  154.1439  137.4943  190.5408 C   0  0  0  0  0  0  0  0  0  0  0  0
  154.9855  138.6603  191.0087 C   0  0  0  0  0  0  0  0  0  0  0  0
  156.3433  138.4008  190.8995 O   0  0  0  0  0  0  0  0  0  0  0  0
  156.6148  137.0960  190.5235 C   0  0  0  0  0  0  0  0  0  0  0  0
  156.0284  136.7347  189.1657 C   0  0  0  0  0  0  0  0  0  0  0  0
  7  8  1  0  0  0
  8  1  1  0  0  0
  1  2  2  0  0  0
  2  3  1  0  0  0
  3  4  2  0  0  0
  4  5  1  0  0  0
  5 24  1  0  0  0
 24 26  1  0  0  0
 26 27  2  0  0  0
 27 28  1  0  0  0
 28 29  2  0  0  0
 29 30  1  0  0  0
 30 31  2  0  0  0
 30 32  1  0  0  0
 32 33  1  0  0  0
 33 34  1  0  0  0
 34 35  1  0  0  0
 35 36  1  0  0  0
 36 37  1  0  0  0
 28 38  1  0  0  0
 38 39  1  0  0  0
 39 40  1  0  0  0
 40 41  1  0  0  0
 41 42  1  0  0  0
 42 43  1  0  0  0
  5  6  2  0  0  0
  8  9  1  0  0  0
  9 10  2  0  0  0
 10 11  1  0  0  0
 11 12  2  0  0  0
 12 13  1  0  0  0
 13 14  2  0  0  0
 13 20  1  0  0  0
 20 21  1  0  0  0
 20 22  1  0  0  0
 20 23  1  0  0  0
 11 15  1  0  0  0
 15 16  1  0  0  0
 15 17  2  0  0  0
  6  1  1  0  0  0
 14  9  1  0  0  0
 31 26  1  0  0  0
 37 32  1  0  0  0
 43 38  1  0  0  0
 24 25  1  0  0  0
 16 18  1  0  0  0
 16 19  1  0  0  0
M  END
> <minimizedAffinity>
-9.31061

> <CNNscore>
0.2871569991

> <CNNaffinity>
6.9093046188

> <CNN_VS>
1.9840551615

> <CNNaffinity_variance>
0.2357011139

$$$$
[H]c1nc(N([H])c2c([H])c(N3C([H])([H])C([H])([H])OC([H])([H])C3([H])[H])c([H])c(N3C([H])([H])C([H])([H])OC([H])([H])C3([H])[H])c2[H])nc(N(c2c([H])c(C(=O)N([H])[H])c([H])c(C(F)(F)F)c2[H])C([H])([H])[H])c1[H]


 43 47  0  0  0  0  0  0  0  0999 V2000
  155.7032  141.3280  183.4776 C   0  0  0  0  0  0  0  0  0  0  0  0
  155.2008  142.5986  183.6351 C   0  0  0  0  0  0  0  0  0  0  0  0
  153.9993  142.8914  183.0327 C   0  0  0  0  0  0  0  0  0  0  0  0
  153.3580  141.9503  182.3165 N   0  0  0  0  0  0  0  0  0  0  0  0
  153.8364  140.7119  182.1520 C   0  0  0  0  0  0  0  0  0  0  0  0
  155.0300  140.4272  182.7560 N   0  0  0  0  0  0  0  0  0  0  0  0
  157.0679  139.6663  184.6652 C   0  0  0  0  0  0  0  0  0  0  0  0
  156.9747  140.9765  184.0634 N   0  0  0  0  0  0  0  0  0  0  0  0
  158.0381  141.9149  183.9833 C   0  0  0  0  0  0  0  0  0  0  0  0
  159.0837  141.8914  184.8877 C   0  0  0  0  0  0  0  0  0  0  0  0
  160.1585  142.7689  184.8990 C   0  0  0  0  0  0  0  0  0  0  0  0
  160.1739  143.7452  183.9170 C   0  0  0  0  0  0  0  0  0  0  0  0
  159.1351  143.8086  182.9803 C   0  0  0  0  0  0  0  0  0  0  0  0
  158.0797  142.9086  183.0107 C   0  0  0  0  0  0  0  0  0  0  0  0
  161.2018  142.6468  185.8939 C   0  0  0  0  0  0  0  0  0  0  0  0
  160.9156  142.8793  187.2527 N   0  0  0  0  0  0  0  0  0  0  0  0
  162.3518  142.3326  185.5310 O   0  0  0  0  0  0  0  0  0  0  0  0
  161.3301  142.2281  187.9474 H   0  0  0  0  0  0  0  0  0  0  0  0
  160.3184  143.6655  187.5727 H   0  0  0  0  0  0  0  0  0  0  0  0
  159.1792  144.8562  181.9361 C   0  0  0  0  0  0  0  0  0  0  0  0
  157.9273  145.4736  181.8131 F   0  0  0  0  0  0  0  0  0  0  0  0
  159.4690  144.3079  180.6994 F   0  0  0  0  0  0  0  0  0  0  0  0
  160.1127  145.8393  182.2746 F   0  0  0  0  0  0  0  0  0  0  0  0
  153.2168  139.7163  181.3521 N   0  0  0  0  0  0  0  0  0  0  0  0
  153.4623  139.6535  180.3316 H   0  0  0  0  0  0  0  0  0  0  0  0
  152.2820  138.8054  181.8667 C   0  0  0  0  0  0  0  0  0  0  0  0
  152.4453  138.1027  183.0369 C   0  0  0  0  0  0  0  0  0  0  0  0
  151.4539  137.2377  183.4548 C   0  0  0  0  0  0  0  0  0  0  0  0
  150.3086  137.0947  182.6859 C   0  0  0  0  0  0  0  0  0  0  0  0
  150.1012  137.7779  181.5095 C   0  0  0  0  0  0  0  0  0  0  0  0
  151.0975  138.6358  181.1035 C   0  0  0  0  0  0  0  0  0  0  0  0
  148.9185  137.6591  180.7165 N   0  0  0  0  0  0  0  0  0  0  0  0
  148.5307  138.6875  179.7923 C   0  0  0  0  0  0  0  0  0  0  0  0
  148.0960  138.0626  178.4698 C   0  0  0  0  0  0  0  0  0  0  0  0
  147.4999  136.8298  178.5988 O   0  0  0  0  0  0  0  0  0  0  0  0
  146.9301  136.5904  179.8508 C   0  0  0  0  0  0  0  0  0  0  0  0
  148.0813  136.4833  180.8371 C   0  0  0  0  0  0  0  0  0  0  0  0
  151.6295  136.4827  184.6431 N   0  0  0  0  0  0  0  0  0  0  0  0
  150.6250  136.2564  185.6502 C   0  0  0  0  0  0  0  0  0  0  0  0
  151.1718  136.8270  186.9394 C   0  0  0  0  0  0  0  0  0  0  0  0
  152.4447  136.3545  187.2208 O   0  0  0  0  0  0  0  0  0  0  0  0
  152.8624  135.3713  186.3396 C   0  0  0  0  0  0  0  0  0  0  0  0
  152.9250  135.8540  184.8970 C   0  0  0  0  0  0  0  0  0  0  0  0
  7  8  1  0  0  0
  8  1  1  0  0  0
  1  2  2  0  0  0
  2  3  1  0  0  0
  3  4  2  0  0  0
  4  5  1  0  0  0
  5 24  1  0  0  0
 24 26  1  0  0  0
 26 27  2  0  0  0
 27 28  1  0  0  0
 28 29  2  0  0  0
 29 30  1  0  0  0
 30 31  2  0  0  0
 30 32  1  0  0  0
 32 33  1  0  0  0
 33 34  1  0  0  0
 34 35  1  0  0  0
 35 36  1  0  0  0
 36 37  1  0  0  0
 28 38  1  0  0  0
 38 39  1  0  0  0
 39 40  1  0  0  0
 40 41  1  0  0  0
 41 42  1  0  0  0
 42 43  1  0  0  0
  5  6  2  0  0  0
  8  9  1  0  0  0
  9 10  2  0  0  0
 10 11  1  0  0  0
 11 12  2  0  0  0
 12 13  1  0  0  0
 13 14  2  0  0  0
 13 20  1  0  0  0
 20 21  1  0  0  0
 20 22  1  0  0  0
 20 23  1  0  0  0
 11 15  1  0  0  0
 15 16  1  0  0  0
 15 17  2  0  0  0
  6  1  1  0  0  0
 14  9  1  0  0  0
 31 26  1  0  0  0
 37 32  1  0  0  0
 43 38  1  0  0  0
 24 25  1  0  0  0
 16 18  1  0  0  0
 16 19  1  0  0  0
M  END
> <minimizedAffinity>
-8.91409

> <CNNscore>
0.2220173478

> <CNNaffinity>
6.7799811363

> <CNN_VS>
1.5052734613

> <CNNaffinity_variance>
0.1547752768

$$$$
[H]c1nc(N([H])c2c([H])c(N3C([H])([H])C([H])([H])OC([H])([H])C3([H])[H])c([H])c(N3C([H])([H])C([H])([H])OC([H])([H])C3([H])[H])c2[H])nc(N(c2c([H])c(C(=O)N([H])[H])c([H])c(C(F)(F)F)c2[H])C([H])([H])[H])c1[H]


 43 47  0  0  0  0  0  0  0  0999 V2000
  155.0927  140.7060  183.5487 C   0  0  0  0  0  0  0  0  0  0  0  0
  155.7891  139.8404  184.3595 C   0  0  0  0  0  0  0  0  0  0  0  0
  155.2709  138.5797  184.5448 C   0  0  0  0  0  0  0  0  0  0  0  0
  154.1188  138.2302  183.9446 N   0  0  0  0  0  0  0  0  0  0  0  0
  153.4291  139.0627  183.1566 C   0  0  0  0  0  0  0  0  0  0  0  0
  153.9518  140.3134  182.9748 N   0  0  0  0  0  0  0  0  0  0  0  0
  154.6186  143.1162  183.5323 C   0  0  0  0  0  0  0  0  0  0  0  0
  155.5760  142.0507  183.3443 N   0  0  0  0  0  0  0  0  0  0  0  0
  156.9439  142.2332  183.0073 C   0  0  0  0  0  0  0  0  0  0  0  0
  157.3319  142.4990  181.7072 C   0  0  0  0  0  0  0  0  0  0  0  0
  158.6388  142.6811  181.2781 C   0  0  0  0  0  0  0  0  0  0  0  0
  159.6283  142.5866  182.2423 C   0  0  0  0  0  0  0  0  0  0  0  0
  159.2826  142.3172  183.5721 C   0  0  0  0  0  0  0  0  0  0  0  0
  157.9602  142.1412  183.9528 C   0  0  0  0  0  0  0  0  0  0  0  0
  158.9283  142.9601  179.8882 C   0  0  0  0  0  0  0  0  0  0  0  0
  158.2651  142.2491  178.8699 N   0  0  0  0  0  0  0  0  0  0  0  0
  159.7687  143.8365  179.6081 O   0  0  0  0  0  0  0  0  0  0  0  0
  157.9386  142.7880  178.0444 H   0  0  0  0  0  0  0  0  0  0  0  0
  158.0991  141.2257  178.9182 H   0  0  0  0  0  0  0  0  0  0  0  0
  160.3579  142.2293  184.5849 C   0  0  0  0  0  0  0  0  0  0  0  0
  159.8209  141.9050  185.8379 F   0  0  0  0  0  0  0  0  0  0  0  0
  160.9948  143.4482  184.7351 F   0  0  0  0  0  0  0  0  0  0  0  0
  161.2716  141.2312  184.2366 F   0  0  0  0  0  0  0  0  0  0  0  0
  152.1805  138.7467  182.5600 N   0  0  0  0  0  0  0  0  0  0  0  0
  151.7754  139.4009  181.8435 H   0  0  0  0  0  0  0  0  0  0  0  0
  151.4556  137.5911  182.8882 C   0  0  0  0  0  0  0  0  0  0  0  0
  150.4345  137.5499  183.8076 C   0  0  0  0  0  0  0  0  0  0  0  0
  149.7815  136.3572  184.0456 C   0  0  0  0  0  0  0  0  0  0  0  0
  150.1673  135.2209  183.3503 C   0  0  0  0  0  0  0  0  0  0  0  0
  151.1819  135.2150  182.4207 C   0  0  0  0  0  0  0  0  0  0  0  0
  151.8255  136.4099  182.1937 C   0  0  0  0  0  0  0  0  0  0  0  0
  151.5776  134.0591  181.6798 N   0  0  0  0  0  0  0  0  0  0  0  0
  150.6135  133.2376  181.0032 C   0  0  0  0  0  0  0  0  0  0  0  0
  151.1155  132.8895  179.6049 C   0  0  0  0  0  0  0  0  0  0  0  0
  152.4824  132.7695  179.5112 O   0  0  0  0  0  0  0  0  0  0  0  0
  153.1210  132.4675  180.7155 C   0  0  0  0  0  0  0  0  0  0  0  0
  152.9770  133.6938  181.6013 C   0  0  0  0  0  0  0  0  0  0  0  0
  148.7499  136.2980  185.0178 N   0  0  0  0  0  0  0  0  0  0  0  0
  147.3367  136.3657  184.7478 C   0  0  0  0  0  0  0  0  0  0  0  0
  146.8126  137.5706  185.4963 C   0  0  0  0  0  0  0  0  0  0  0  0
  147.1854  137.5581  186.8318 O   0  0  0  0  0  0  0  0  0  0  0  0
  147.8259  136.3876  187.2023 C   0  0  0  0  0  0  0  0  0  0  0  0
  149.1125  136.1430  186.4258 C   0  0  0  0  0  0  0  0  0  0  0  0
  7  8  1  0  0  0
  8  1  1  0  0  0
  1  2  2  0  0  0
  2  3  1  0  0  0
  3  4  2  0  0  0
  4  5  1  0  0  0
  5 24  1  0  0  0
 24 26  1  0  0  0
 26 27  2  0  0  0
 27 28  1  0  0  0
 28 29  2  0  0  0
 29 30  1  0  0  0
 30 31  2  0  0  0
 30 32  1  0  0  0
 32 33  1  0  0  0
 33 34  1  0  0  0
 34 35  1  0  0  0
 35 36  1  0  0  0
 36 37  1  0  0  0
 28 38  1  0  0  0
 38 39  1  0  0  0
 39 40  1  0  0  0
 40 41  1  0  0  0
 41 42  1  0  0  0
 42 43  1  0  0  0
  5  6  2  0  0  0
  8  9  1  0  0  0
  9 10  2  0  0  0
 10 11  1  0  0  0
 11 12  2  0  0  0
 12 13  1  0  0  0
 13 14  2  0  0  0
 13 20  1  0  0  0
 20 21  1  0  0  0
 20 22  1  0  0  0
 20 23  1  0  0  0
 11 15  1  0  0  0
 15 16  1  0  0  0
 15 17  2  0  0  0
  6  1  1  0  0  0
 14  9  1  0  0  0
 31 26  1  0  0  0
 37 32  1  0  0  0
 43 38  1  0  0  0
 24 25  1  0  0  0
 16 18  1  0  0  0
 16 19  1  0  0  0
M  END
> <minimizedAffinity>
-7.99750

> <CNNscore>
0.2185575962

> <CNNaffinity>
6.6494207382

> <CNN_VS>
1.4532814026

> <CNNaffinity_variance>
0.0753518790

$$$$
[H]c1nc(N([H])c2c([H])c(N3C([H])([H])C([H])([H])OC([H])([H])C3([H])[H])c([H])c(N3C([H])([H])C([H])([H])OC([H])([H])C3([H])[H])c2[H])nc(N(c2c([H])c(C(=O)N([H])[H])c([H])c(C(F)(F)F)c2[H])C([H])([H])[H])c1[H]


 43 47  0  0  0  0  0  0  0  0999 V2000
  156.5946  140.5513  183.3308 C   0  0  0  0  0  0  0  0  0  0  0  0
  156.0953  141.3984  182.3691 C   0  0  0  0  0  0  0  0  0  0  0  0
  154.7300  141.4526  182.2099 C   0  0  0  0  0  0  0  0  0  0  0  0
  153.9315  140.6907  182.9791 N   0  0  0  0  0  0  0  0  0  0  0  0
  154.4033  139.8599  183.9155 C   0  0  0  0  0  0  0  0  0  0  0  0
  155.7614  139.8134  184.0700 N   0  0  0  0  0  0  0  0  0  0  0  0
  158.5734  139.1005  183.4461 C   0  0  0  0  0  0  0  0  0  0  0  0
  158.0208  140.4335  183.5191 N   0  0  0  0  0  0  0  0  0  0  0  0
  158.7749  141.6187  183.7299 C   0  0  0  0  0  0  0  0  0  0  0  0
  159.6893  141.7116  184.7628 C   0  0  0  0  0  0  0  0  0  0  0  0
  160.4625  142.8258  185.0560 C   0  0  0  0  0  0  0  0  0  0  0  0
  160.2955  143.9307  184.2381 C   0  0  0  0  0  0  0  0  0  0  0  0
  159.3794  143.8832  183.1803 C   0  0  0  0  0  0  0  0  0  0  0  0
  158.6270  142.7454  182.9274 C   0  0  0  0  0  0  0  0  0  0  0  0
  161.3940  142.8085  186.1630 C   0  0  0  0  0  0  0  0  0  0  0  0
  160.9722  143.1942  187.4497 N   0  0  0  0  0  0  0  0  0  0  0  0
  162.5693  142.4471  185.9608 O   0  0  0  0  0  0  0  0  0  0  0  0
  161.2995  142.6220  188.2523 H   0  0  0  0  0  0  0  0  0  0  0  0
  160.3600  144.0156  187.6157 H   0  0  0  0  0  0  0  0  0  0  0  0
  159.2255  145.0744  182.3159 C   0  0  0  0  0  0  0  0  0  0  0  0
  159.4868  144.7430  180.9797 F   0  0  0  0  0  0  0  0  0  0  0  0
  160.1373  146.0558  182.6617 F   0  0  0  0  0  0  0  0  0  0  0  0
  157.9184  145.5623  182.3909 F   0  0  0  0  0  0  0  0  0  0  0  0
  153.5930  138.9975  184.6994 N   0  0  0  0  0  0  0  0  0  0  0  0
  152.5468  139.0861  184.6424 H   0  0  0  0  0  0  0  0  0  0  0  0
  154.1307  138.0250  185.5559 C   0  0  0  0  0  0  0  0  0  0  0  0
  154.5805  138.2758  186.8305 C   0  0  0  0  0  0  0  0  0  0  0  0
  155.0827  137.2388  187.5908 C   0  0  0  0  0  0  0  0  0  0  0  0
  155.1227  135.9605  187.0544 C   0  0  0  0  0  0  0  0  0  0  0  0
  154.6827  135.6624  185.7851 C   0  0  0  0  0  0  0  0  0  0  0  0
  154.1857  136.7050  185.0372 C   0  0  0  0  0  0  0  0  0  0  0  0
  154.6963  134.3479  185.2248 N   0  0  0  0  0  0  0  0  0  0  0  0
  154.3640  134.1184  183.8468 C   0  0  0  0  0  0  0  0  0  0  0  0
  155.3641  133.1486  183.2243 C   0  0  0  0  0  0  0  0  0  0  0  0
  155.8584  132.2104  184.1002 O   0  0  0  0  0  0  0  0  0  0  0  0
  155.0361  131.9545  185.1991 C   0  0  0  0  0  0  0  0  0  0  0  0
  155.0488  133.2123  186.0518 C   0  0  0  0  0  0  0  0  0  0  0  0
  155.5810  137.4950  188.8943 N   0  0  0  0  0  0  0  0  0  0  0  0
  156.7432  136.8822  189.4844 C   0  0  0  0  0  0  0  0  0  0  0  0
  156.2668  136.1629  190.7263 C   0  0  0  0  0  0  0  0  0  0  0  0
  155.5180  136.9876  191.5521 O   0  0  0  0  0  0  0  0  0  0  0  0
  155.4967  138.3043  191.1240 C   0  0  0  0  0  0  0  0  0  0  0  0
  154.8889  138.4685  189.7377 C   0  0  0  0  0  0  0  0  0  0  0  0
  7  8  1  0  0  0
  8  1  1  0  0  0
  1  2  2  0  0  0
  2  3  1  0  0  0
  3  4  2  0  0  0
  4  5  1  0  0  0
  5 24  1  0  0  0
 24 26  1  0  0  0
 26 27  2  0  0  0
 27 28  1  0  0  0
 28 29  2  0  0  0
 29 30  1  0  0  0
 30 31  2  0  0  0
 30 32  1  0  0  0
 32 33  1  0  0  0
 33 34  1  0  0  0
 34 35  1  0  0  0
 35 36  1  0  0  0
 36 37  1  0  0  0
 28 38  1  0  0  0
 38 39  1  0  0  0
 39 40  1  0  0  0
 40 41  1  0  0  0
 41 42  1  0  0  0
 42 43  1  0  0  0
  5  6  2  0  0  0
  8  9  1  0  0  0
  9 10  2  0  0  0
 10 11  1  0  0  0
 11 12  2  0  0  0
 12 13  1  0  0  0
 13 14  2  0  0  0
 13 20  1  0  0  0
 20 21  1  0  0  0
 20 22  1  0  0  0
 20 23  1  0  0  0
 11 15  1  0  0  0
 15 16  1  0  0  0
 15 17  2  0  0  0
  6  1  1  0  0  0
 14  9  1  0  0  0
 31 26  1  0  0  0
 37 32  1  0  0  0
 43 38  1  0  0  0
 24 25  1  0  0  0
 16 18  1  0  0  0
 16 19  1  0  0  0
M  END
> <minimizedAffinity>
-8.81625

> <CNNscore>
0.2130232751

> <CNNaffinity>
7.1465692520

> <CNN_VS>
1.5223855972

> <CNNaffinity_variance>
0.0152205797

$$$$
[H]c1nc(N([H])c2c([H])c(N3C([H])([H])C([H])([H])OC([H])([H])C3([H])[H])c([H])c(N3C([H])([H])C([H])([H])OC([H])([H])C3([H])[H])c2[H])nc(N(c2c([H])c(C(=O)N([H])[H])c([H])c(C(F)(F)F)c2[H])C([H])([H])[H])c1[H]


 43 47  0  0  0  0  0  0  0  0999 V2000
  156.5928  140.3726  183.4876 C   0  0  0  0  0  0  0  0  0  0  0  0
  155.8456  141.5273  183.4797 C   0  0  0  0  0  0  0  0  0  0  0  0
  154.5072  141.4260  183.7809 C   0  0  0  0  0  0  0  0  0  0  0  0
  153.9702  140.2262  184.0673 N   0  0  0  0  0  0  0  0  0  0  0  0
  154.6839  139.0948  184.0752 C   0  0  0  0  0  0  0  0  0  0  0  0
  156.0143  139.2035  183.7775 N   0  0  0  0  0  0  0  0  0  0  0  0
  158.5428  139.2444  182.5086 C   0  0  0  0  0  0  0  0  0  0  0  0
  157.9953  140.4178  183.1495 N   0  0  0  0  0  0  0  0  0  0  0  0
  158.7221  141.6038  183.4380 C   0  0  0  0  0  0  0  0  0  0  0  0
  159.5904  141.6683  184.5119 C   0  0  0  0  0  0  0  0  0  0  0  0
  160.3340  142.7803  184.8806 C   0  0  0  0  0  0  0  0  0  0  0  0
  160.1854  143.9140  184.0993 C   0  0  0  0  0  0  0  0  0  0  0  0
  159.3157  143.8958  183.0022 C   0  0  0  0  0  0  0  0  0  0  0  0
  158.5916  142.7589  182.6738 C   0  0  0  0  0  0  0  0  0  0  0  0
  161.2179  142.7320  186.0250 C   0  0  0  0  0  0  0  0  0  0  0  0
  160.7073  142.9239  187.3230 N   0  0  0  0  0  0  0  0  0  0  0  0
  162.4321  142.5175  185.8446 O   0  0  0  0  0  0  0  0  0  0  0  0
  161.0623  142.3004  188.0739 H   0  0  0  0  0  0  0  0  0  0  0  0
  160.0049  143.6545  187.5462 H   0  0  0  0  0  0  0  0  0  0  0  0
  159.1808  145.1176  182.1785 C   0  0  0  0  0  0  0  0  0  0  0  0
  159.4609  144.8324  180.8354 F   0  0  0  0  0  0  0  0  0  0  0  0
  160.0919  146.0812  182.5727 F   0  0  0  0  0  0  0  0  0  0  0  0
  157.8750  145.6096  182.2509 F   0  0  0  0  0  0  0  0  0  0  0  0
  154.1360  137.8067  184.3111 N   0  0  0  0  0  0  0  0  0  0  0  0
  154.2827  137.0493  183.5967 H   0  0  0  0  0  0  0  0  0  0  0  0
  153.3994  137.4971  185.4644 C   0  0  0  0  0  0  0  0  0  0  0  0
  152.0434  137.2717  185.4826 C   0  0  0  0  0  0  0  0  0  0  0  0
  151.4212  136.9640  186.6758 C   0  0  0  0  0  0  0  0  0  0  0  0
  152.1771  136.8862  187.8360 C   0  0  0  0  0  0  0  0  0  0  0  0
  153.5358  137.1023  187.8654 C   0  0  0  0  0  0  0  0  0  0  0  0
  154.1436  137.4094  186.6697 C   0  0  0  0  0  0  0  0  0  0  0  0
  154.3332  137.0048  189.0471 N   0  0  0  0  0  0  0  0  0  0  0  0
  155.6402  137.5952  189.1188 C   0  0  0  0  0  0  0  0  0  0  0  0
  155.8109  138.3230  190.4491 C   0  0  0  0  0  0  0  0  0  0  0  0
  155.1283  137.7493  191.4962 O   0  0  0  0  0  0  0  0  0  0  0  0
  154.8458  136.3923  191.3290 C   0  0  0  0  0  0  0  0  0  0  0  0
  153.8272  136.2972  190.2052 C   0  0  0  0  0  0  0  0  0  0  0  0
  150.0170  136.7640  186.7095 N   0  0  0  0  0  0  0  0  0  0  0  0
  149.0841  137.1862  185.6966 C   0  0  0  0  0  0  0  0  0  0  0  0
  148.1135  138.1292  186.3714 C   0  0  0  0  0  0  0  0  0  0  0  0
  147.5679  137.5809  187.5223 O   0  0  0  0  0  0  0  0  0  0  0  0
  147.9259  136.2566  187.7113 C   0  0  0  0  0  0  0  0  0  0  0  0
  149.4295  136.0615  187.8495 C   0  0  0  0  0  0  0  0  0  0  0  0
  7  8  1  0  0  0
  8  1  1  0  0  0
  1  2  2  0  0  0
  2  3  1  0  0  0
  3  4  2  0  0  0
  4  5  1  0  0  0
  5 24  1  0  0  0
 24 26  1  0  0  0
 26 27  2  0  0  0
 27 28  1  0  0  0
 28 29  2  0  0  0
 29 30  1  0  0  0
 30 31  2  0  0  0
 30 32  1  0  0  0
 32 33  1  0  0  0
 33 34  1  0  0  0
 34 35  1  0  0  0
 35 36  1  0  0  0
 36 37  1  0  0  0
 28 38  1  0  0  0
 38 39  1  0  0  0
 39 40  1  0  0  0
 40 41  1  0  0  0
 41 42  1  0  0  0
 42 43  1  0  0  0
  5  6  2  0  0  0
  8  9  1  0  0  0
  9 10  2  0  0  0
 10 11  1  0  0  0
 11 12  2  0  0  0
 12 13  1  0  0  0
 13 14  2  0  0  0
 13 20  1  0  0  0
 20 21  1  0  0  0
 20 22  1  0  0  0
 20 23  1  0  0  0
 11 15  1  0  0  0
 15 16  1  0  0  0
 15 17  2  0  0  0
  6  1  1  0  0  0
 14  9  1  0  0  0
 31 26  1  0  0  0
 37 32  1  0  0  0
 43 38  1  0  0  0
 24 25  1  0  0  0
 16 18  1  0  0  0
 16 19  1  0  0  0
M  END
> <minimizedAffinity>
-8.92867

> <CNNscore>
0.2079291046

> <CNNaffinity>
7.0187501907

> <CNN_VS>
1.4594024420

> <CNNaffinity_variance>
0.0052563907

$$$$
[H]c1nc(N([H])c2c([H])c(N3C([H])([H])C([H])([H])OC([H])([H])C3([H])[H])c([H])c(N3C([H])([H])C([H])([H])OC([H])([H])C3([H])[H])c2[H])nc(N(c2c([H])c(C(=O)N([H])[H])c([H])c(C(F)(F)F)c2[H])C([H])([H])[H])c1[H]


 43 47  0  0  0  0  0  0  0  0999 V2000
  152.7220  136.2127  186.9541 C   0  0  0  0  0  0  0  0  0  0  0  0
  152.7469  135.1264  186.1109 C   0  0  0  0  0  0  0  0  0  0  0  0
  153.5434  135.2024  184.9920 C   0  0  0  0  0  0  0  0  0  0  0  0
  154.2619  136.3139  184.7511 N   0  0  0  0  0  0  0  0  0  0  0  0
  154.2447  137.3791  185.5603 C   0  0  0  0  0  0  0  0  0  0  0  0
  153.4527  137.2952  186.6722 N   0  0  0  0  0  0  0  0  0  0  0  0
  150.4936  135.8473  187.9210 C   0  0  0  0  0  0  0  0  0  0  0  0
  151.8802  136.1975  188.1266 N   0  0  0  0  0  0  0  0  0  0  0  0
  152.4688  136.4936  189.3851 C   0  0  0  0  0  0  0  0  0  0  0  0
  151.9321  136.0015  190.5603 C   0  0  0  0  0  0  0  0  0  0  0  0
  152.4261  136.2428  191.8343 C   0  0  0  0  0  0  0  0  0  0  0  0
  153.5515  137.0449  191.9227 C   0  0  0  0  0  0  0  0  0  0  0  0
  154.1288  137.5672  190.7589 C   0  0  0  0  0  0  0  0  0  0  0  0
  153.5970  137.2985  189.5060 C   0  0  0  0  0  0  0  0  0  0  0  0
  151.7835  135.6697  192.9970 C   0  0  0  0  0  0  0  0  0  0  0  0
  151.4027  134.3142  192.9999 N   0  0  0  0  0  0  0  0  0  0  0  0
  151.5748  136.3909  193.9915 O   0  0  0  0  0  0  0  0  0  0  0  0
  151.5824  133.7684  193.8650 H   0  0  0  0  0  0  0  0  0  0  0  0
  150.9562  133.8561  192.1827 H   0  0  0  0  0  0  0  0  0  0  0  0
  155.3358  138.4148  190.8797 C   0  0  0  0  0  0  0  0  0  0  0  0
  156.3173  137.7590  191.6348 F   0  0  0  0  0  0  0  0  0  0  0  0
  155.0475  139.5909  191.5487 F   0  0  0  0  0  0  0  0  0  0  0  0
  155.8703  138.6803  189.6163 F   0  0  0  0  0  0  0  0  0  0  0  0
  154.9409  138.5889  185.3027 N   0  0  0  0  0  0  0  0  0  0  0  0
  155.6658  138.9185  185.9893 H   0  0  0  0  0  0  0  0  0  0  0  0
  154.7014  139.3723  184.1637 C   0  0  0  0  0  0  0  0  0  0  0  0
  155.5280  140.3800  183.7263 C   0  0  0  0  0  0  0  0  0  0  0  0
  155.1990  141.0819  182.5841 C   0  0  0  0  0  0  0  0  0  0  0  0
  154.0395  140.7558  181.8966 C   0  0  0  0  0  0  0  0  0  0  0  0
  153.1835  139.7551  182.2959 C   0  0  0  0  0  0  0  0  0  0  0  0
  153.5222  139.0640  183.4365 C   0  0  0  0  0  0  0  0  0  0  0  0
  151.9967  139.3915  181.5879 N   0  0  0  0  0  0  0  0  0  0  0  0
  151.0916  138.4025  182.1026 C   0  0  0  0  0  0  0  0  0  0  0  0
  149.6521  138.8865  181.9547 C   0  0  0  0  0  0  0  0  0  0  0  0
  149.4355  139.6799  180.8522 O   0  0  0  0  0  0  0  0  0  0  0  0
  150.3541  139.4960  179.8171 C   0  0  0  0  0  0  0  0  0  0  0  0
  151.6868  140.0235  180.3221 C   0  0  0  0  0  0  0  0  0  0  0  0
  156.0282  142.1461  182.1452 N   0  0  0  0  0  0  0  0  0  0  0  0
  157.1854  142.0144  181.2977 C   0  0  0  0  0  0  0  0  0  0  0  0
  158.3596  142.5495  182.0861 C   0  0  0  0  0  0  0  0  0  0  0  0
  158.1113  143.8138  182.5987 O   0  0  0  0  0  0  0  0  0  0  0  0
  156.9124  144.3488  182.1582 C   0  0  0  0  0  0  0  0  0  0  0  0
  155.7055  143.5112  182.5580 C   0  0  0  0  0  0  0  0  0  0  0  0
  7  8  1  0  0  0
  8  1  1  0  0  0
  1  2  2  0  0  0
  2  3  1  0  0  0
  3  4  2  0  0  0
  4  5  1  0  0  0
  5 24  1  0  0  0
 24 26  1  0  0  0
 26 27  2  0  0  0
 27 28  1  0  0  0
 28 29  2  0  0  0
 29 30  1  0  0  0
 30 31  2  0  0  0
 30 32  1  0  0  0
 32 33  1  0  0  0
 33 34  1  0  0  0
 34 35  1  0  0  0
 35 36  1  0  0  0
 36 37  1  0  0  0
 28 38  1  0  0  0
 38 39  1  0  0  0
 39 40  1  0  0  0
 40 41  1  0  0  0
 41 42  1  0  0  0
 42 43  1  0  0  0
  5  6  2  0  0  0
  8  9  1  0  0  0
  9 10  2  0  0  0
 10 11  1  0  0  0
 11 12  2  0  0  0
 12 13  1  0  0  0
 13 14  2  0  0  0
 13 20  1  0  0  0
 20 21  1  0  0  0
 20 22  1  0  0  0
 20 23  1  0  0  0
 11 15  1  0  0  0
 15 16  1  0  0  0
 15 17  2  0  0  0
  6  1  1  0  0  0
 14  9  1  0  0  0
 31 26  1  0  0  0
 37 32  1  0  0  0
 43 38  1  0  0  0
 24 25  1  0  0  0
 16 18  1  0  0  0
 16 19  1  0  0  0
M  END
> <minimizedAffinity>
-8.84080

> <CNNscore>
0.1859572977

> <CNNaffinity>
6.3919305801

> <CNN_VS>
1.1886261702

> <CNNaffinity_variance>
0.0595865324

$$$$
[H]Oc1c([H])c([H])c(/C([H])=C2\S/C(=C(/[H])c3c([H])c([H])c([H])c([H])c3[H])C2=O)c([H])c1O[H]


 23 25  0  0  0  0  0  0  0  0999 V2000
  157.1509  140.6603  183.1284 C   0  0  0  0  0  0  0  0  0  0  0  0
  155.8438  140.4815  183.1506 C   0  0  0  0  0  0  0  0  0  0  0  0
  154.4947  141.1716  182.1788 S   0  0  0  0  0  0  0  0  0  0  0  0
  153.8151  139.7114  182.9234 C   0  0  0  0  0  0  0  0  0  0  0  0
  152.7757  138.9606  182.6743 C   0  0  0  0  0  0  0  0  0  0  0  0
  154.8803  139.6720  183.9338 C   0  0  0  0  0  0  0  0  0  0  0  0
  154.9822  139.1476  185.0741 O   0  0  0  0  0  0  0  0  0  0  0  0
  159.7211  144.1139  179.5040 O   0  0  0  0  0  0  0  0  0  0  0  0
  159.0848  143.2505  180.3923 C   0  0  0  0  0  0  0  0  0  0  0  0
  158.7305  141.9929  180.0051 C   0  0  0  0  0  0  0  0  0  0  0  0
  158.0963  141.1568  180.9195 C   0  0  0  0  0  0  0  0  0  0  0  0
  157.8158  141.5567  182.2008 C   0  0  0  0  0  0  0  0  0  0  0  0
  158.1857  142.8337  182.5628 C   0  0  0  0  0  0  0  0  0  0  0  0
  158.8243  143.6925  181.6638 C   0  0  0  0  0  0  0  0  0  0  0  0
  159.1879  144.9682  182.0430 O   0  0  0  0  0  0  0  0  0  0  0  0
  159.9488  143.8387  178.5508 H   0  0  0  0  0  0  0  0  0  0  0  0
  158.9844  145.2651  182.9809 H   0  0  0  0  0  0  0  0  0  0  0  0
  151.8450  139.2098  181.5897 C   0  0  0  0  0  0  0  0  0  0  0  0
  150.5019  138.9791  181.8448 C   0  0  0  0  0  0  0  0  0  0  0  0
  149.5355  139.1960  180.8789 C   0  0  0  0  0  0  0  0  0  0  0  0
  149.9457  139.6522  179.6355 C   0  0  0  0  0  0  0  0  0  0  0  0
  151.2791  139.8805  179.3793 C   0  0  0  0  0  0  0  0  0  0  0  0
  152.2424  139.6581  180.3671 C   0  0  0  0  0  0  0  0  0  0  0  0
  8  9  1  0  0  0
  9 10  2  0  0  0
 10 11  1  0  0  0
 11 12  2  0  0  0
 12  1  1  0  0  0
  1  2  2  0  0  0
  2  3  1  0  0  0
  3  4  1  0  0  0
  4  5  2  0  0  0
  5 18  1  0  0  0
 18 19  2  0  0  0
 19 20  1  0  0  0
 20 21  2  0  0  0
 21 22  1  0  0  0
 22 23  2  0  0  0
  4  6  1  0  0  0
  6  7  2  0  0  0
 12 13  1  0  0  0
 13 14  2  0  0  0
 14 15  1  0  0  0
 14  9  1  0  0  0
  6  2  1  0  0  0
 23 18  1  0  0  0
  8 16  1  0  0  0
 15 17  1  0  0  0
M  END
> <minimizedAffinity>
-8.51993

> <CNNscore>
0.4345749617

> <CNNaffinity>
5.6376347542

> <CNN_VS>
2.4499750137

> <CNNaffinity_variance>
0.4138668180

$$$$
[H]Oc1c([H])c([H])c(/C([H])=C2\S/C(=C(/[H])c3c([H])c([H])c([H])c([H])c3[H])C2=O)c([H])c1O[H]


 23 25  0  0  0  0  0  0  0  0999 V2000
  157.0674  140.6221  183.3281 C   0  0  0  0  0  0  0  0  0  0  0  0
  155.7667  140.4008  183.3261 C   0  0  0  0  0  0  0  0  0  0  0  0
  154.4045  141.1022  182.3811 S   0  0  0  0  0  0  0  0  0  0  0  0
  153.7661  139.5807  183.0335 C   0  0  0  0  0  0  0  0  0  0  0  0
  152.7539  138.8128  182.7307 C   0  0  0  0  0  0  0  0  0  0  0  0
  154.8231  139.5172  184.0513 C   0  0  0  0  0  0  0  0  0  0  0  0
  154.9319  138.9315  185.1607 O   0  0  0  0  0  0  0  0  0  0  0  0
  159.5753  144.3980  179.9930 O   0  0  0  0  0  0  0  0  0  0  0  0
  158.9563  143.4711  180.8279 C   0  0  0  0  0  0  0  0  0  0  0  0
  158.8241  143.7173  182.1617 C   0  0  0  0  0  0  0  0  0  0  0  0
  158.1997  142.7684  182.9663 C   0  0  0  0  0  0  0  0  0  0  0  0
  157.7110  141.5912  182.4605 C   0  0  0  0  0  0  0  0  0  0  0  0
  157.8599  141.3705  181.1086 C   0  0  0  0  0  0  0  0  0  0  0  0
  158.4823  142.3075  180.2790 C   0  0  0  0  0  0  0  0  0  0  0  0
  158.6229  142.0705  178.9272 O   0  0  0  0  0  0  0  0  0  0  0  0
  159.9382  145.2829  180.3414 H   0  0  0  0  0  0  0  0  0  0  0  0
  158.2661  141.2094  178.5525 H   0  0  0  0  0  0  0  0  0  0  0  0
  151.8253  139.0941  181.6523 C   0  0  0  0  0  0  0  0  0  0  0  0
  150.4753  138.9303  181.9227 C   0  0  0  0  0  0  0  0  0  0  0  0
  149.5106  139.1825  180.9637 C   0  0  0  0  0  0  0  0  0  0  0  0
  149.9295  139.6052  179.7115 C   0  0  0  0  0  0  0  0  0  0  0  0
  151.2696  139.7672  179.4400 C   0  0  0  0  0  0  0  0  0  0  0  0
  152.2311  139.5099  180.4210 C   0  0  0  0  0  0  0  0  0  0  0  0
  8  9  1  0  0  0
  9 10  2  0  0  0
 10 11  1  0  0  0
 11 12  2  0  0  0
 12  1  1  0  0  0
  1  2  2  0  0  0
  2  3  1  0  0  0
  3  4  1  0  0  0
  4  5  2  0  0  0
  5 18  1  0  0  0
 18 19  2  0  0  0
 19 20  1  0  0  0
 20 21  2  0  0  0
 21 22  1  0  0  0
 22 23  2  0  0  0
  4  6  1  0  0  0
  6  7  2  0  0  0
 12 13  1  0  0  0
 13 14  2  0  0  0
 14 15  1  0  0  0
 14  9  1  0  0  0
  6  2  1  0  0  0
 23 18  1  0  0  0
  8 16  1  0  0  0
 15 17  1  0  0  0
M  END
> <minimizedAffinity>
-8.54458

> <CNNscore>
0.4140220582

> <CNNaffinity>
5.5586023331

> <CNN_VS>
2.3013839722

> <CNNaffinity_variance>
0.1360127330

$$$$
[H]Oc1c([H])c([H])c(/C([H])=C2\S/C(=C(/[H])c3c([H])c([H])c([H])c([H])c3[H])C2=O)c([H])c1O[H]


 23 25  0  0  0  0  0  0  0  0999 V2000
  153.4446  137.7872  183.4337 C   0  0  0  0  0  0  0  0  0  0  0  0
  153.9935  138.1783  184.5680 C   0  0  0  0  0  0  0  0  0  0  0  0
  153.4097  138.1976  186.2708 S   0  0  0  0  0  0  0  0  0  0  0  0
  155.1739  138.3395  186.3959 C   0  0  0  0  0  0  0  0  0  0  0  0
  156.0381  138.1452  187.3558 C   0  0  0  0  0  0  0  0  0  0  0  0
  155.2881  138.7612  184.9936 C   0  0  0  0  0  0  0  0  0  0  0  0
  156.1595  139.3942  184.3412 O   0  0  0  0  0  0  0  0  0  0  0  0
  148.2428  135.6698  183.0752 O   0  0  0  0  0  0  0  0  0  0  0  0
  149.5260  136.2043  183.1591 C   0  0  0  0  0  0  0  0  0  0  0  0
  149.7816  137.4690  182.7208 C   0  0  0  0  0  0  0  0  0  0  0  0
  151.0761  137.9710  182.8203 C   0  0  0  0  0  0  0  0  0  0  0  0
  152.1057  137.2340  183.3468 C   0  0  0  0  0  0  0  0  0  0  0  0
  151.8165  135.9587  183.7812 C   0  0  0  0  0  0  0  0  0  0  0  0
  150.5250  135.4316  183.6930 C   0  0  0  0  0  0  0  0  0  0  0  0
  150.2528  134.1526  184.1328 O   0  0  0  0  0  0  0  0  0  0  0  0
  147.4596  136.1987  182.6973 H   0  0  0  0  0  0  0  0  0  0  0  0
  151.0043  133.6093  184.5194 H   0  0  0  0  0  0  0  0  0  0  0  0
  155.6724  137.7166  188.6926 C   0  0  0  0  0  0  0  0  0  0  0  0
  156.1585  136.4894  189.1172 C   0  0  0  0  0  0  0  0  0  0  0  0
  155.8739  135.9969  190.3783 C   0  0  0  0  0  0  0  0  0  0  0  0
  155.0810  136.7659  191.2161 C   0  0  0  0  0  0  0  0  0  0  0  0
  154.5959  137.9841  190.7962 C   0  0  0  0  0  0  0  0  0  0  0  0
  154.8945  138.4679  189.5196 C   0  0  0  0  0  0  0  0  0  0  0  0
  8  9  1  0  0  0
  9 10  2  0  0  0
 10 11  1  0  0  0
 11 12  2  0  0  0
 12  1  1  0  0  0
  1  2  2  0  0  0
  2  3  1  0  0  0
  3  4  1  0  0  0
  4  5  2  0  0  0
  5 18  1  0  0  0
 18 19  2  0  0  0
 19 20  1  0  0  0
 20 21  2  0  0  0
 21 22  1  0  0  0
 22 23  2  0  0  0
  4  6  1  0  0  0
  6  7  2  0  0  0
 12 13  1  0  0  0
 13 14  2  0  0  0
 14 15  1  0  0  0
 14  9  1  0  0  0
  6  2  1  0  0  0
 23 18  1  0  0  0
  8 16  1  0  0  0
 15 17  1  0  0  0
M  END
> <minimizedAffinity>
-5.01044

> <CNNscore>
0.3110572398

> <CNNaffinity>
4.6175742149

> <CNN_VS>
1.4363298416

> <CNNaffinity_variance>
0.2483795583

$$$$
[H]Oc1c([H])c([H])c(/C([H])=C2\S/C(=C(/[H])c3c([H])c([H])c([H])c([H])c3[H])C2=O)c([H])c1O[H]


 23 25  0  0  0  0  0  0  0  0999 V2000
  154.3409  138.0381  187.0860 C   0  0  0  0  0  0  0  0  0  0  0  0
  153.2478  137.4368  186.6564 C   0  0  0  0  0  0  0  0  0  0  0  0
  152.1830  136.1721  187.3685 S   0  0  0  0  0  0  0  0  0  0  0  0
  151.2021  136.9253  186.0962 C   0  0  0  0  0  0  0  0  0  0  0  0
  149.9230  136.9642  185.8342 C   0  0  0  0  0  0  0  0  0  0  0  0
  152.3914  137.4931  185.4479 C   0  0  0  0  0  0  0  0  0  0  0  0
  152.6396  137.8985  184.2818 O   0  0  0  0  0  0  0  0  0  0  0  0
  156.7005  136.9473  192.0772 O   0  0  0  0  0  0  0  0  0  0  0  0
  156.1111  137.2271  190.8469 C   0  0  0  0  0  0  0  0  0  0  0  0
  155.2731  138.2923  190.7044 C   0  0  0  0  0  0  0  0  0  0  0  0
  154.7019  138.5421  189.4599 C   0  0  0  0  0  0  0  0  0  0  0  0
  154.9552  137.7507  188.3690 C   0  0  0  0  0  0  0  0  0  0  0  0
  155.8060  136.6812  188.5442 C   0  0  0  0  0  0  0  0  0  0  0  0
  156.3930  136.4092  189.7832 C   0  0  0  0  0  0  0  0  0  0  0  0
  157.2428  135.3338  189.9411 O   0  0  0  0  0  0  0  0  0  0  0  0
  156.5364  137.5239  192.8998 H   0  0  0  0  0  0  0  0  0  0  0  0
  157.4313  134.7516  189.1443 H   0  0  0  0  0  0  0  0  0  0  0  0
  148.9157  136.3071  186.6453 C   0  0  0  0  0  0  0  0  0  0  0  0
  148.1140  137.1170  187.4350 C   0  0  0  0  0  0  0  0  0  0  0  0
  147.1187  136.5869  188.2365 C   0  0  0  0  0  0  0  0  0  0  0  0
  146.9408  135.2120  188.2335 C   0  0  0  0  0  0  0  0  0  0  0  0
  147.7367  134.4055  187.4513 C   0  0  0  0  0  0  0  0  0  0  0  0
  148.7365  134.9574  186.6459 C   0  0  0  0  0  0  0  0  0  0  0  0
  8  9  1  0  0  0
  9 10  2  0  0  0
 10 11  1  0  0  0
 11 12  2  0  0  0
 12  1  1  0  0  0
  1  2  2  0  0  0
  2  3  1  0  0  0
  3  4  1  0  0  0
  4  5  2  0  0  0
  5 18  1  0  0  0
 18 19  2  0  0  0
 19 20  1  0  0  0
 20 21  2  0  0  0
 21 22  1  0  0  0
 22 23  2  0  0  0
  4  6  1  0  0  0
  6  7  2  0  0  0
 12 13  1  0  0  0
 13 14  2  0  0  0
 14 15  1  0  0  0
 14  9  1  0  0  0
  6  2  1  0  0  0
 23 18  1  0  0  0
  8 16  1  0  0  0
 15 17  1  0  0  0
M  END
> <minimizedAffinity>
-5.25260

> <CNNscore>
0.2958629131

> <CNNaffinity>
4.6938424110

> <CNN_VS>
1.3887338638

> <CNNaffinity_variance>
0.2069918215

$$$$
[H]Oc1c([H])c([H])c(/C([H])=C2\S/C(=C(/[H])c3c([H])c([H])c([H])c([H])c3[H])C2=O)c([H])c1O[H]


 23 25  0  0  0  0  0  0  0  0999 V2000
  155.8804  139.1494  183.9214 C   0  0  0  0  0  0  0  0  0  0  0  0
  156.8167  140.0735  183.8203 C   0  0  0  0  0  0  0  0  0  0  0  0
  157.5971  141.1654  185.0201 S   0  0  0  0  0  0  0  0  0  0  0  0
  158.7016  141.1560  183.6315 C   0  0  0  0  0  0  0  0  0  0  0  0
  159.9570  141.4751  183.4633 C   0  0  0  0  0  0  0  0  0  0  0  0
  157.6526  140.6465  182.7387 C   0  0  0  0  0  0  0  0  0  0  0  0
  157.4835  140.6662  181.4910 O   0  0  0  0  0  0  0  0  0  0  0  0
  153.3370  137.8215  188.7626 O   0  0  0  0  0  0  0  0  0  0  0  0
  153.9556  138.1536  187.5600 C   0  0  0  0  0  0  0  0  0  0  0  0
  153.2271  138.6362  186.5143 C   0  0  0  0  0  0  0  0  0  0  0  0
  153.8786  138.9581  185.3271 C   0  0  0  0  0  0  0  0  0  0  0  0
  155.2329  138.8063  185.1740 C   0  0  0  0  0  0  0  0  0  0  0  0
  155.9424  138.3159  186.2486 C   0  0  0  0  0  0  0  0  0  0  0  0
  155.3121  137.9859  187.4517 C   0  0  0  0  0  0  0  0  0  0  0  0
  156.0379  137.4961  188.5178 O   0  0  0  0  0  0  0  0  0  0  0  0
  152.3354  137.9332  188.9052 H   0  0  0  0  0  0  0  0  0  0  0  0
  157.0304  137.3836  188.4100 H   0  0  0  0  0  0  0  0  0  0  0  0
  160.8109  141.9682  184.5273 C   0  0  0  0  0  0  0  0  0  0  0  0
  160.1847  142.4768  185.6549 C   0  0  0  0  0  0  0  0  0  0  0  0
  160.9112  142.9622  186.7276 C   0  0  0  0  0  0  0  0  0  0  0  0
  162.2949  142.9302  186.6473 C   0  0  0  0  0  0  0  0  0  0  0  0
  162.9191  142.4269  185.5280 C   0  0  0  0  0  0  0  0  0  0  0  0
  162.1702  141.9387  184.4538 C   0  0  0  0  0  0  0  0  0  0  0  0
  8  9  1  0  0  0
  9 10  2  0  0  0
 10 11  1  0  0  0
 11 12  2  0  0  0
 12  1  1  0  0  0
  1  2  2  0  0  0
  2  3  1  0  0  0
  3  4  1  0  0  0
  4  5  2  0  0  0
  5 18  1  0  0  0
 18 19  2  0  0  0
 19 20  1  0  0  0
 20 21  2  0  0  0
 21 22  1  0  0  0
 22 23  2  0  0  0
  4  6  1  0  0  0
  6  7  2  0  0  0
 12 13  1  0  0  0
 13 14  2  0  0  0
 14 15  1  0  0  0
 14  9  1  0  0  0
  6  2  1  0  0  0
 23 18  1  0  0  0
  8 16  1  0  0  0
 15 17  1  0  0  0
M  END
> <minimizedAffinity>
-8.73637

> <CNNscore>
0.2942460477

> <CNNaffinity>
5.3147683144

> <CNN_VS>
1.5638495684

> <CNNaffinity_variance>
0.1249732971

$$$$
[H]Oc1c([H])c([H])c(/C([H])=C2\S/C(=C(/[H])c3c([H])c([H])c([H])c([H])c3[H])C2=O)c([H])c1O[H]


 23 25  0  0  0  0  0  0  0  0999 V2000
  155.6552  138.0066  186.6627 C   0  0  0  0  0  0  0  0  0  0  0  0
  155.1853  138.0069  187.8956 C   0  0  0  0  0  0  0  0  0  0  0  0
  153.5257  138.1608  188.5758 S   0  0  0  0  0  0  0  0  0  0  0  0
  154.4890  137.4563  189.8887 C   0  0  0  0  0  0  0  0  0  0  0  0
  154.1994  136.8075  190.9848 C   0  0  0  0  0  0  0  0  0  0  0  0
  155.7461  137.8859  189.2623 C   0  0  0  0  0  0  0  0  0  0  0  0
  156.9109  138.0907  189.6947 O   0  0  0  0  0  0  0  0  0  0  0  0
  152.4013  138.5867  182.1080 O   0  0  0  0  0  0  0  0  0  0  0  0
  153.2094  138.4551  183.2344 C   0  0  0  0  0  0  0  0  0  0  0  0
  153.9028  139.5228  183.7204 C   0  0  0  0  0  0  0  0  0  0  0  0
  154.7006  139.3548  184.8486 C   0  0  0  0  0  0  0  0  0  0  0  0
  154.8122  138.1478  185.4899 C   0  0  0  0  0  0  0  0  0  0  0  0
  154.0996  137.0869  184.9749 C   0  0  0  0  0  0  0  0  0  0  0  0
  153.2909  137.2295  183.8439 C   0  0  0  0  0  0  0  0  0  0  0  0
  152.5840  136.1566  183.3415 O   0  0  0  0  0  0  0  0  0  0  0  0
  152.2940  139.4731  181.6192 H   0  0  0  0  0  0  0  0  0  0  0  0
  152.6627  135.2705  183.8084 H   0  0  0  0  0  0  0  0  0  0  0  0
  152.8452  136.4939  191.3997 C   0  0  0  0  0  0  0  0  0  0  0  0
  152.2138  135.4431  190.7519 C   0  0  0  0  0  0  0  0  0  0  0  0
  150.9260  135.0602  191.0820 C   0  0  0  0  0  0  0  0  0  0  0  0
  150.2732  135.7606  192.0847 C   0  0  0  0  0  0  0  0  0  0  0  0
  150.8976  136.8054  192.7284 C   0  0  0  0  0  0  0  0  0  0  0  0
  152.1997  137.1780  192.3840 C   0  0  0  0  0  0  0  0  0  0  0  0
  8  9  1  0  0  0
  9 10  2  0  0  0
 10 11  1  0  0  0
 11 12  2  0  0  0
 12  1  1  0  0  0
  1  2  2  0  0  0
  2  3  1  0  0  0
  3  4  1  0  0  0
  4  5  2  0  0  0
  5 18  1  0  0  0
 18 19  2  0  0  0
 19 20  1  0  0  0
 20 21  2  0  0  0
 21 22  1  0  0  0
 22 23  2  0  0  0
  4  6  1  0  0  0
  6  7  2  0  0  0
 12 13  1  0  0  0
 13 14  2  0  0  0
 14 15  1  0  0  0
 14  9  1  0  0  0
  6  2  1  0  0  0
 23 18  1  0  0  0
  8 16  1  0  0  0
 15 17  1  0  0  0
M  END
> <minimizedAffinity>
-6.15870

> <CNNscore>
0.2904710770

> <CNNaffinity>
4.6870813370

> <CNN_VS>
1.3614615202

> <CNNaffinity_variance>
0.0947197229

$$$$
[H]Oc1c([H])c([H])c(/C([H])=C2\S/C(=C(/[H])c3c([H])c([H])c([H])c([H])c3[H])C2=O)c([H])c1O[H]


 23 25  0  0  0  0  0  0  0  0999 V2000
  154.0249  135.6017  187.0622 C   0  0  0  0  0  0  0  0  0  0  0  0
  152.9577  135.3341  187.7905 C   0  0  0  0  0  0  0  0  0  0  0  0
  152.7352  134.5780  189.4088 S   0  0  0  0  0  0  0  0  0  0  0  0
  151.2156  135.4403  189.0997 C   0  0  0  0  0  0  0  0  0  0  0  0
  150.2329  135.8544  189.8539 C   0  0  0  0  0  0  0  0  0  0  0  0
  151.4919  135.5102  187.6589 C   0  0  0  0  0  0  0  0  0  0  0  0
  150.7702  135.6648  186.6386 O   0  0  0  0  0  0  0  0  0  0  0  0
  159.2664  134.4390  188.7490 O   0  0  0  0  0  0  0  0  0  0  0  0
  157.9693  134.7366  188.3389 C   0  0  0  0  0  0  0  0  0  0  0  0
  157.3113  135.8170  188.8456 C   0  0  0  0  0  0  0  0  0  0  0  0
  156.0156  136.0845  188.4127 C   0  0  0  0  0  0  0  0  0  0  0  0
  155.3775  135.2957  187.4902 C   0  0  0  0  0  0  0  0  0  0  0  0
  156.0682  134.2105  186.9964 C   0  0  0  0  0  0  0  0  0  0  0  0
  157.3701  133.9206  187.4142 C   0  0  0  0  0  0  0  0  0  0  0  0
  158.0473  132.8298  186.9093 O   0  0  0  0  0  0  0  0  0  0  0  0
  159.7657  135.0132  189.4251 H   0  0  0  0  0  0  0  0  0  0  0  0
  157.5835  132.2494  186.2330 H   0  0  0  0  0  0  0  0  0  0  0  0
  150.1862  135.6625  191.2911 C   0  0  0  0  0  0  0  0  0  0  0  0
  150.9234  136.5416  192.0697 C   0  0  0  0  0  0  0  0  0  0  0  0
  150.9364  136.4476  193.4499 C   0  0  0  0  0  0  0  0  0  0  0  0
  150.1890  135.4418  194.0431 C   0  0  0  0  0  0  0  0  0  0  0  0
  149.4572  134.5668  193.2719 C   0  0  0  0  0  0  0  0  0  0  0  0
  149.4536  134.6769  191.8788 C   0  0  0  0  0  0  0  0  0  0  0  0
  8  9  1  0  0  0
  9 10  2  0  0  0
 10 11  1  0  0  0
 11 12  2  0  0  0
 12  1  1  0  0  0
  1  2  2  0  0  0
  2  3  1  0  0  0
  3  4  1  0  0  0
  4  5  2  0  0  0
  5 18  1  0  0  0
 18 19  2  0  0  0
 19 20  1  0  0  0
 20 21  2  0  0  0
 21 22  1  0  0  0
 22 23  2  0  0  0
  4  6  1  0  0  0
  6  7  2  0  0  0
 12 13  1  0  0  0
 13 14  2  0  0  0
 14 15  1  0  0  0
 14  9  1  0  0  0
  6  2  1  0  0  0
 23 18  1  0  0  0
  8 16  1  0  0  0
 15 17  1  0  0  0
M  END
> <minimizedAffinity>
-4.55357

> <CNNscore>
0.2902868390

> <CNNaffinity>
4.5831470490

> <CNN_VS>
1.3304272890

> <CNNaffinity_variance>
0.7409943342

$$$$
[H]Oc1c([H])c([H])c(/C([H])=C2\S/C(=C(/[H])c3c([H])c([H])c([H])c([H])c3[H])C2=O)c([H])c1O[H]


 23 25  0  0  0  0  0  0  0  0999 V2000
  153.7995  138.3748  188.2885 C   0  0  0  0  0  0  0  0  0  0  0  0
  154.3068  137.4459  189.0765 C   0  0  0  0  0  0  0  0  0  0  0  0
  154.8568  135.7568  188.7852 S   0  0  0  0  0  0  0  0  0  0  0  0
  155.6087  136.2182  190.3246 C   0  0  0  0  0  0  0  0  0  0  0  0
  156.6114  135.7575  191.0235 C   0  0  0  0  0  0  0  0  0  0  0  0
  154.6628  137.3264  190.5103 C   0  0  0  0  0  0  0  0  0  0  0  0
  154.2658  137.9757  191.5135 O   0  0  0  0  0  0  0  0  0  0  0  0
  152.9286  137.6060  182.7821 O   0  0  0  0  0  0  0  0  0  0  0  0
  153.1548  137.8015  184.1422 C   0  0  0  0  0  0  0  0  0  0  0  0
  154.3036  138.3915  184.5774 C   0  0  0  0  0  0  0  0  0  0  0  0
  154.4961  138.5714  185.9442 C   0  0  0  0  0  0  0  0  0  0  0  0
  153.5659  138.1744  186.8703 C   0  0  0  0  0  0  0  0  0  0  0  0
  152.4149  137.5807  186.3999 C   0  0  0  0  0  0  0  0  0  0  0  0
  152.1971  137.3893  185.0326 C   0  0  0  0  0  0  0  0  0  0  0  0
  151.0387  136.7930  184.5788 O   0  0  0  0  0  0  0  0  0  0  0  0
  153.5984  137.8995  182.0741 H   0  0  0  0  0  0  0  0  0  0  0  0
  150.3544  136.5010  185.2539 H   0  0  0  0  0  0  0  0  0  0  0  0
  157.4170  134.6202  190.6209 C   0  0  0  0  0  0  0  0  0  0  0  0
  158.1182  134.7331  189.4301 C   0  0  0  0  0  0  0  0  0  0  0  0
  158.9218  133.7075  188.9650 C   0  0  0  0  0  0  0  0  0  0  0  0
  159.0091  132.5507  189.7240 C   0  0  0  0  0  0  0  0  0  0  0  0
  158.3126  132.4356  190.9062 C   0  0  0  0  0  0  0  0  0  0  0  0
  157.5067  133.4821  191.3627 C   0  0  0  0  0  0  0  0  0  0  0  0
  8  9  1  0  0  0
  9 10  2  0  0  0
 10 11  1  0  0  0
 11 12  2  0  0  0
 12  1  1  0  0  0
  1  2  2  0  0  0
  2  3  1  0  0  0
  3  4  1  0  0  0
  4  5  2  0  0  0
  5 18  1  0  0  0
 18 19  2  0  0  0
 19 20  1  0  0  0
 20 21  2  0  0  0
 21 22  1  0  0  0
 22 23  2  0  0  0
  4  6  1  0  0  0
  6  7  2  0  0  0
 12 13  1  0  0  0
 13 14  2  0  0  0
 14 15  1  0  0  0
 14  9  1  0  0  0
  6  2  1  0  0  0
 23 18  1  0  0  0
  8 16  1  0  0  0
 15 17  1  0  0  0
M  END
> <minimizedAffinity>
-5.66025

> <CNNscore>
0.2876313031

> <CNNaffinity>
4.6257543564

> <CNN_VS>
1.3305118084

> <CNNaffinity_variance>
0.0983007699

$$$$
[H]Oc1c([H])c([H])c(/C([H])=C2\S/C(=C(/[H])c3c([H])c([H])c([H])c([H])c3[H])C2=O)c([H])c1O[H]


 23 25  0  0  0  0  0  0  0  0999 V2000
  155.7310  138.0669  186.5423 C   0  0  0  0  0  0  0  0  0  0  0  0
  155.2755  138.0873  187.7804 C   0  0  0  0  0  0  0  0  0  0  0  0
  153.6295  138.2968  188.4785 S   0  0  0  0  0  0  0  0  0  0  0  0
  154.5848  137.5674  189.7836 C   0  0  0  0  0  0  0  0  0  0  0  0
  154.2873  136.9328  190.8858 C   0  0  0  0  0  0  0  0  0  0  0  0
  155.8477  137.9542  189.1412 C   0  0  0  0  0  0  0  0  0  0  0  0
  157.0232  138.1236  189.5595 O   0  0  0  0  0  0  0  0  0  0  0  0
  152.4129  138.6680  182.0369 O   0  0  0  0  0  0  0  0  0  0  0  0
  153.2303  138.5076  183.1528 C   0  0  0  0  0  0  0  0  0  0  0  0
  153.2719  137.3191  183.8183 C   0  0  0  0  0  0  0  0  0  0  0  0
  154.1007  137.1945  184.9297 C   0  0  0  0  0  0  0  0  0  0  0  0
  154.8797  138.2300  185.3784 C   0  0  0  0  0  0  0  0  0  0  0  0
  154.8160  139.4192  184.6852 C   0  0  0  0  0  0  0  0  0  0  0  0
  153.9926  139.5699  183.5660 C   0  0  0  0  0  0  0  0  0  0  0  0
  153.9409  140.7678  182.8835 O   0  0  0  0  0  0  0  0  0  0  0  0
  151.8322  137.9130  181.6781 H   0  0  0  0  0  0  0  0  0  0  0  0
  154.5103  141.5289  183.2088 H   0  0  0  0  0  0  0  0  0  0  0  0
  152.9286  136.6641  191.3174 C   0  0  0  0  0  0  0  0  0  0  0  0
  152.5381  137.1915  192.5388 C   0  0  0  0  0  0  0  0  0  0  0  0
  151.2605  136.9993  193.0333 C   0  0  0  0  0  0  0  0  0  0  0  0
  150.3704  136.2571  192.2724 C   0  0  0  0  0  0  0  0  0  0  0  0
  150.7563  135.7311  191.0598 C   0  0  0  0  0  0  0  0  0  0  0  0
  152.0504  135.9363  190.5739 C   0  0  0  0  0  0  0  0  0  0  0  0
  8  9  1  0  0  0
  9 10  2  0  0  0
 10 11  1  0  0  0
 11 12  2  0  0  0
 12  1  1  0  0  0
  1  2  2  0  0  0
  2  3  1  0  0  0
  3  4  1  0  0  0
  4  5  2  0  0  0
  5 18  1  0  0  0
 18 19  2  0  0  0
 19 20  1  0  0  0
 20 21  2  0  0  0
 21 22  1  0  0  0
 22 23  2  0  0  0
  4  6  1  0  0  0
  6  7  2  0  0  0
 12 13  1  0  0  0
 13 14  2  0  0  0
 14 15  1  0  0  0
 14  9  1  0  0  0
  6  2  1  0  0  0
 23 18  1  0  0  0
  8 16  1  0  0  0
 15 17  1  0  0  0
M  END
> <minimizedAffinity>
-6.63929

> <CNNscore>
0.2698671818

> <CNNaffinity>
4.5922727585

> <CNN_VS>
1.2393037081

> <CNNaffinity_variance>
0.0361985676

$$$$
[H]O[C@]1([H])C([H])([H])C([H])([H])[C@@]([H])(N([H])C(=O)c2c([H])c(OC([H])([H])[H])c(OC([H])([H])[H])c(OC([H])([H])[H])c2[H])C([H])([H])C1([H])[H]


 24 25  0  0  0  0  0  0  0  0999 V2000
  158.7044  141.4107  184.5033 C   0  0  0  0  0  0  0  0  0  0  0  0
  157.8034  140.5116  185.0255 C   0  0  0  0  0  0  0  0  0  0  0  0
  156.6885  140.0977  184.2868 C   0  0  0  0  0  0  0  0  0  0  0  0
  156.5438  140.6274  183.0344 C   0  0  0  0  0  0  0  0  0  0  0  0
  157.4622  141.5440  182.5018 C   0  0  0  0  0  0  0  0  0  0  0  0
  158.5569  141.9473  183.2331 C   0  0  0  0  0  0  0  0  0  0  0  0
  155.7587  139.1419  184.8796 C   0  0  0  0  0  0  0  0  0  0  0  0
  154.7329  138.7690  184.2286 O   0  0  0  0  0  0  0  0  0  0  0  0
  155.9847  138.6250  186.1700 N   0  0  0  0  0  0  0  0  0  0  0  0
  156.8136  138.9195  186.7078 H   0  0  0  0  0  0  0  0  0  0  0  0
  155.0727  137.6928  186.7418 C   0  0  0  0  0  0  0  0  0  0  0  0
  155.7861  136.6067  187.5517 C   0  0  0  0  0  0  0  0  0  0  0  0
  154.7526  135.5159  187.7688 C   0  0  0  0  0  0  0  0  0  0  0  0
  153.5373  136.0063  188.4797 C   0  0  0  0  0  0  0  0  0  0  0  0
  152.5167  135.0509  188.2596 O   0  0  0  0  0  0  0  0  0  0  0  0
  153.0216  137.3175  188.0036 C   0  0  0  0  0  0  0  0  0  0  0  0
  154.0702  138.3244  187.6745 C   0  0  0  0  0  0  0  0  0  0  0  0
  152.0974  135.3143  187.4024 H   0  0  0  0  0  0  0  0  0  0  0  0
  159.6192  142.2296  186.5667 C   0  0  0  0  0  0  0  0  0  0  0  0
  159.8226  141.8356  185.2245 O   0  0  0  0  0  0  0  0  0  0  0  0
  157.2985  142.0708  181.2284 O   0  0  0  0  0  0  0  0  0  0  0  0
  157.9757  141.4477  180.1583 C   0  0  0  0  0  0  0  0  0  0  0  0
  159.4903  142.8537  182.7415 O   0  0  0  0  0  0  0  0  0  0  0  0
  159.2383  144.2540  182.8133 C   0  0  0  0  0  0  0  0  0  0  0  0
 19 20  1  0  0  0
 20  1  1  0  0  0
  1  2  2  0  0  0
  2  3  1  0  0  0
  3  4  2  0  0  0
  4  5  1  0  0  0
  5 21  1  0  0  0
 21 22  1  0  0  0
  5  6  2  0  0  0
  6 23  1  0  0  0
 23 24  1  0  0  0
  3  7  1  0  0  0
  7  8  2  0  0  0
  7  9  1  0  0  0
  9 11  1  0  0  0
 11 12  1  0  0  0
 12 13  1  0  0  0
 13 14  1  0  0  0
 14 15  1  0  0  0
 14 16  1  0  0  0
 16 17  1  0  0  0
  6  1  1  0  0  0
 17 11  1  0  0  0
  9 10  1  0  0  0
 15 18  1  0  0  0
M  END
> <minimizedAffinity>
-6.07600

> <CNNscore>
0.5446701050

> <CNNaffinity>
5.2365317345

> <CNN_VS>
2.8521823883

> <CNNaffinity_variance>
0.3037281632

$$$$
[H]O[C@]1([H])C([H])([H])C([H])([H])[C@@]([H])(N([H])C(=O)c2c([H])c(OC([H])([H])[H])c(OC([H])([H])[H])c(OC([H])([H])[H])c2[H])C([H])([H])C1([H])[H]


 24 25  0  0  0  0  0  0  0  0999 V2000
  158.8442  141.7312  184.5336 C   0  0  0  0  0  0  0  0  0  0  0  0
  158.0155  140.8101  185.1316 C   0  0  0  0  0  0  0  0  0  0  0  0
  156.9037  140.2950  184.4545 C   0  0  0  0  0  0  0  0  0  0  0  0
  156.6872  140.7497  183.1831 C   0  0  0  0  0  0  0  0  0  0  0  0
  157.5319  141.6887  182.5732 C   0  0  0  0  0  0  0  0  0  0  0  0
  158.6240  142.1918  183.2442 C   0  0  0  0  0  0  0  0  0  0  0  0
  156.0519  139.3193  185.1269 C   0  0  0  0  0  0  0  0  0  0  0  0
  156.5214  138.6157  186.0754 O   0  0  0  0  0  0  0  0  0  0  0  0
  154.7099  139.1467  184.7362 N   0  0  0  0  0  0  0  0  0  0  0  0
  154.3175  139.7120  183.9685 H   0  0  0  0  0  0  0  0  0  0  0  0
  153.8850  138.1925  185.3970 C   0  0  0  0  0  0  0  0  0  0  0  0
  153.1857  138.7826  186.6247 C   0  0  0  0  0  0  0  0  0  0  0  0
  152.6673  137.5910  187.4099 C   0  0  0  0  0  0  0  0  0  0  0  0
  151.7350  136.7396  186.6171 C   0  0  0  0  0  0  0  0  0  0  0  0
  151.6535  135.4908  187.2779 O   0  0  0  0  0  0  0  0  0  0  0  0
  152.1698  136.4700  185.2206 C   0  0  0  0  0  0  0  0  0  0  0  0
  152.7947  137.6284  184.5211 C   0  0  0  0  0  0  0  0  0  0  0  0
  152.4095  134.9604  186.9214 H   0  0  0  0  0  0  0  0  0  0  0  0
  159.8758  142.3980  186.5965 C   0  0  0  0  0  0  0  0  0  0  0  0
  159.9580  142.2567  185.1925 O   0  0  0  0  0  0  0  0  0  0  0  0
  157.2960  142.1384  181.2816 O   0  0  0  0  0  0  0  0  0  0  0  0
  157.9376  141.4704  180.2168 C   0  0  0  0  0  0  0  0  0  0  0  0
  159.4855  143.1237  182.6751 O   0  0  0  0  0  0  0  0  0  0  0  0
  159.1721  144.5127  182.7201 C   0  0  0  0  0  0  0  0  0  0  0  0
 19 20  1  0  0  0
 20  1  1  0  0  0
  1  2  2  0  0  0
  2  3  1  0  0  0
  3  4  2  0  0  0
  4  5  1  0  0  0
  5 21  1  0  0  0
 21 22  1  0  0  0
  5  6  2  0  0  0
  6 23  1  0  0  0
 23 24  1  0  0  0
  3  7  1  0  0  0
  7  8  2  0  0  0
  7  9  1  0  0  0
  9 11  1  0  0  0
 11 12  1  0  0  0
 12 13  1  0  0  0
 13 14  1  0  0  0
 14 15  1  0  0  0
 14 16  1  0  0  0
 16 17  1  0  0  0
  6  1  1  0  0  0
 17 11  1  0  0  0
  9 10  1  0  0  0
 15 18  1  0  0  0
M  END
> <minimizedAffinity>
-5.87771

> <CNNscore>
0.4826892018

> <CNNaffinity>
5.2099428177

> <CNN_VS>
2.5147831440

> <CNNaffinity_variance>
0.1590033472

$$$$
[H]O[C@]1([H])C([H])([H])C([H])([H])[C@@]([H])(N([H])C(=O)c2c([H])c(OC([H])([H])[H])c(OC([H])([H])[H])c(OC([H])([H])[H])c2[H])C([H])([H])C1([H])[H]


 24 25  0  0  0  0  0  0  0  0999 V2000
  152.1280  139.6472  181.8118 C   0  0  0  0  0  0  0  0  0  0  0  0
  153.0571  140.6401  182.0213 C   0  0  0  0  0  0  0  0  0  0  0  0
  154.0809  140.4815  182.9628 C   0  0  0  0  0  0  0  0  0  0  0  0
  154.1090  139.3023  183.6547 C   0  0  0  0  0  0  0  0  0  0  0  0
  153.1621  138.2899  183.4414 C   0  0  0  0  0  0  0  0  0  0  0  0
  152.1573  138.4516  182.5139 C   0  0  0  0  0  0  0  0  0  0  0  0
  155.0452  141.5604  183.1520 C   0  0  0  0  0  0  0  0  0  0  0  0
  154.7033  142.6132  183.7762 O   0  0  0  0  0  0  0  0  0  0  0  0
  156.3561  141.4491  182.6493 N   0  0  0  0  0  0  0  0  0  0  0  0
  156.6454  140.5997  182.1416 H   0  0  0  0  0  0  0  0  0  0  0  0
  157.2913  142.5062  182.8378 C   0  0  0  0  0  0  0  0  0  0  0  0
  158.7337  141.9976  182.9100 C   0  0  0  0  0  0  0  0  0  0  0  0
  159.5442  143.1510  183.4739 C   0  0  0  0  0  0  0  0  0  0  0  0
  159.4495  144.3839  182.6409 C   0  0  0  0  0  0  0  0  0  0  0  0
  159.8803  145.4624  183.4495 O   0  0  0  0  0  0  0  0  0  0  0  0
  158.0793  144.7120  182.1644 C   0  0  0  0  0  0  0  0  0  0  0  0
  157.2628  143.5396  181.7398 C   0  0  0  0  0  0  0  0  0  0  0  0
  159.0722  145.7558  183.9402 H   0  0  0  0  0  0  0  0  0  0  0  0
  151.4694  139.9435  179.5220 C   0  0  0  0  0  0  0  0  0  0  0  0
  151.0994  139.7866  180.8772 O   0  0  0  0  0  0  0  0  0  0  0  0
  153.2069  137.0996  184.1535 O   0  0  0  0  0  0  0  0  0  0  0  0
  154.1879  136.9620  185.1588 C   0  0  0  0  0  0  0  0  0  0  0  0
  151.1994  137.4724  182.2726 O   0  0  0  0  0  0  0  0  0  0  0  0
  150.0157  137.4156  183.0632 C   0  0  0  0  0  0  0  0  0  0  0  0
 19 20  1  0  0  0
 20  1  1  0  0  0
  1  2  2  0  0  0
  2  3  1  0  0  0
  3  4  2  0  0  0
  4  5  1  0  0  0
  5 21  1  0  0  0
 21 22  1  0  0  0
  5  6  2  0  0  0
  6 23  1  0  0  0
 23 24  1  0  0  0
  3  7  1  0  0  0
  7  8  2  0  0  0
  7  9  1  0  0  0
  9 11  1  0  0  0
 11 12  1  0  0  0
 12 13  1  0  0  0
 13 14  1  0  0  0
 14 15  1  0  0  0
 14 16  1  0  0  0
 16 17  1  0  0  0
  6  1  1  0  0  0
 17 11  1  0  0  0
  9 10  1  0  0  0
 15 18  1  0  0  0
M  END
> <minimizedAffinity>
-6.35631

> <CNNscore>
0.4256902039

> <CNNaffinity>
5.3672208786

> <CNN_VS>
2.2847733498

> <CNNaffinity_variance>
0.1888658106

$$$$
[H]O[C@]1([H])C([H])([H])C([H])([H])[C@@]([H])(N([H])C(=O)c2c([H])c(OC([H])([H])[H])c(OC([H])([H])[H])c(OC([H])([H])[H])c2[H])C([H])([H])C1([H])[H]


 24 25  0  0  0  0  0  0  0  0999 V2000
  158.5791  141.2055  183.2198 C   0  0  0  0  0  0  0  0  0  0  0  0
  157.9269  140.2789  184.0001 C   0  0  0  0  0  0  0  0  0  0  0  0
  156.5523  140.3827  184.2444 C   0  0  0  0  0  0  0  0  0  0  0  0
  155.8998  141.4403  183.6736 C   0  0  0  0  0  0  0  0  0  0  0  0
  156.5644  142.3850  182.8780 C   0  0  0  0  0  0  0  0  0  0  0  0
  157.9166  142.2777  182.6413 C   0  0  0  0  0  0  0  0  0  0  0  0
  155.9011  139.3770  185.0776 C   0  0  0  0  0  0  0  0  0  0  0  0
  156.5750  138.7435  185.9491 O   0  0  0  0  0  0  0  0  0  0  0  0
  154.5288  139.0984  184.9275 N   0  0  0  0  0  0  0  0  0  0  0  0
  153.9713  139.6062  184.2243 H   0  0  0  0  0  0  0  0  0  0  0  0
  153.9004  138.1156  185.7441 C   0  0  0  0  0  0  0  0  0  0  0  0
  153.1960  138.7330  186.9554 C   0  0  0  0  0  0  0  0  0  0  0  0
  152.9137  137.5751  187.8960 C   0  0  0  0  0  0  0  0  0  0  0  0
  152.0748  136.5141  187.2687 C   0  0  0  0  0  0  0  0  0  0  0  0
  152.2246  135.3491  188.0580 O   0  0  0  0  0  0  0  0  0  0  0  0
  152.4593  136.1546  185.8777 C   0  0  0  0  0  0  0  0  0  0  0  0
  152.8570  137.3049  185.0173 C   0  0  0  0  0  0  0  0  0  0  0  0
  153.0291  134.8967  187.7003 H   0  0  0  0  0  0  0  0  0  0  0  0
  160.8292  141.5373  183.9890 C   0  0  0  0  0  0  0  0  0  0  0  0
  159.9496  141.1192  182.9646 O   0  0  0  0  0  0  0  0  0  0  0  0
  155.8850  143.4520  182.3070 O   0  0  0  0  0  0  0  0  0  0  0  0
  154.4843  143.5127  182.4695 C   0  0  0  0  0  0  0  0  0  0  0  0
  158.6123  143.1930  181.8586 O   0  0  0  0  0  0  0  0  0  0  0  0
  158.6973  143.0134  180.4479 C   0  0  0  0  0  0  0  0  0  0  0  0
 19 20  1  0  0  0
 20  1  1  0  0  0
  1  2  2  0  0  0
  2  3  1  0  0  0
  3  4  2  0  0  0
  4  5  1  0  0  0
  5 21  1  0  0  0
 21 22  1  0  0  0
  5  6  2  0  0  0
  6 23  1  0  0  0
 23 24  1  0  0  0
  3  7  1  0  0  0
  7  8  2  0  0  0
  7  9  1  0  0  0
  9 11  1  0  0  0
 11 12  1  0  0  0
 12 13  1  0  0  0
 13 14  1  0  0  0
 14 15  1  0  0  0
 14 16  1  0  0  0
 16 17  1  0  0  0
  6  1  1  0  0  0
 17 11  1  0  0  0
  9 10  1  0  0  0
 15 18  1  0  0  0
M  END
> <minimizedAffinity>
-5.77647

> <CNNscore>
0.4172400236

> <CNNaffinity>
5.1433463097

> <CNN_VS>
2.1460099220

> <CNNaffinity_variance>
0.1885371208

$$$$
[H]O[C@]1([H])C([H])([H])C([H])([H])[C@@]([H])(N([H])C(=O)c2c([H])c(OC([H])([H])[H])c(OC([H])([H])[H])c(OC([H])([H])[H])c2[H])C([H])([H])C1([H])[H]


 24 25  0  0  0  0  0  0  0  0999 V2000
  153.1268  138.4801  183.1377 C   0  0  0  0  0  0  0  0  0  0  0  0
  154.0600  139.4625  183.3764 C   0  0  0  0  0  0  0  0  0  0  0  0
  153.9876  140.6987  182.7233 C   0  0  0  0  0  0  0  0  0  0  0  0
  152.9534  140.8764  181.8464 C   0  0  0  0  0  0  0  0  0  0  0  0
  152.0020  139.8751  181.6028 C   0  0  0  0  0  0  0  0  0  0  0  0
  152.0783  138.6612  182.2482 C   0  0  0  0  0  0  0  0  0  0  0  0
  154.9984  141.7122  183.0072 C   0  0  0  0  0  0  0  0  0  0  0  0
  154.7283  142.6733  183.7937 O   0  0  0  0  0  0  0  0  0  0  0  0
  156.2754  141.6385  182.4179 N   0  0  0  0  0  0  0  0  0  0  0  0
  156.5066  140.8634  181.7786 H   0  0  0  0  0  0  0  0  0  0  0  0
  157.2564  142.6315  182.6997 C   0  0  0  0  0  0  0  0  0  0  0  0
  158.6621  142.0376  182.8263 C   0  0  0  0  0  0  0  0  0  0  0  0
  159.5035  143.1192  183.4800 C   0  0  0  0  0  0  0  0  0  0  0  0
  159.5236  144.3870  182.6958 C   0  0  0  0  0  0  0  0  0  0  0  0
  159.9689  145.4064  183.5706 O   0  0  0  0  0  0  0  0  0  0  0  0
  158.2022  144.8125  182.1622 C   0  0  0  0  0  0  0  0  0  0  0  0
  157.3461  143.7068  181.6462 C   0  0  0  0  0  0  0  0  0  0  0  0
  159.1527  145.7268  184.0301 H   0  0  0  0  0  0  0  0  0  0  0  0
  153.0432  137.2302  185.1859 C   0  0  0  0  0  0  0  0  0  0  0  0
  153.1819  137.2407  183.7793 O   0  0  0  0  0  0  0  0  0  0  0  0
  150.9592  140.0741  180.7090 O   0  0  0  0  0  0  0  0  0  0  0  0
  151.2103  139.8646  179.3361 C   0  0  0  0  0  0  0  0  0  0  0  0
  151.1554  137.6429  182.0347 O   0  0  0  0  0  0  0  0  0  0  0  0
  149.9370  137.6117  182.7724 C   0  0  0  0  0  0  0  0  0  0  0  0
 19 20  1  0  0  0
 20  1  1  0  0  0
  1  2  2  0  0  0
  2  3  1  0  0  0
  3  4  2  0  0  0
  4  5  1  0  0  0
  5 21  1  0  0  0
 21 22  1  0  0  0
  5  6  2  0  0  0
  6 23  1  0  0  0
 23 24  1  0  0  0
  3  7  1  0  0  0
  7  8  2  0  0  0
  7  9  1  0  0  0
  9 11  1  0  0  0
 11 12  1  0  0  0
 12 13  1  0  0  0
 13 14  1  0  0  0
 14 15  1  0  0  0
 14 16  1  0  0  0
 16 17  1  0  0  0
  6  1  1  0  0  0
 17 11  1  0  0  0
  9 10  1  0  0  0
 15 18  1  0  0  0
M  END
> <minimizedAffinity>
-6.38281

> <CNNscore>
0.4096961617

> <CNNaffinity>
5.3188366890

> <CNN_VS>
2.1791069508

> <CNNaffinity_variance>
0.1661833674

$$$$
[H]O[C@]1([H])C([H])([H])C([H])([H])[C@@]([H])(N([H])C(=O)c2c([H])c(OC([H])([H])[H])c(OC([H])([H])[H])c(OC([H])([H])[H])c2[H])C([H])([H])C1([H])[H]


 24 25  0  0  0  0  0  0  0  0999 V2000
  155.4712  135.6178  188.0852 C   0  0  0  0  0  0  0  0  0  0  0  0
  154.8971  136.1504  186.9540 C   0  0  0  0  0  0  0  0  0  0  0  0
  154.0692  137.2769  187.0285 C   0  0  0  0  0  0  0  0  0  0  0  0
  153.8637  137.8136  188.2694 C   0  0  0  0  0  0  0  0  0  0  0  0
  154.4488  137.2710  189.4227 C   0  0  0  0  0  0  0  0  0  0  0  0
  155.2622  136.1628  189.3432 C   0  0  0  0  0  0  0  0  0  0  0  0
  153.4817  137.8088  185.8032 C   0  0  0  0  0  0  0  0  0  0  0  0
  153.7581  138.9917  185.4297 O   0  0  0  0  0  0  0  0  0  0  0  0
  152.6080  137.0243  185.0256 N   0  0  0  0  0  0  0  0  0  0  0  0
  152.3765  136.0631  185.3179 H   0  0  0  0  0  0  0  0  0  0  0  0
  152.0384  137.5505  183.8312 C   0  0  0  0  0  0  0  0  0  0  0  0
  152.7490  137.0374  182.5757 C   0  0  0  0  0  0  0  0  0  0  0  0
  152.2937  137.9482  181.4495 C   0  0  0  0  0  0  0  0  0  0  0  0
  150.8138  137.9465  181.2689 C   0  0  0  0  0  0  0  0  0  0  0  0
  150.4892  139.0965  180.5107 O   0  0  0  0  0  0  0  0  0  0  0  0
  150.0304  138.0170  182.5312 C   0  0  0  0  0  0  0  0  0  0  0  0
  150.5793  137.2112  183.6586 C   0  0  0  0  0  0  0  0  0  0  0  0
  150.3873  139.8232  181.1751 H   0  0  0  0  0  0  0  0  0  0  0  0
  157.6226  134.6844  187.5704 C   0  0  0  0  0  0  0  0  0  0  0  0
  156.2999  134.4948  188.0314 O   0  0  0  0  0  0  0  0  0  0  0  0
  154.2284  137.8297  190.6738 O   0  0  0  0  0  0  0  0  0  0  0  0
  155.1006  138.8499  191.1100 C   0  0  0  0  0  0  0  0  0  0  0  0
  155.8611  135.5945  190.4625 O   0  0  0  0  0  0  0  0  0  0  0  0
  155.1640  134.6197  191.2328 C   0  0  0  0  0  0  0  0  0  0  0  0
 19 20  1  0  0  0
 20  1  1  0  0  0
  1  2  2  0  0  0
  2  3  1  0  0  0
  3  4  2  0  0  0
  4  5  1  0  0  0
  5 21  1  0  0  0
 21 22  1  0  0  0
  5  6  2  0  0  0
  6 23  1  0  0  0
 23 24  1  0  0  0
  3  7  1  0  0  0
  7  8  2  0  0  0
  7  9  1  0  0  0
  9 11  1  0  0  0
 11 12  1  0  0  0
 12 13  1  0  0  0
 13 14  1  0  0  0
 14 15  1  0  0  0
 14 16  1  0  0  0
 16 17  1  0  0  0
  6  1  1  0  0  0
 17 11  1  0  0  0
  9 10  1  0  0  0
 15 18  1  0  0  0
M  END
> <minimizedAffinity>
-3.99665

> <CNNscore>
0.3977605104

> <CNNaffinity>
4.3405084610

> <CNN_VS>
1.7264828682

> <CNNaffinity_variance>
0.0538765788

$$$$
[H]O[C@]1([H])C([H])([H])C([H])([H])[C@@]([H])(N([H])C(=O)c2c([H])c(OC([H])([H])[H])c(OC([H])([H])[H])c(OC([H])([H])[H])c2[H])C([H])([H])C1([H])[H]


 24 25  0  0  0  0  0  0  0  0999 V2000
  154.9594  141.1735  182.8363 C   0  0  0  0  0  0  0  0  0  0  0  0
  153.8449  140.5820  182.2877 C   0  0  0  0  0  0  0  0  0  0  0  0
  153.3437  139.3783  182.7973 C   0  0  0  0  0  0  0  0  0  0  0  0
  154.0116  138.8280  183.8561 C   0  0  0  0  0  0  0  0  0  0  0  0
  155.1478  139.4306  184.4156 C   0  0  0  0  0  0  0  0  0  0  0  0
  155.6361  140.6147  183.9100 C   0  0  0  0  0  0  0  0  0  0  0  0
  152.1586  138.7865  182.1850 C   0  0  0  0  0  0  0  0  0  0  0  0
  151.9089  137.5517  182.3522 O   0  0  0  0  0  0  0  0  0  0  0  0
  151.2840  139.5700  181.4075 N   0  0  0  0  0  0  0  0  0  0  0  0
  151.4756  140.5730  181.2650 H   0  0  0  0  0  0  0  0  0  0  0  0
  150.1297  138.9852  180.8130 C   0  0  0  0  0  0  0  0  0  0  0  0
  148.8315  139.4930  181.4467 C   0  0  0  0  0  0  0  0  0  0  0  0
  147.7507  138.5310  180.9866 C   0  0  0  0  0  0  0  0  0  0  0  0
  147.6338  138.4623  179.5019 C   0  0  0  0  0  0  0  0  0  0  0  0
  146.9213  137.2779  179.1983 O   0  0  0  0  0  0  0  0  0  0  0  0
  148.9299  138.3935  178.7758 C   0  0  0  0  0  0  0  0  0  0  0  0
  150.0107  139.2548  179.3341 C   0  0  0  0  0  0  0  0  0  0  0  0
  147.6086  136.5667  179.1573 H   0  0  0  0  0  0  0  0  0  0  0  0
  154.6591  143.5238  182.4483 C   0  0  0  0  0  0  0  0  0  0  0  0
  155.4745  142.3740  182.3421 O   0  0  0  0  0  0  0  0  0  0  0  0
  155.8125  138.8569  185.4903 O   0  0  0  0  0  0  0  0  0  0  0  0
  155.0704  138.0467  186.3761 C   0  0  0  0  0  0  0  0  0  0  0  0
  156.7593  141.2441  184.4361 O   0  0  0  0  0  0  0  0  0  0  0  0
  158.0603  140.8996  183.9691 C   0  0  0  0  0  0  0  0  0  0  0  0
 19 20  1  0  0  0
 20  1  1  0  0  0
  1  2  2  0  0  0
  2  3  1  0  0  0
  3  4  2  0  0  0
  4  5  1  0  0  0
  5 21  1  0  0  0
 21 22  1  0  0  0
  5  6  2  0  0  0
  6 23  1  0  0  0
 23 24  1  0  0  0
  3  7  1  0  0  0
  7  8  2  0  0  0
  7  9  1  0  0  0
  9 11  1  0  0  0
 11 12  1  0  0  0
 12 13  1  0  0  0
 13 14  1  0  0  0
 14 15  1  0  0  0
 14 16  1  0  0  0
 16 17  1  0  0  0
  6  1  1  0  0  0
 17 11  1  0  0  0
  9 10  1  0  0  0
 15 18  1  0  0  0
M  END
> <minimizedAffinity>
-5.91784

> <CNNscore>
0.3723971248

> <CNNaffinity>
4.7856178284

> <CNN_VS>
1.7821502686

> <CNNaffinity_variance>
0.0858232677

$$$$
[H]O[C@]1([H])C([H])([H])C([H])([H])[C@@]([H])(N([H])C(=O)c2c([H])c(OC([H])([H])[H])c(OC([H])([H])[H])c(OC([H])([H])[H])c2[H])C([H])([H])C1([H])[H]


 24 25  0  0  0  0  0  0  0  0999 V2000
  157.7501  143.0781  182.1270 C   0  0  0  0  0  0  0  0  0  0  0  0
  156.4237  142.8172  181.8709 C   0  0  0  0  0  0  0  0  0  0  0  0
  155.7487  141.7910  182.5426 C   0  0  0  0  0  0  0  0  0  0  0  0
  156.4680  141.0704  183.4556 C   0  0  0  0  0  0  0  0  0  0  0  0
  157.8201  141.3361  183.7169 C   0  0  0  0  0  0  0  0  0  0  0  0
  158.4787  142.3468  183.0530 C   0  0  0  0  0  0  0  0  0  0  0  0
  154.3417  141.5495  182.2401 C   0  0  0  0  0  0  0  0  0  0  0  0
  153.4884  142.4751  182.4145 O   0  0  0  0  0  0  0  0  0  0  0  0
  153.9153  140.2980  181.7551 N   0  0  0  0  0  0  0  0  0  0  0  0
  154.5982  139.5395  181.6091 H   0  0  0  0  0  0  0  0  0  0  0  0
  152.5406  140.0699  181.4624 C   0  0  0  0  0  0  0  0  0  0  0  0
  152.2922  139.8728  179.9644 C   0  0  0  0  0  0  0  0  0  0  0  0
  150.7923  140.0172  179.7781 C   0  0  0  0  0  0  0  0  0  0  0  0
  150.0137  139.0357  180.5864 C   0  0  0  0  0  0  0  0  0  0  0  0
  148.6855  139.5193  180.6554 O   0  0  0  0  0  0  0  0  0  0  0  0
  150.4903  138.8599  181.9842 C   0  0  0  0  0  0  0  0  0  0  0  0
  151.9717  138.8531  182.1480 C   0  0  0  0  0  0  0  0  0  0  0  0
  148.6752  140.1354  181.4301 H   0  0  0  0  0  0  0  0  0  0  0  0
  159.0828  143.7666  180.2524 C   0  0  0  0  0  0  0  0  0  0  0  0
  158.4407  144.0973  181.4674 O   0  0  0  0  0  0  0  0  0  0  0  0
  158.5337  140.5937  184.6472 O   0  0  0  0  0  0  0  0  0  0  0  0
  159.1477  139.3985  184.2153 C   0  0  0  0  0  0  0  0  0  0  0  0
  159.8182  142.6421  183.2832 O   0  0  0  0  0  0  0  0  0  0  0  0
  160.1910  143.4901  184.3655 C   0  0  0  0  0  0  0  0  0  0  0  0
 19 20  1  0  0  0
 20  1  1  0  0  0
  1  2  2  0  0  0
  2  3  1  0  0  0
  3  4  2  0  0  0
  4  5  1  0  0  0
  5 21  1  0  0  0
 21 22  1  0  0  0
  5  6  2  0  0  0
  6 23  1  0  0  0
 23 24  1  0  0  0
  3  7  1  0  0  0
  7  8  2  0  0  0
  7  9  1  0  0  0
  9 11  1  0  0  0
 11 12  1  0  0  0
 12 13  1  0  0  0
 13 14  1  0  0  0
 14 15  1  0  0  0
 14 16  1  0  0  0
 16 17  1  0  0  0
  6  1  1  0  0  0
 17 11  1  0  0  0
  9 10  1  0  0  0
 15 18  1  0  0  0
M  END
> <minimizedAffinity>
-6.99327

> <CNNscore>
0.3668653071

> <CNNaffinity>
5.3094320297

> <CNN_VS>
1.9478464127

> <CNNaffinity_variance>
0.0862911791

$$$$
[H]O[C@]1([H])C([H])([H])C([H])([H])[C@@]([H])(N([H])C(=O)c2c([H])c(OC([H])([H])[H])c(OC([H])([H])[H])c(OC([H])([H])[H])c2[H])C([H])([H])C1([H])[H]


 24 25  0  0  0  0  0  0  0  0999 V2000
  155.7945  140.6436  182.8208 C   0  0  0  0  0  0  0  0  0  0  0  0
  155.2662  139.8358  183.8012 C   0  0  0  0  0  0  0  0  0  0  0  0
  156.0656  139.3506  184.8430 C   0  0  0  0  0  0  0  0  0  0  0  0
  157.3831  139.7172  184.8352 C   0  0  0  0  0  0  0  0  0  0  0  0
  157.9220  140.5407  183.8359 C   0  0  0  0  0  0  0  0  0  0  0  0
  157.1306  141.0149  182.8137 C   0  0  0  0  0  0  0  0  0  0  0  0
  155.4634  138.4972  185.8621 C   0  0  0  0  0  0  0  0  0  0  0  0
  154.4305  137.8109  185.5840 O   0  0  0  0  0  0  0  0  0  0  0  0
  156.0149  138.4240  187.1559 N   0  0  0  0  0  0  0  0  0  0  0  0
  156.8530  138.9756  187.3933 H   0  0  0  0  0  0  0  0  0  0  0  0
  155.4215  137.5890  188.1450 C   0  0  0  0  0  0  0  0  0  0  0  0
  156.4628  136.9717  189.0826 C   0  0  0  0  0  0  0  0  0  0  0  0
  155.7415  135.8516  189.8108 C   0  0  0  0  0  0  0  0  0  0  0  0
  154.5508  136.3301  190.5697 C   0  0  0  0  0  0  0  0  0  0  0  0
  153.7538  135.1939  190.8466 O   0  0  0  0  0  0  0  0  0  0  0  0
  153.6930  137.3007  189.8388 C   0  0  0  0  0  0  0  0  0  0  0  0
  154.4331  138.3087  189.0277 C   0  0  0  0  0  0  0  0  0  0  0  0
  153.1769  135.0831  190.0499 H   0  0  0  0  0  0  0  0  0  0  0  0
  153.6302  141.3009  182.0154 C   0  0  0  0  0  0  0  0  0  0  0  0
  155.0133  141.1376  181.7736 O   0  0  0  0  0  0  0  0  0  0  0  0
  159.2618  140.9022  183.8448 O   0  0  0  0  0  0  0  0  0  0  0  0
  159.6641  141.9448  184.7068 C   0  0  0  0  0  0  0  0  0  0  0  0
  157.6262  141.8334  181.8042 O   0  0  0  0  0  0  0  0  0  0  0  0
  158.2510  141.2622  180.6584 C   0  0  0  0  0  0  0  0  0  0  0  0
 19 20  1  0  0  0
 20  1  1  0  0  0
  1  2  2  0  0  0
  2  3  1  0  0  0
  3  4  2  0  0  0
  4  5  1  0  0  0
  5 21  1  0  0  0
 21 22  1  0  0  0
  5  6  2  0  0  0
  6 23  1  0  0  0
 23 24  1  0  0  0
  3  7  1  0  0  0
  7  8  2  0  0  0
  7  9  1  0  0  0
  9 11  1  0  0  0
 11 12  1  0  0  0
 12 13  1  0  0  0
 13 14  1  0  0  0
 14 15  1  0  0  0
 14 16  1  0  0  0
 16 17  1  0  0  0
  6  1  1  0  0  0
 17 11  1  0  0  0
  9 10  1  0  0  0
 15 18  1  0  0  0
M  END
> <minimizedAffinity>
-6.24950

> <CNNscore>
0.3542767167

> <CNNaffinity>
4.7735910416

> <CNN_VS>
1.6911721230

> <CNNaffinity_variance>
0.1499197036

$$$$
[H]c1nc(N([H])c2c([H])c([H])c(N3C([H])([H])C([H])([H])C([H])(N4C([H])([H])C([H])([H])N(C([H])([H])[H])C([H])([H])C4([H])[H])C([H])([H])C3([H])[H])c([H])c2OC([H])([H])[H])nc(N([H])c2c([H])c([H])c([H])c([H])c2S(=O)(=O)C([H])(C([H])([H])[H])C([H])([H])[H])c1Cl


 44 48  0  0  0  0  0  0  0  0999 V2000
  155.8550  137.9981  187.3764 N   0  0  0  0  0  0  0  0  0  0  0  0
  156.1423  138.8984  187.9036 H   0  0  0  0  0  0  0  0  0  0  0  0
  155.1110  138.1836  186.1812 C   0  0  0  0  0  0  0  0  0  0  0  0
  153.8894  137.7061  185.9302 N   0  0  0  0  0  0  0  0  0  0  0  0
  153.2422  137.9208  184.7779 C   0  0  0  0  0  0  0  0  0  0  0  0
  153.8375  138.6646  183.7862 C   0  0  0  0  0  0  0  0  0  0  0  0
  153.0015  138.9574  182.2644 Cl  0  0  0  0  0  0  0  0  0  0  0  0
  155.1279  139.1804  184.0263 C   0  0  0  0  0  0  0  0  0  0  0  0
  155.6895  138.9114  185.2066 N   0  0  0  0  0  0  0  0  0  0  0  0
  155.7120  139.9374  182.9991 N   0  0  0  0  0  0  0  0  0  0  0  0
  156.2467  139.3586  182.2711 H   0  0  0  0  0  0  0  0  0  0  0  0
  155.7233  141.3182  182.7503 C   0  0  0  0  0  0  0  0  0  0  0  0
  154.5479  142.0375  182.7978 C   0  0  0  0  0  0  0  0  0  0  0  0
  154.5422  143.4162  182.5500 C   0  0  0  0  0  0  0  0  0  0  0  0
  155.7176  144.0414  182.2598 C   0  0  0  0  0  0  0  0  0  0  0  0
  156.8895  143.3206  182.2132 C   0  0  0  0  0  0  0  0  0  0  0  0
  156.9240  141.9716  182.4515 C   0  0  0  0  0  0  0  0  0  0  0  0
  158.3924  141.0883  182.3907 S   0  0  0  0  0  0  0  0  0  0  0  0
  159.3999  141.8251  181.5444 O   0  0  0  0  0  0  0  0  0  0  0  0
  158.2643  139.6940  181.8439 O   0  0  0  0  0  0  0  0  0  0  0  0
  159.1492  140.9093  183.9949 C   0  0  0  0  0  0  0  0  0  0  0  0
  160.5723  141.3636  183.9655 C   0  0  0  0  0  0  0  0  0  0  0  0
  158.3229  141.4632  185.1074 C   0  0  0  0  0  0  0  0  0  0  0  0
  156.6344  136.8394  189.3314 C   0  0  0  0  0  0  0  0  0  0  0  0
  157.0574  135.7022  189.9949 C   0  0  0  0  0  0  0  0  0  0  0  0
  157.1449  134.4822  189.3623 C   0  0  0  0  0  0  0  0  0  0  0  0
  156.7883  134.4580  188.0359 C   0  0  0  0  0  0  0  0  0  0  0  0
  156.3567  135.5886  187.3352 C   0  0  0  0  0  0  0  0  0  0  0  0
  156.2717  136.8017  187.9709 C   0  0  0  0  0  0  0  0  0  0  0  0
  157.5772  133.3132  190.0638 N   0  0  0  0  0  0  0  0  0  0  0  0
  158.0148  132.1921  189.3050 C   0  0  0  0  0  0  0  0  0  0  0  0
  158.7783  131.1419  190.0619 C   0  0  0  0  0  0  0  0  0  0  0  0
  158.2116  130.8129  191.4019 C   0  0  0  0  0  0  0  0  0  0  0  0
  157.2213  131.8481  191.8965 C   0  0  0  0  0  0  0  0  0  0  0  0
  157.5747  133.2429  191.5054 C   0  0  0  0  0  0  0  0  0  0  0  0
  159.1186  130.5120  192.4365 N   0  0  0  0  0  0  0  0  0  0  0  0
  159.9446  129.3831  192.3251 C   0  0  0  0  0  0  0  0  0  0  0  0
  160.5418  129.0467  193.6944 C   0  0  0  0  0  0  0  0  0  0  0  0
  160.9954  130.2859  194.2953 N   0  0  0  0  0  0  0  0  0  0  0  0
  162.1545  130.8472  193.6783 C   0  0  0  0  0  0  0  0  0  0  0  0
  159.9358  131.2021  194.5695 C   0  0  0  0  0  0  0  0  0  0  0  0
  158.7003  130.7858  193.7739 C   0  0  0  0  0  0  0  0  0  0  0  0
  155.6188  138.1726  191.0602 C   0  0  0  0  0  0  0  0  0  0  0  0
  156.5698  138.0355  190.0292 O   0  0  0  0  0  0  0  0  0  0  0  0
 43 44  1  0  0  0
 44 24  1  0  0  0
 24 25  2  0  0  0
 25 26  1  0  0  0
 26 27  2  0  0  0
 27 28  1  0  0  0
 28 29  2  0  0  0
 29  1  1  0  0  0
  1  3  1  0  0  0
  3  4  2  0  0  0
  4  5  1  0  0  0
  5  6  2  0  0  0
  6  7  1  0  0  0
  6  8  1  0  0  0
  8 10  1  0  0  0
 10 12  1  0  0  0
 12 13  2  0  0  0
 13 14  1  0  0  0
 14 15  2  0  0  0
 15 16  1  0  0  0
 16 17  2  0  0  0
 17 18  1  0  0  0
 18 19  2  0  0  0
 18 20  2  0  0  0
 18 21  1  0  0  0
 21 22  1  0  0  0
 21 23  1  0  0  0
  8  9  2  0  0  0
 26 30  1  0  0  0
 30 31  1  0  0  0
 31 32  1  0  0  0
 32 33  1  0  0  0
 33 34  1  0  0  0
 34 35  1  0  0  0
 33 36  1  0  0  0
 36 37  1  0  0  0
 37 38  1  0  0  0
 38 39  1  0  0  0
 39 40  1  0  0  0
 39 41  1  0  0  0
 41 42  1  0  0  0
 29 24  1  0  0  0
  9  3  1  0  0  0
 35 30  1  0  0  0
 42 36  1  0  0  0
 17 12  1  0  0  0
  1  2  1  0  0  0
 10 11  1  0  0  0
M  END
> <minimizedAffinity>
-8.56351

> <CNNscore>
0.3181725740

> <CNNaffinity>
6.8466157913

> <CNN_VS>
2.1784052849

> <CNNaffinity_variance>
0.0883886218

$$$$
[H]c1nc(N([H])c2c([H])c([H])c(N3C([H])([H])C([H])([H])C([H])(N4C([H])([H])C([H])([H])N(C([H])([H])[H])C([H])([H])C4([H])[H])C([H])([H])C3([H])[H])c([H])c2OC([H])([H])[H])nc(N([H])c2c([H])c([H])c([H])c([H])c2S(=O)(=O)C([H])(C([H])([H])[H])C([H])([H])[H])c1Cl


 44 48  0  0  0  0  0  0  0  0999 V2000
  153.5585  140.1526  182.6881 N   0  0  0  0  0  0  0  0  0  0  0  0
  154.0542  141.1071  182.5680 H   0  0  0  0  0  0  0  0  0  0  0  0
  152.5828  139.8269  181.7092 C   0  0  0  0  0  0  0  0  0  0  0  0
  152.6601  140.0858  180.4014 N   0  0  0  0  0  0  0  0  0  0  0  0
  151.7008  139.7485  179.5306 C   0  0  0  0  0  0  0  0  0  0  0  0
  150.5697  139.1035  179.9733 C   0  0  0  0  0  0  0  0  0  0  0  0
  149.2976  138.6520  178.8425 Cl  0  0  0  0  0  0  0  0  0  0  0  0
  150.4634  138.8184  181.3503 C   0  0  0  0  0  0  0  0  0  0  0  0
  151.4730  139.1951  182.1375 N   0  0  0  0  0  0  0  0  0  0  0  0
  149.3004  138.1581  181.7756 N   0  0  0  0  0  0  0  0  0  0  0  0
  148.8891  137.4771  181.0559 H   0  0  0  0  0  0  0  0  0  0  0  0
  148.5760  138.2266  182.9752 C   0  0  0  0  0  0  0  0  0  0  0  0
  147.9331  139.3945  183.3272 C   0  0  0  0  0  0  0  0  0  0  0  0
  147.2073  139.4796  184.5223 C   0  0  0  0  0  0  0  0  0  0  0  0
  147.1437  138.3893  185.3372 C   0  0  0  0  0  0  0  0  0  0  0  0
  147.7864  137.2247  184.9829 C   0  0  0  0  0  0  0  0  0  0  0  0
  148.5031  137.1137  183.8202 C   0  0  0  0  0  0  0  0  0  0  0  0
  149.2971  135.6553  183.3929 S   0  0  0  0  0  0  0  0  0  0  0  0
  149.0916  135.3696  181.9264 O   0  0  0  0  0  0  0  0  0  0  0  0
  148.8474  134.4462  184.1644 O   0  0  0  0  0  0  0  0  0  0  0  0
  151.0625  135.7453  183.6238 C   0  0  0  0  0  0  0  0  0  0  0  0
  151.4884  134.9224  184.7961 C   0  0  0  0  0  0  0  0  0  0  0  0
  151.8386  135.5223  182.3689 C   0  0  0  0  0  0  0  0  0  0  0  0
  155.3070  139.5439  184.2193 C   0  0  0  0  0  0  0  0  0  0  0  0
  155.7955  138.8397  185.3045 C   0  0  0  0  0  0  0  0  0  0  0  0
  155.0047  137.9699  186.0219 C   0  0  0  0  0  0  0  0  0  0  0  0
  153.7039  137.8413  185.5993 C   0  0  0  0  0  0  0  0  0  0  0  0
  153.1782  138.5378  184.5066 C   0  0  0  0  0  0  0  0  0  0  0  0
  153.9712  139.4031  183.7955 C   0  0  0  0  0  0  0  0  0  0  0  0
  155.5223  137.2541  187.1467 N   0  0  0  0  0  0  0  0  0  0  0  0
  155.7520  137.9685  188.3555 C   0  0  0  0  0  0  0  0  0  0  0  0
  155.9522  137.1312  189.5874 C   0  0  0  0  0  0  0  0  0  0  0  0
  156.8229  135.9367  189.3867 C   0  0  0  0  0  0  0  0  0  0  0  0
  157.0230  135.5887  187.9252 C   0  0  0  0  0  0  0  0  0  0  0  0
  155.8188  135.8430  187.0836 C   0  0  0  0  0  0  0  0  0  0  0  0
  156.4965  134.7660  190.0984 N   0  0  0  0  0  0  0  0  0  0  0  0
  155.1483  134.4318  190.2982 C   0  0  0  0  0  0  0  0  0  0  0  0
  155.0398  133.3708  191.3970 C   0  0  0  0  0  0  0  0  0  0  0  0
  156.0602  132.3711  191.1484 N   0  0  0  0  0  0  0  0  0  0  0  0
  155.8061  131.5432  190.0129 C   0  0  0  0  0  0  0  0  0  0  0  0
  157.3890  132.8808  191.2571 C   0  0  0  0  0  0  0  0  0  0  0  0
  157.3436  134.4059  191.1899 C   0  0  0  0  0  0  0  0  0  0  0  0
  156.7599  141.4638  184.2483 C   0  0  0  0  0  0  0  0  0  0  0  0
  156.1582  140.4031  183.5418 O   0  0  0  0  0  0  0  0  0  0  0  0
 43 44  1  0  0  0
 44 24  1  0  0  0
 24 25  2  0  0  0
 25 26  1  0  0  0
 26 27  2  0  0  0
 27 28  1  0  0  0
 28 29  2  0  0  0
 29  1  1  0  0  0
  1  3  1  0  0  0
  3  4  2  0  0  0
  4  5  1  0  0  0
  5  6  2  0  0  0
  6  7  1  0  0  0
  6  8  1  0  0  0
  8 10  1  0  0  0
 10 12  1  0  0  0
 12 13  2  0  0  0
 13 14  1  0  0  0
 14 15  2  0  0  0
 15 16  1  0  0  0
 16 17  2  0  0  0
 17 18  1  0  0  0
 18 19  2  0  0  0
 18 20  2  0  0  0
 18 21  1  0  0  0
 21 22  1  0  0  0
 21 23  1  0  0  0
  8  9  2  0  0  0
 26 30  1  0  0  0
 30 31  1  0  0  0
 31 32  1  0  0  0
 32 33  1  0  0  0
 33 34  1  0  0  0
 34 35  1  0  0  0
 33 36  1  0  0  0
 36 37  1  0  0  0
 37 38  1  0  0  0
 38 39  1  0  0  0
 39 40  1  0  0  0
 39 41  1  0  0  0
 41 42  1  0  0  0
 29 24  1  0  0  0
  9  3  1  0  0  0
 35 30  1  0  0  0
 42 36  1  0  0  0
 17 12  1  0  0  0
  1  2  1  0  0  0
 10 11  1  0  0  0
M  END
> <minimizedAffinity>
-6.93972

> <CNNscore>
0.2578338385

> <CNNaffinity>
6.7225899696

> <CNN_VS>
1.7333111763

> <CNNaffinity_variance>
0.2658255100

$$$$
[H]c1nc(N([H])c2c([H])c([H])c(N3C([H])([H])C([H])([H])C([H])(N4C([H])([H])C([H])([H])N(C([H])([H])[H])C([H])([H])C4([H])[H])C([H])([H])C3([H])[H])c([H])c2OC([H])([H])[H])nc(N([H])c2c([H])c([H])c([H])c([H])c2S(=O)(=O)C([H])(C([H])([H])[H])C([H])([H])[H])c1Cl


 44 48  0  0  0  0  0  0  0  0999 V2000
  153.7985  138.6345  182.9263 N   0  0  0  0  0  0  0  0  0  0  0  0
  154.7772  138.8892  182.5409 H   0  0  0  0  0  0  0  0  0  0  0  0
  152.7263  138.6910  181.9970 C   0  0  0  0  0  0  0  0  0  0  0  0
  152.7730  139.2141  180.7692 N   0  0  0  0  0  0  0  0  0  0  0  0
  151.7211  139.2332  179.9412 C   0  0  0  0  0  0  0  0  0  0  0  0
  150.5213  138.6962  180.3455 C   0  0  0  0  0  0  0  0  0  0  0  0
  149.1271  138.7121  179.2702 Cl  0  0  0  0  0  0  0  0  0  0  0  0
  150.4454  138.1373  181.6381 C   0  0  0  0  0  0  0  0  0  0  0  0
  151.5489  138.1665  182.3880 N   0  0  0  0  0  0  0  0  0  0  0  0
  149.2106  137.5945  182.0253 N   0  0  0  0  0  0  0  0  0  0  0  0
  148.8594  136.7993  181.3966 H   0  0  0  0  0  0  0  0  0  0  0  0
  148.3495  137.9034  183.0890 C   0  0  0  0  0  0  0  0  0  0  0  0
  147.9876  139.2127  183.3258 C   0  0  0  0  0  0  0  0  0  0  0  0
  147.1302  139.5378  184.3848 C   0  0  0  0  0  0  0  0  0  0  0  0
  146.6556  138.5401  185.1824 C   0  0  0  0  0  0  0  0  0  0  0  0
  147.0185  137.2339  184.9433 C   0  0  0  0  0  0  0  0  0  0  0  0
  147.8553  136.8877  183.9148 C   0  0  0  0  0  0  0  0  0  0  0  0
  148.2969  135.2556  183.6297 S   0  0  0  0  0  0  0  0  0  0  0  0
  148.2561  134.9637  182.1507 O   0  0  0  0  0  0  0  0  0  0  0  0
  147.4314  134.2407  184.3228 O   0  0  0  0  0  0  0  0  0  0  0  0
  149.9656  134.8989  184.1458 C   0  0  0  0  0  0  0  0  0  0  0  0
  150.8230  134.5528  182.9720 C   0  0  0  0  0  0  0  0  0  0  0  0
  150.5324  135.9210  185.0738 C   0  0  0  0  0  0  0  0  0  0  0  0
  154.0555  136.9576  184.6275 C   0  0  0  0  0  0  0  0  0  0  0  0
  154.0430  136.5358  185.9444 C   0  0  0  0  0  0  0  0  0  0  0  0
  153.7463  137.3943  186.9794 C   0  0  0  0  0  0  0  0  0  0  0  0
  153.4639  138.6927  186.6307 C   0  0  0  0  0  0  0  0  0  0  0  0
  153.4675  139.1520  185.3098 C   0  0  0  0  0  0  0  0  0  0  0  0
  153.7637  138.2918  184.2826 C   0  0  0  0  0  0  0  0  0  0  0  0
  153.7446  136.9450  188.3372 N   0  0  0  0  0  0  0  0  0  0  0  0
  154.4953  137.6826  189.2946 C   0  0  0  0  0  0  0  0  0  0  0  0
  154.1873  137.3942  190.7371 C   0  0  0  0  0  0  0  0  0  0  0  0
  154.0128  135.9469  191.0532 C   0  0  0  0  0  0  0  0  0  0  0  0
  153.8030  135.0924  189.8192 C   0  0  0  0  0  0  0  0  0  0  0  0
  153.0132  135.7723  188.7529 C   0  0  0  0  0  0  0  0  0  0  0  0
  153.0486  135.6033  192.0207 N   0  0  0  0  0  0  0  0  0  0  0  0
  152.6765  134.2595  192.1789 C   0  0  0  0  0  0  0  0  0  0  0  0
  151.3753  134.1783  192.9821 C   0  0  0  0  0  0  0  0  0  0  0  0
  151.4904  135.0906  194.1033 N   0  0  0  0  0  0  0  0  0  0  0  0
  152.4040  134.6646  195.1148 C   0  0  0  0  0  0  0  0  0  0  0  0
  151.5969  136.4586  193.7102 C   0  0  0  0  0  0  0  0  0  0  0  0
  151.9772  136.5230  192.2324 C   0  0  0  0  0  0  0  0  0  0  0  0
  154.3168  134.6651  183.9393 C   0  0  0  0  0  0  0  0  0  0  0  0
  154.3626  136.0403  183.6346 O   0  0  0  0  0  0  0  0  0  0  0  0
 43 44  1  0  0  0
 44 24  1  0  0  0
 24 25  2  0  0  0
 25 26  1  0  0  0
 26 27  2  0  0  0
 27 28  1  0  0  0
 28 29  2  0  0  0
 29  1  1  0  0  0
  1  3  1  0  0  0
  3  4  2  0  0  0
  4  5  1  0  0  0
  5  6  2  0  0  0
  6  7  1  0  0  0
  6  8  1  0  0  0
  8 10  1  0  0  0
 10 12  1  0  0  0
 12 13  2  0  0  0
 13 14  1  0  0  0
 14 15  2  0  0  0
 15 16  1  0  0  0
 16 17  2  0  0  0
 17 18  1  0  0  0
 18 19  2  0  0  0
 18 20  2  0  0  0
 18 21  1  0  0  0
 21 22  1  0  0  0
 21 23  1  0  0  0
  8  9  2  0  0  0
 26 30  1  0  0  0
 30 31  1  0  0  0
 31 32  1  0  0  0
 32 33  1  0  0  0
 33 34  1  0  0  0
 34 35  1  0  0  0
 33 36  1  0  0  0
 36 37  1  0  0  0
 37 38  1  0  0  0
 38 39  1  0  0  0
 39 40  1  0  0  0
 39 41  1  0  0  0
 41 42  1  0  0  0
 29 24  1  0  0  0
  9  3  1  0  0  0
 35 30  1  0  0  0
 42 36  1  0  0  0
 17 12  1  0  0  0
  1  2  1  0  0  0
 10 11  1  0  0  0
M  END
> <minimizedAffinity>
-5.94465

> <CNNscore>
0.2483516484

> <CNNaffinity>
6.5762000084

> <CNN_VS>
1.6332100630

> <CNNaffinity_variance>
0.2867997885

$$$$
[H]c1nc(N([H])c2c([H])c([H])c(N3C([H])([H])C([H])([H])C([H])(N4C([H])([H])C([H])([H])N(C([H])([H])[H])C([H])([H])C4([H])[H])C([H])([H])C3([H])[H])c([H])c2OC([H])([H])[H])nc(N([H])c2c([H])c([H])c([H])c([H])c2S(=O)(=O)C([H])(C([H])([H])[H])C([H])([H])[H])c1Cl


 44 48  0  0  0  0  0  0  0  0999 V2000
  154.3318  138.8421  184.4775 N   0  0  0  0  0  0  0  0  0  0  0  0
  155.3626  139.1622  184.5558 H   0  0  0  0  0  0  0  0  0  0  0  0
  153.6483  139.2187  183.2911 C   0  0  0  0  0  0  0  0  0  0  0  0
  153.9726  140.2292  182.4806 N   0  0  0  0  0  0  0  0  0  0  0  0
  153.2829  140.5294  181.3730 C   0  0  0  0  0  0  0  0  0  0  0  0
  152.1832  139.7798  181.0266 C   0  0  0  0  0  0  0  0  0  0  0  0
  151.2641  140.1597  179.5735 Cl  0  0  0  0  0  0  0  0  0  0  0  0
  151.8194  138.7066  181.8661 C   0  0  0  0  0  0  0  0  0  0  0  0
  152.5704  138.4878  182.9473 N   0  0  0  0  0  0  0  0  0  0  0  0
  150.6948  137.9566  181.4891 N   0  0  0  0  0  0  0  0  0  0  0  0
  150.9077  137.1430  180.8230 H   0  0  0  0  0  0  0  0  0  0  0  0
  149.3384  138.0776  181.8265 C   0  0  0  0  0  0  0  0  0  0  0  0
  148.6411  139.2167  181.4837 C   0  0  0  0  0  0  0  0  0  0  0  0
  147.2869  139.3535  181.8150 C   0  0  0  0  0  0  0  0  0  0  0  0
  146.6635  138.3429  182.4835 C   0  0  0  0  0  0  0  0  0  0  0  0
  147.3623  137.2069  182.8242 C   0  0  0  0  0  0  0  0  0  0  0  0
  148.6871  137.0466  182.5127 C   0  0  0  0  0  0  0  0  0  0  0  0
  149.5431  135.6246  182.9433 S   0  0  0  0  0  0  0  0  0  0  0  0
  150.5503  135.2878  181.8727 O   0  0  0  0  0  0  0  0  0  0  0  0
  148.6797  134.4134  183.1600 O   0  0  0  0  0  0  0  0  0  0  0  0
  150.4833  135.8214  184.4452 C   0  0  0  0  0  0  0  0  0  0  0  0
  150.0467  137.0407  185.1904 C   0  0  0  0  0  0  0  0  0  0  0  0
  150.5748  134.5728  185.2574 C   0  0  0  0  0  0  0  0  0  0  0  0
  154.0361  136.7115  185.5477 C   0  0  0  0  0  0  0  0  0  0  0  0
  153.5922  135.9123  186.5852 C   0  0  0  0  0  0  0  0  0  0  0  0
  152.9515  136.4384  187.6847 C   0  0  0  0  0  0  0  0  0  0  0  0
  152.7784  137.8012  187.6933 C   0  0  0  0  0  0  0  0  0  0  0  0
  153.2145  138.6380  186.6613 C   0  0  0  0  0  0  0  0  0  0  0  0
  153.8523  138.1078  185.5680 C   0  0  0  0  0  0  0  0  0  0  0  0
  152.5046  135.5997  188.7535 N   0  0  0  0  0  0  0  0  0  0  0  0
  153.2108  134.3904  189.0048 C   0  0  0  0  0  0  0  0  0  0  0  0
  152.9380  133.7310  190.3275 C   0  0  0  0  0  0  0  0  0  0  0  0
  151.4999  133.7143  190.7234 C   0  0  0  0  0  0  0  0  0  0  0  0
  150.6534  134.6815  189.9204 C   0  0  0  0  0  0  0  0  0  0  0  0
  151.3649  135.9439  189.5694 C   0  0  0  0  0  0  0  0  0  0  0  0
  151.1993  133.8651  192.0911 N   0  0  0  0  0  0  0  0  0  0  0  0
  151.9715  133.1879  193.0473 C   0  0  0  0  0  0  0  0  0  0  0  0
  151.2394  133.1882  194.3923 C   0  0  0  0  0  0  0  0  0  0  0  0
  150.7235  134.5251  194.6143 N   0  0  0  0  0  0  0  0  0  0  0  0
  151.7257  135.4998  194.9056 C   0  0  0  0  0  0  0  0  0  0  0  0
  149.7392  134.9170  193.6579 C   0  0  0  0  0  0  0  0  0  0  0  0
  149.8225  133.9873  192.4491 C   0  0  0  0  0  0  0  0  0  0  0  0
  153.9737  135.1595  183.7078 C   0  0  0  0  0  0  0  0  0  0  0  0
  154.6737  136.1158  184.4705 O   0  0  0  0  0  0  0  0  0  0  0  0
 43 44  1  0  0  0
 44 24  1  0  0  0
 24 25  2  0  0  0
 25 26  1  0  0  0
 26 27  2  0  0  0
 27 28  1  0  0  0
 28 29  2  0  0  0
 29  1  1  0  0  0
  1  3  1  0  0  0
  3  4  2  0  0  0
  4  5  1  0  0  0
  5  6  2  0  0  0
  6  7  1  0  0  0
  6  8  1  0  0  0
  8 10  1  0  0  0
 10 12  1  0  0  0
 12 13  2  0  0  0
 13 14  1  0  0  0
 14 15  2  0  0  0
 15 16  1  0  0  0
 16 17  2  0  0  0
 17 18  1  0  0  0
 18 19  2  0  0  0
 18 20  2  0  0  0
 18 21  1  0  0  0
 21 22  1  0  0  0
 21 23  1  0  0  0
  8  9  2  0  0  0
 26 30  1  0  0  0
 30 31  1  0  0  0
 31 32  1  0  0  0
 32 33  1  0  0  0
 33 34  1  0  0  0
 34 35  1  0  0  0
 33 36  1  0  0  0
 36 37  1  0  0  0
 37 38  1  0  0  0
 38 39  1  0  0  0
 39 40  1  0  0  0
 39 41  1  0  0  0
 41 42  1  0  0  0
 29 24  1  0  0  0
  9  3  1  0  0  0
 35 30  1  0  0  0
 42 36  1  0  0  0
 17 12  1  0  0  0
  1  2  1  0  0  0
 10 11  1  0  0  0
M  END
> <minimizedAffinity>
-5.64416

> <CNNscore>
0.2457475364

> <CNNaffinity>
6.3656082153

> <CNN_VS>
1.5643324852

> <CNNaffinity_variance>
0.2424522340

$$$$
[H]c1nc(N([H])c2c([H])c([H])c(N3C([H])([H])C([H])([H])C([H])(N4C([H])([H])C([H])([H])N(C([H])([H])[H])C([H])([H])C4([H])[H])C([H])([H])C3([H])[H])c([H])c2OC([H])([H])[H])nc(N([H])c2c([H])c([H])c([H])c([H])c2S(=O)(=O)C([H])(C([H])([H])[H])C([H])([H])[H])c1Cl


 44 48  0  0  0  0  0  0  0  0999 V2000
  154.2809  137.9754  184.1599 N   0  0  0  0  0  0  0  0  0  0  0  0
  155.2601  137.6964  183.7931 H   0  0  0  0  0  0  0  0  0  0  0  0
  153.4069  138.5757  183.2153 C   0  0  0  0  0  0  0  0  0  0  0  0
  153.6293  139.7076  182.5426 N   0  0  0  0  0  0  0  0  0  0  0  0
  152.7597  140.2186  181.6621 C   0  0  0  0  0  0  0  0  0  0  0  0
  151.5721  139.5700  181.4169 C   0  0  0  0  0  0  0  0  0  0  0  0
  150.4165  140.2270  180.2621 Cl  0  0  0  0  0  0  0  0  0  0  0  0
  151.3129  138.3721  182.1145 C   0  0  0  0  0  0  0  0  0  0  0  0
  152.2423  137.9444  182.9714 N   0  0  0  0  0  0  0  0  0  0  0  0
  150.0951  137.7292  181.8447 N   0  0  0  0  0  0  0  0  0  0  0  0
  150.0041  137.3544  180.8436 H   0  0  0  0  0  0  0  0  0  0  0  0
  148.9715  137.4863  182.6491 C   0  0  0  0  0  0  0  0  0  0  0  0
  148.9981  137.8130  183.9884 C   0  0  0  0  0  0  0  0  0  0  0  0
  147.8852  137.5752  184.8052 C   0  0  0  0  0  0  0  0  0  0  0  0
  146.7704  137.0142  184.2582 C   0  0  0  0  0  0  0  0  0  0  0  0
  146.7468  136.6893  182.9207 C   0  0  0  0  0  0  0  0  0  0  0  0
  147.8207  136.9109  182.0989 C   0  0  0  0  0  0  0  0  0  0  0  0
  147.7748  136.5014  180.4345 S   0  0  0  0  0  0  0  0  0  0  0  0
  146.7433  135.4270  180.1985 O   0  0  0  0  0  0  0  0  0  0  0  0
  149.0812  136.0165  179.8710 O   0  0  0  0  0  0  0  0  0  0  0  0
  147.2859  137.8734  179.4064 C   0  0  0  0  0  0  0  0  0  0  0  0
  146.7888  139.0108  180.2381 C   0  0  0  0  0  0  0  0  0  0  0  0
  148.2995  138.2317  178.3714 C   0  0  0  0  0  0  0  0  0  0  0  0
  154.0679  136.3414  185.9082 C   0  0  0  0  0  0  0  0  0  0  0  0
  153.8476  135.9753  187.2234 C   0  0  0  0  0  0  0  0  0  0  0  0
  153.5997  136.9084  188.2054 C   0  0  0  0  0  0  0  0  0  0  0  0
  153.5837  138.2225  187.8055 C   0  0  0  0  0  0  0  0  0  0  0  0
  153.8021  138.6268  186.4848 C   0  0  0  0  0  0  0  0  0  0  0  0
  154.0485  137.6925  185.5105 C   0  0  0  0  0  0  0  0  0  0  0  0
  153.3811  136.5149  189.5629 N   0  0  0  0  0  0  0  0  0  0  0  0
  153.7316  137.4276  190.5965 C   0  0  0  0  0  0  0  0  0  0  0  0
  153.1695  137.1286  191.9579 C   0  0  0  0  0  0  0  0  0  0  0  0
  153.2226  135.6888  192.3445 C   0  0  0  0  0  0  0  0  0  0  0  0
  153.4738  134.7684  191.1669 C   0  0  0  0  0  0  0  0  0  0  0  0
  152.8256  135.2275  189.9051 C   0  0  0  0  0  0  0  0  0  0  0  0
  152.1538  135.1796  193.1074 N   0  0  0  0  0  0  0  0  0  0  0  0
  152.2641  133.9071  193.6886 C   0  0  0  0  0  0  0  0  0  0  0  0
  150.8788  133.4187  194.1215 C   0  0  0  0  0  0  0  0  0  0  0  0
  150.2087  134.5208  194.7839 N   0  0  0  0  0  0  0  0  0  0  0  0
  150.7423  134.8452  196.0682 C   0  0  0  0  0  0  0  0  0  0  0  0
  149.9564  135.6295  193.9211 C   0  0  0  0  0  0  0  0  0  0  0  0
  150.8309  135.4994  192.6758 C   0  0  0  0  0  0  0  0  0  0  0  0
  153.2518  134.5087  184.5767 C   0  0  0  0  0  0  0  0  0  0  0  0
  154.3116  135.3501  184.9702 O   0  0  0  0  0  0  0  0  0  0  0  0
 43 44  1  0  0  0
 44 24  1  0  0  0
 24 25  2  0  0  0
 25 26  1  0  0  0
 26 27  2  0  0  0
 27 28  1  0  0  0
 28 29  2  0  0  0
 29  1  1  0  0  0
  1  3  1  0  0  0
  3  4  2  0  0  0
  4  5  1  0  0  0
  5  6  2  0  0  0
  6  7  1  0  0  0
  6  8  1  0  0  0
  8 10  1  0  0  0
 10 12  1  0  0  0
 12 13  2  0  0  0
 13 14  1  0  0  0
 14 15  2  0  0  0
 15 16  1  0  0  0
 16 17  2  0  0  0
 17 18  1  0  0  0
 18 19  2  0  0  0
 18 20  2  0  0  0
 18 21  1  0  0  0
 21 22  1  0  0  0
 21 23  1  0  0  0
  8  9  2  0  0  0
 26 30  1  0  0  0
 30 31  1  0  0  0
 31 32  1  0  0  0
 32 33  1  0  0  0
 33 34  1  0  0  0
 34 35  1  0  0  0
 33 36  1  0  0  0
 36 37  1  0  0  0
 37 38  1  0  0  0
 38 39  1  0  0  0
 39 40  1  0  0  0
 39 41  1  0  0  0
 41 42  1  0  0  0
 29 24  1  0  0  0
  9  3  1  0  0  0
 35 30  1  0  0  0
 42 36  1  0  0  0
 17 12  1  0  0  0
  1  2  1  0  0  0
 10 11  1  0  0  0
M  END
> <minimizedAffinity>
-6.48984

> <CNNscore>
0.2408193648

> <CNNaffinity>
6.4243268967

> <CNN_VS>
1.5471023321

> <CNNaffinity_variance>
0.1037939340

$$$$
[H]c1nc(N([H])c2c([H])c([H])c(N3C([H])([H])C([H])([H])C([H])(N4C([H])([H])C([H])([H])N(C([H])([H])[H])C([H])([H])C4([H])[H])C([H])([H])C3([H])[H])c([H])c2OC([H])([H])[H])nc(N([H])c2c([H])c([H])c([H])c([H])c2S(=O)(=O)C([H])(C([H])([H])[H])C([H])([H])[H])c1Cl


 44 48  0  0  0  0  0  0  0  0999 V2000
  154.6386  137.9288  184.7965 N   0  0  0  0  0  0  0  0  0  0  0  0
  155.4742  137.3009  184.5158 H   0  0  0  0  0  0  0  0  0  0  0  0
  154.5150  139.1565  184.0937 C   0  0  0  0  0  0  0  0  0  0  0  0
  153.5553  139.4726  183.2206 N   0  0  0  0  0  0  0  0  0  0  0  0
  153.4976  140.6534  182.5922 C   0  0  0  0  0  0  0  0  0  0  0  0
  154.4578  141.6071  182.8366 C   0  0  0  0  0  0  0  0  0  0  0  0
  154.3980  143.1658  182.0197 Cl  0  0  0  0  0  0  0  0  0  0  0  0
  155.4826  141.2981  183.7548 C   0  0  0  0  0  0  0  0  0  0  0  0
  155.4529  140.0940  184.3294 N   0  0  0  0  0  0  0  0  0  0  0  0
  156.4486  142.2890  183.9877 N   0  0  0  0  0  0  0  0  0  0  0  0
  156.0750  143.2933  183.9349 H   0  0  0  0  0  0  0  0  0  0  0  0
  157.8186  142.2046  184.2784 C   0  0  0  0  0  0  0  0  0  0  0  0
  158.2478  141.4936  185.3791 C   0  0  0  0  0  0  0  0  0  0  0  0
  159.6119  141.4013  185.6839 C   0  0  0  0  0  0  0  0  0  0  0  0
  160.5144  142.0256  184.8761 C   0  0  0  0  0  0  0  0  0  0  0  0
  160.0829  142.7345  183.7779 C   0  0  0  0  0  0  0  0  0  0  0  0
  158.7550  142.8410  183.4563 C   0  0  0  0  0  0  0  0  0  0  0  0
  158.2338  143.7270  182.0839 S   0  0  0  0  0  0  0  0  0  0  0  0
  159.2686  144.7610  181.7171 O   0  0  0  0  0  0  0  0  0  0  0  0
  156.9182  144.4336  182.2552 O   0  0  0  0  0  0  0  0  0  0  0  0
  158.0450  142.7002  180.6388 C   0  0  0  0  0  0  0  0  0  0  0  0
  159.0074  143.1041  179.5697 C   0  0  0  0  0  0  0  0  0  0  0  0
  158.0059  141.2406  180.9474 C   0  0  0  0  0  0  0  0  0  0  0  0
  154.2476  137.5844  187.1418 C   0  0  0  0  0  0  0  0  0  0  0  0
  153.5000  137.1065  188.2025 C   0  0  0  0  0  0  0  0  0  0  0  0
  152.3080  136.4439  188.0110 C   0  0  0  0  0  0  0  0  0  0  0  0
  151.9033  136.2847  186.7079 C   0  0  0  0  0  0  0  0  0  0  0  0
  152.6348  136.7552  185.6128 C   0  0  0  0  0  0  0  0  0  0  0  0
  153.8220  137.4146  185.8099 C   0  0  0  0  0  0  0  0  0  0  0  0
  151.5422  135.9619  189.1185 N   0  0  0  0  0  0  0  0  0  0  0  0
  150.2049  135.5374  188.8824 C   0  0  0  0  0  0  0  0  0  0  0  0
  149.5694  134.7241  189.9748 C   0  0  0  0  0  0  0  0  0  0  0  0
  149.8362  135.2275  191.3534 C   0  0  0  0  0  0  0  0  0  0  0  0
  150.9854  136.2139  191.4116 C   0  0  0  0  0  0  0  0  0  0  0  0
  152.0852  135.9019  190.4543 C   0  0  0  0  0  0  0  0  0  0  0  0
  149.9970  134.2722  192.3757 N   0  0  0  0  0  0  0  0  0  0  0  0
  150.3625  132.9587  192.0431 C   0  0  0  0  0  0  0  0  0  0  0  0
  150.0999  132.0351  193.2360 C   0  0  0  0  0  0  0  0  0  0  0  0
  150.5905  132.7010  194.4269 N   0  0  0  0  0  0  0  0  0  0  0  0
  152.0140  132.7766  194.5124 C   0  0  0  0  0  0  0  0  0  0  0  0
  149.8880  133.9056  194.7309 C   0  0  0  0  0  0  0  0  0  0  0  0
  149.1131  134.3549  193.4939 C   0  0  0  0  0  0  0  0  0  0  0  0
  156.1651  137.8983  188.5639 C   0  0  0  0  0  0  0  0  0  0  0  0
  155.4386  138.2426  187.4063 O   0  0  0  0  0  0  0  0  0  0  0  0
 43 44  1  0  0  0
 44 24  1  0  0  0
 24 25  2  0  0  0
 25 26  1  0  0  0
 26 27  2  0  0  0
 27 28  1  0  0  0
 28 29  2  0  0  0
 29  1  1  0  0  0
  1  3  1  0  0  0
  3  4  2  0  0  0
  4  5  1  0  0  0
  5  6  2  0  0  0
  6  7  1  0  0  0
  6  8  1  0  0  0
  8 10  1  0  0  0
 10 12  1  0  0  0
 12 13  2  0  0  0
 13 14  1  0  0  0
 14 15  2  0  0  0
 15 16  1  0  0  0
 16 17  2  0  0  0
 17 18  1  0  0  0
 18 19  2  0  0  0
 18 20  2  0  0  0
 18 21  1  0  0  0
 21 22  1  0  0  0
 21 23  1  0  0  0
  8  9  2  0  0  0
 26 30  1  0  0  0
 30 31  1  0  0  0
 31 32  1  0  0  0
 32 33  1  0  0  0
 33 34  1  0  0  0
 34 35  1  0  0  0
 33 36  1  0  0  0
 36 37  1  0  0  0
 37 38  1  0  0  0
 38 39  1  0  0  0
 39 40  1  0  0  0
 39 41  1  0  0  0
 41 42  1  0  0  0
 29 24  1  0  0  0
  9  3  1  0  0  0
 35 30  1  0  0  0
 42 36  1  0  0  0
 17 12  1  0  0  0
  1  2  1  0  0  0
 10 11  1  0  0  0
M  END
> <minimizedAffinity>
-8.09050

> <CNNscore>
0.2216841578

> <CNNaffinity>
6.7796492577

> <CNN_VS>
1.5029408932

> <CNNaffinity_variance>
0.0535480268

$$$$
[H]c1nc(N([H])c2c([H])c([H])c(N3C([H])([H])C([H])([H])C([H])(N4C([H])([H])C([H])([H])N(C([H])([H])[H])C([H])([H])C4([H])[H])C([H])([H])C3([H])[H])c([H])c2OC([H])([H])[H])nc(N([H])c2c([H])c([H])c([H])c([H])c2S(=O)(=O)C([H])(C([H])([H])[H])C([H])([H])[H])c1Cl


 44 48  0  0  0  0  0  0  0  0999 V2000
  155.6140  137.9544  185.9593 N   0  0  0  0  0  0  0  0  0  0  0  0
  156.4901  137.3365  185.8116 H   0  0  0  0  0  0  0  0  0  0  0  0
  155.3771  138.9494  184.9743 C   0  0  0  0  0  0  0  0  0  0  0  0
  154.2125  139.5549  184.7285 N   0  0  0  0  0  0  0  0  0  0  0  0
  154.0588  140.4892  183.7819 C   0  0  0  0  0  0  0  0  0  0  0  0
  155.1328  140.8649  183.0095 C   0  0  0  0  0  0  0  0  0  0  0  0
  154.9496  142.0921  181.7601 Cl  0  0  0  0  0  0  0  0  0  0  0  0
  156.3743  140.2405  183.2490 C   0  0  0  0  0  0  0  0  0  0  0  0
  156.4257  139.3210  184.2149 N   0  0  0  0  0  0  0  0  0  0  0  0
  157.4543  140.6432  182.4485 N   0  0  0  0  0  0  0  0  0  0  0  0
  157.9882  139.8359  181.9857 H   0  0  0  0  0  0  0  0  0  0  0  0
  157.9640  141.9140  182.1423 C   0  0  0  0  0  0  0  0  0  0  0  0
  157.6343  142.5203  180.9486 C   0  0  0  0  0  0  0  0  0  0  0  0
  158.1365  143.7880  180.6272 C   0  0  0  0  0  0  0  0  0  0  0  0
  158.9588  144.4181  181.5124 C   0  0  0  0  0  0  0  0  0  0  0  0
  159.2860  143.8103  182.7033 C   0  0  0  0  0  0  0  0  0  0  0  0
  158.8092  142.5713  183.0431 C   0  0  0  0  0  0  0  0  0  0  0  0
  159.2255  141.8283  184.5313 S   0  0  0  0  0  0  0  0  0  0  0  0
  159.7392  140.4325  184.2822 O   0  0  0  0  0  0  0  0  0  0  0  0
  158.0994  141.7338  185.5225 O   0  0  0  0  0  0  0  0  0  0  0  0
  160.5418  142.6828  185.3772 C   0  0  0  0  0  0  0  0  0  0  0  0
  160.3061  142.6953  186.8526 C   0  0  0  0  0  0  0  0  0  0  0  0
  161.9039  142.2483  184.9497 C   0  0  0  0  0  0  0  0  0  0  0  0
  153.8846  136.6529  187.0023 C   0  0  0  0  0  0  0  0  0  0  0  0
  153.1003  136.3008  188.0853 C   0  0  0  0  0  0  0  0  0  0  0  0
  153.2366  136.9135  189.3110 C   0  0  0  0  0  0  0  0  0  0  0  0
  154.1953  137.8936  189.3975 C   0  0  0  0  0  0  0  0  0  0  0  0
  155.0048  138.2742  188.3226 C   0  0  0  0  0  0  0  0  0  0  0  0
  154.8642  137.6600  187.1036 C   0  0  0  0  0  0  0  0  0  0  0  0
  152.4230  136.5332  190.4240 N   0  0  0  0  0  0  0  0  0  0  0  0
  151.1532  135.9462  190.1642 C   0  0  0  0  0  0  0  0  0  0  0  0
  150.4991  135.2509  191.3251 C   0  0  0  0  0  0  0  0  0  0  0  0
  150.6009  135.9841  192.6202 C   0  0  0  0  0  0  0  0  0  0  0  0
  151.6503  137.0773  192.6009 C   0  0  0  0  0  0  0  0  0  0  0  0
  152.8517  136.7334  191.7875 C   0  0  0  0  0  0  0  0  0  0  0  0
  150.7555  135.2178  193.7918 N   0  0  0  0  0  0  0  0  0  0  0  0
  149.7172  134.3689  194.2046 C   0  0  0  0  0  0  0  0  0  0  0  0
  149.9420  133.9536  195.6612 C   0  0  0  0  0  0  0  0  0  0  0  0
  151.3406  133.6006  195.8094 N   0  0  0  0  0  0  0  0  0  0  0  0
  151.7079  132.3779  195.1696 C   0  0  0  0  0  0  0  0  0  0  0  0
  152.2263  134.6997  195.5977 C   0  0  0  0  0  0  0  0  0  0  0  0
  151.4727  135.8132  194.8733 C   0  0  0  0  0  0  0  0  0  0  0  0
  154.2082  134.6917  185.6434 C   0  0  0  0  0  0  0  0  0  0  0  0
  153.6945  135.9950  185.7970 O   0  0  0  0  0  0  0  0  0  0  0  0
 43 44  1  0  0  0
 44 24  1  0  0  0
 24 25  2  0  0  0
 25 26  1  0  0  0
 26 27  2  0  0  0
 27 28  1  0  0  0
 28 29  2  0  0  0
 29  1  1  0  0  0
  1  3  1  0  0  0
  3  4  2  0  0  0
  4  5  1  0  0  0
  5  6  2  0  0  0
  6  7  1  0  0  0
  6  8  1  0  0  0
  8 10  1  0  0  0
 10 12  1  0  0  0
 12 13  2  0  0  0
 13 14  1  0  0  0
 14 15  2  0  0  0
 15 16  1  0  0  0
 16 17  2  0  0  0
 17 18  1  0  0  0
 18 19  2  0  0  0
 18 20  2  0  0  0
 18 21  1  0  0  0
 21 22  1  0  0  0
 21 23  1  0  0  0
  8  9  2  0  0  0
 26 30  1  0  0  0
 30 31  1  0  0  0
 31 32  1  0  0  0
 32 33  1  0  0  0
 33 34  1  0  0  0
 34 35  1  0  0  0
 33 36  1  0  0  0
 36 37  1  0  0  0
 37 38  1  0  0  0
 38 39  1  0  0  0
 39 40  1  0  0  0
 39 41  1  0  0  0
 41 42  1  0  0  0
 29 24  1  0  0  0
  9  3  1  0  0  0
 35 30  1  0  0  0
 42 36  1  0  0  0
 17 12  1  0  0  0
  1  2  1  0  0  0
 10 11  1  0  0  0
M  END
> <minimizedAffinity>
-8.99121

> <CNNscore>
0.2186193466

> <CNNaffinity>
6.7180571556

> <CNN_VS>
1.4686973095

> <CNNaffinity_variance>
0.1871343106

$$$$
[H]c1nc(N([H])c2c([H])c([H])c(N3C([H])([H])C([H])([H])C([H])(N4C([H])([H])C([H])([H])N(C([H])([H])[H])C([H])([H])C4([H])[H])C([H])([H])C3([H])[H])c([H])c2OC([H])([H])[H])nc(N([H])c2c([H])c([H])c([H])c([H])c2S(=O)(=O)C([H])(C([H])([H])[H])C([H])([H])[H])c1Cl


 44 48  0  0  0  0  0  0  0  0999 V2000
  156.1775  138.1899  186.6687 N   0  0  0  0  0  0  0  0  0  0  0  0
  157.2103  137.8669  186.6554 H   0  0  0  0  0  0  0  0  0  0  0  0
  155.7315  138.9062  185.5265 C   0  0  0  0  0  0  0  0  0  0  0  0
  154.4619  139.0832  185.1523 N   0  0  0  0  0  0  0  0  0  0  0  0
  154.1102  139.7736  184.0604 C   0  0  0  0  0  0  0  0  0  0  0  0
  155.0797  140.3394  183.2659 C   0  0  0  0  0  0  0  0  0  0  0  0
  154.6359  141.2509  181.8262 Cl  0  0  0  0  0  0  0  0  0  0  0  0
  156.4286  140.1670  183.6392 C   0  0  0  0  0  0  0  0  0  0  0  0
  156.6770  139.4624  184.7449 N   0  0  0  0  0  0  0  0  0  0  0  0
  157.3979  140.7559  182.8127 N   0  0  0  0  0  0  0  0  0  0  0  0
  157.9867  140.0560  182.2520 H   0  0  0  0  0  0  0  0  0  0  0  0
  157.7377  142.0981  182.5856 C   0  0  0  0  0  0  0  0  0  0  0  0
  157.0606  142.8295  181.6327 C   0  0  0  0  0  0  0  0  0  0  0  0
  157.3890  144.1699  181.3927 C   0  0  0  0  0  0  0  0  0  0  0  0
  158.3905  144.7457  182.1154 C   0  0  0  0  0  0  0  0  0  0  0  0
  159.0645  144.0130  183.0661 C   0  0  0  0  0  0  0  0  0  0  0  0
  158.7640  142.7006  183.3215 C   0  0  0  0  0  0  0  0  0  0  0  0
  159.6124  141.8020  184.5101 S   0  0  0  0  0  0  0  0  0  0  0  0
  160.0246  140.4656  183.9460 O   0  0  0  0  0  0  0  0  0  0  0  0
  158.8411  141.5491  185.7752 O   0  0  0  0  0  0  0  0  0  0  0  0
  161.1245  142.5980  185.0183 C   0  0  0  0  0  0  0  0  0  0  0  0
  161.1696  142.7557  186.5035 C   0  0  0  0  0  0  0  0  0  0  0  0
  162.3460  142.0043  184.3999 C   0  0  0  0  0  0  0  0  0  0  0  0
  155.7270  136.5867  188.4004 C   0  0  0  0  0  0  0  0  0  0  0  0
  155.0618  136.1648  189.5370 C   0  0  0  0  0  0  0  0  0  0  0  0
  154.1097  136.9455  190.1536 C   0  0  0  0  0  0  0  0  0  0  0  0
  153.8579  138.1665  189.5767 C   0  0  0  0  0  0  0  0  0  0  0  0
  154.5117  138.6236  188.4282 C   0  0  0  0  0  0  0  0  0  0  0  0
  155.4595  137.8410  187.8181 C   0  0  0  0  0  0  0  0  0  0  0  0
  153.4355  136.4985  191.3331 N   0  0  0  0  0  0  0  0  0  0  0  0
  152.5627  137.4044  191.9977 C   0  0  0  0  0  0  0  0  0  0  0  0
  151.6231  136.7973  193.0013 C   0  0  0  0  0  0  0  0  0  0  0  0
  152.2423  135.7617  193.8784 C   0  0  0  0  0  0  0  0  0  0  0  0
  153.5688  135.2540  193.3493 C   0  0  0  0  0  0  0  0  0  0  0  0
  153.6217  135.1685  191.8617 C   0  0  0  0  0  0  0  0  0  0  0  0
  151.4444  134.6629  194.2517 N   0  0  0  0  0  0  0  0  0  0  0  0
  150.2716  134.3844  193.5332 C   0  0  0  0  0  0  0  0  0  0  0  0
  149.3941  133.4203  194.3365 C   0  0  0  0  0  0  0  0  0  0  0  0
  150.2514  132.3752  194.8612 N   0  0  0  0  0  0  0  0  0  0  0  0
  150.7375  131.4647  193.8743 C   0  0  0  0  0  0  0  0  0  0  0  0
  151.2216  132.8542  195.7920 C   0  0  0  0  0  0  0  0  0  0  0  0
  151.3454  134.3694  195.6455 C   0  0  0  0  0  0  0  0  0  0  0  0
  157.6894  135.2137  188.6479 C   0  0  0  0  0  0  0  0  0  0  0  0
  156.6742  135.7501  187.8307 O   0  0  0  0  0  0  0  0  0  0  0  0
 43 44  1  0  0  0
 44 24  1  0  0  0
 24 25  2  0  0  0
 25 26  1  0  0  0
 26 27  2  0  0  0
 27 28  1  0  0  0
 28 29  2  0  0  0
 29  1  1  0  0  0
  1  3  1  0  0  0
  3  4  2  0  0  0
  4  5  1  0  0  0
  5  6  2  0  0  0
  6  7  1  0  0  0
  6  8  1  0  0  0
  8 10  1  0  0  0
 10 12  1  0  0  0
 12 13  2  0  0  0
 13 14  1  0  0  0
 14 15  2  0  0  0
 15 16  1  0  0  0
 16 17  2  0  0  0
 17 18  1  0  0  0
 18 19  2  0  0  0
 18 20  2  0  0  0
 18 21  1  0  0  0
 21 22  1  0  0  0
 21 23  1  0  0  0
  8  9  2  0  0  0
 26 30  1  0  0  0
 30 31  1  0  0  0
 31 32  1  0  0  0
 32 33  1  0  0  0
 33 34  1  0  0  0
 34 35  1  0  0  0
 33 36  1  0  0  0
 36 37  1  0  0  0
 37 38  1  0  0  0
 38 39  1  0  0  0
 39 40  1  0  0  0
 39 41  1  0  0  0
 41 42  1  0  0  0
 29 24  1  0  0  0
  9  3  1  0  0  0
 35 30  1  0  0  0
 42 36  1  0  0  0
 17 12  1  0  0  0
  1  2  1  0  0  0
 10 11  1  0  0  0
M  END
> <minimizedAffinity>
-8.77218

> <CNNscore>
0.2055665255

> <CNNaffinity>
6.7396659851

> <CNN_VS>
1.3854497671

> <CNNaffinity_variance>
0.2050472200

$$$$
[H]c1nc(N([H])c2c([H])c([H])c(N3C([H])([H])C([H])([H])C([H])(N4C([H])([H])C([H])([H])N(C([H])([H])[H])C([H])([H])C4([H])[H])C([H])([H])C3([H])[H])c([H])c2OC([H])([H])[H])nc(N([H])c2c([H])c([H])c([H])c([H])c2S(=O)(=O)C([H])(C([H])([H])[H])C([H])([H])[H])c1Cl


 44 48  0  0  0  0  0  0  0  0999 V2000
  156.0328  137.9158  186.5379 N   0  0  0  0  0  0  0  0  0  0  0  0
  157.0178  137.4730  186.4677 H   0  0  0  0  0  0  0  0  0  0  0  0
  155.6371  138.7370  185.4491 C   0  0  0  0  0  0  0  0  0  0  0  0
  154.4866  138.6548  184.7762 N   0  0  0  0  0  0  0  0  0  0  0  0
  154.1756  139.4649  183.7565 C   0  0  0  0  0  0  0  0  0  0  0  0
  155.0626  140.4380  183.3597 C   0  0  0  0  0  0  0  0  0  0  0  0
  154.6707  141.5126  182.0209 Cl  0  0  0  0  0  0  0  0  0  0  0  0
  156.2852  140.5458  184.0541 C   0  0  0  0  0  0  0  0  0  0  0  0
  156.5022  139.6917  185.0563 N   0  0  0  0  0  0  0  0  0  0  0  0
  157.1716  141.5480  183.6306 N   0  0  0  0  0  0  0  0  0  0  0  0
  156.8948  142.0243  182.7100 H   0  0  0  0  0  0  0  0  0  0  0  0
  158.3574  142.0421  184.1946 C   0  0  0  0  0  0  0  0  0  0  0  0
  158.8010  141.5545  185.4057 C   0  0  0  0  0  0  0  0  0  0  0  0
  159.9820  142.0387  185.9828 C   0  0  0  0  0  0  0  0  0  0  0  0
  160.6909  143.0022  185.3302 C   0  0  0  0  0  0  0  0  0  0  0  0
  160.2457  143.4869  184.1212 C   0  0  0  0  0  0  0  0  0  0  0  0
  159.0944  143.0312  183.5340 C   0  0  0  0  0  0  0  0  0  0  0  0
  158.5539  143.6447  182.0268 S   0  0  0  0  0  0  0  0  0  0  0  0
  159.1408  145.0134  181.7895 O   0  0  0  0  0  0  0  0  0  0  0  0
  157.0608  143.7549  181.8928 O   0  0  0  0  0  0  0  0  0  0  0  0
  159.0890  142.6454  180.6507 C   0  0  0  0  0  0  0  0  0  0  0  0
  158.0769  141.5935  180.3318 C   0  0  0  0  0  0  0  0  0  0  0  0
  159.5701  143.4454  179.4865 C   0  0  0  0  0  0  0  0  0  0  0  0
  155.7650  136.5000  188.4604 C   0  0  0  0  0  0  0  0  0  0  0  0
  155.1162  136.1181  189.6203 C   0  0  0  0  0  0  0  0  0  0  0  0
  154.0069  136.7878  190.0865 C   0  0  0  0  0  0  0  0  0  0  0  0
  153.5812  137.8562  189.3351 C   0  0  0  0  0  0  0  0  0  0  0  0
  154.2135  138.2687  188.1580 C   0  0  0  0  0  0  0  0  0  0  0  0
  155.3185  137.5973  187.6984 C   0  0  0  0  0  0  0  0  0  0  0  0
  153.3509  136.3855  191.2920 N   0  0  0  0  0  0  0  0  0  0  0  0
  152.6249  137.3644  192.0261 C   0  0  0  0  0  0  0  0  0  0  0  0
  151.6778  136.8383  193.0677 C   0  0  0  0  0  0  0  0  0  0  0  0
  152.2212  135.7141  193.8839 C   0  0  0  0  0  0  0  0  0  0  0  0
  153.4501  135.0755  193.2683 C   0  0  0  0  0  0  0  0  0  0  0  0
  153.4120  135.0281  191.7785 C   0  0  0  0  0  0  0  0  0  0  0  0
  151.3241  134.7020  194.2771 N   0  0  0  0  0  0  0  0  0  0  0  0
  150.3904  134.2087  193.3529 C   0  0  0  0  0  0  0  0  0  0  0  0
  149.3009  133.4264  194.0918 C   0  0  0  0  0  0  0  0  0  0  0  0
  149.9529  132.5754  195.0681 N   0  0  0  0  0  0  0  0  0  0  0  0
  150.6713  131.4781  194.5033 C   0  0  0  0  0  0  0  0  0  0  0  0
  150.6381  133.3050  196.0857 C   0  0  0  0  0  0  0  0  0  0  0  0
  150.8350  134.7454  195.6177 C   0  0  0  0  0  0  0  0  0  0  0  0
  157.5936  135.0297  189.0007 C   0  0  0  0  0  0  0  0  0  0  0  0
  156.8763  135.7811  188.0483 O   0  0  0  0  0  0  0  0  0  0  0  0
 43 44  1  0  0  0
 44 24  1  0  0  0
 24 25  2  0  0  0
 25 26  1  0  0  0
 26 27  2  0  0  0
 27 28  1  0  0  0
 28 29  2  0  0  0
 29  1  1  0  0  0
  1  3  1  0  0  0
  3  4  2  0  0  0
  4  5  1  0  0  0
  5  6  2  0  0  0
  6  7  1  0  0  0
  6  8  1  0  0  0
  8 10  1  0  0  0
 10 12  1  0  0  0
 12 13  2  0  0  0
 13 14  1  0  0  0
 14 15  2  0  0  0
 15 16  1  0  0  0
 16 17  2  0  0  0
 17 18  1  0  0  0
 18 19  2  0  0  0
 18 20  2  0  0  0
 18 21  1  0  0  0
 21 22  1  0  0  0
 21 23  1  0  0  0
  8  9  2  0  0  0
 26 30  1  0  0  0
 30 31  1  0  0  0
 31 32  1  0  0  0
 32 33  1  0  0  0
 33 34  1  0  0  0
 34 35  1  0  0  0
 33 36  1  0  0  0
 36 37  1  0  0  0
 37 38  1  0  0  0
 38 39  1  0  0  0
 39 40  1  0  0  0
 39 41  1  0  0  0
 41 42  1  0  0  0
 29 24  1  0  0  0
  9  3  1  0  0  0
 35 30  1  0  0  0
 42 36  1  0  0  0
 17 12  1  0  0  0
  1  2  1  0  0  0
 10 11  1  0  0  0
M  END
> <minimizedAffinity>
-9.46312

> <CNNscore>
0.1975227445

> <CNNaffinity>
6.7288503647

> <CNN_VS>
1.3291009665

> <CNNaffinity_variance>
0.2082805336

$$$$
[H]c1nc(N([H])c2c([H])c(N([H])C(=O)c3c([H])c([H])c(C([H])([H])N4C([H])([H])C([H])([H])N(C([H])([H])[H])C([H])([H])C4([H])[H])c([H])c3[H])c([H])c([H])c2C([H])([H])[H])nc(-c2c([H])nc([H])c([H])c2[H])c1[H]


 39 43  0  0  0  0  0  0  0  0999 V2000
  150.3565  137.9790  182.8590 C   0  0  0  0  0  0  0  0  0  0  0  0
  149.3788  138.0998  181.9012 C   0  0  0  0  0  0  0  0  0  0  0  0
  149.6214  138.7963  180.7202 C   0  0  0  0  0  0  0  0  0  0  0  0
  150.8189  139.3901  180.4437 C   0  0  0  0  0  0  0  0  0  0  0  0
  151.0066  140.1215  179.1533 C   0  0  0  0  0  0  0  0  0  0  0  0
  151.8428  139.2883  181.3971 C   0  0  0  0  0  0  0  0  0  0  0  0
  151.5877  138.6000  182.5536 C   0  0  0  0  0  0  0  0  0  0  0  0
  149.1091  137.4399  184.9679 C   0  0  0  0  0  0  0  0  0  0  0  0
  148.1225  138.1828  184.7564 O   0  0  0  0  0  0  0  0  0  0  0  0
  150.1985  137.3113  184.0975 N   0  0  0  0  0  0  0  0  0  0  0  0
  150.9977  136.6549  184.3654 H   0  0  0  0  0  0  0  0  0  0  0  0
  149.0059  135.2352  188.5601 C   0  0  0  0  0  0  0  0  0  0  0  0
  147.9725  136.0850  188.2374 C   0  0  0  0  0  0  0  0  0  0  0  0
  147.9827  136.8234  187.0640 C   0  0  0  0  0  0  0  0  0  0  0  0
  149.0579  136.6843  186.2255 C   0  0  0  0  0  0  0  0  0  0  0  0
  150.0851  135.8251  186.5694 C   0  0  0  0  0  0  0  0  0  0  0  0
  150.0876  135.0886  187.7274 C   0  0  0  0  0  0  0  0  0  0  0  0
  148.9049  134.4807  189.8307 C   0  0  0  0  0  0  0  0  0  0  0  0
  150.2441  135.0782  194.8064 C   0  0  0  0  0  0  0  0  0  0  0  0
  149.6319  135.4227  193.5378 N   0  0  0  0  0  0  0  0  0  0  0  0
  149.0459  134.2613  192.8943 C   0  0  0  0  0  0  0  0  0  0  0  0
  150.0280  133.8134  191.8332 C   0  0  0  0  0  0  0  0  0  0  0  0
  150.0423  134.7556  190.7013 N   0  0  0  0  0  0  0  0  0  0  0  0
  149.9454  136.1072  191.2509 C   0  0  0  0  0  0  0  0  0  0  0  0
  150.5369  136.1103  192.6596 C   0  0  0  0  0  0  0  0  0  0  0  0
  153.0578  139.9051  181.0914 N   0  0  0  0  0  0  0  0  0  0  0  0
  153.4836  139.6592  180.1218 H   0  0  0  0  0  0  0  0  0  0  0  0
  153.8460  140.8080  181.8311 C   0  0  0  0  0  0  0  0  0  0  0  0
  153.3100  142.0220  182.1917 N   0  0  0  0  0  0  0  0  0  0  0  0
  153.9498  142.9464  182.8816 C   0  0  0  0  0  0  0  0  0  0  0  0
  155.2612  142.7100  183.2899 C   0  0  0  0  0  0  0  0  0  0  0  0
  155.8143  141.4983  182.9372 C   0  0  0  0  0  0  0  0  0  0  0  0
  155.0934  140.6093  182.2316 N   0  0  0  0  0  0  0  0  0  0  0  0
  157.1988  141.1891  183.3400 C   0  0  0  0  0  0  0  0  0  0  0  0
  157.6876  139.9029  183.3122 C   0  0  0  0  0  0  0  0  0  0  0  0
  158.9924  139.6529  183.6973 C   0  0  0  0  0  0  0  0  0  0  0  0
  159.8174  140.6643  184.1097 C   0  0  0  0  0  0  0  0  0  0  0  0
  159.3450  141.9033  184.1360 N   0  0  0  0  0  0  0  0  0  0  0  0
  158.0551  142.1725  183.7584 C   0  0  0  0  0  0  0  0  0  0  0  0
 19 20  1  0  0  0
 20 21  1  0  0  0
 21 22  1  0  0  0
 22 23  1  0  0  0
 23 18  1  0  0  0
 18 12  1  0  0  0
 12 13  2  0  0  0
 13 14  1  0  0  0
 14 15  2  0  0  0
 15 16  1  0  0  0
 16 17  2  0  0  0
 15  8  1  0  0  0
  8  9  2  0  0  0
  8 10  1  0  0  0
 10  1  1  0  0  0
  1  2  2  0  0  0
  2  3  1  0  0  0
  3  4  2  0  0  0
  4  5  1  0  0  0
  4  6  1  0  0  0
  6 26  1  0  0  0
 26 28  1  0  0  0
 28 29  2  0  0  0
 29 30  1  0  0  0
 30 31  2  0  0  0
 31 32  1  0  0  0
 32 33  2  0  0  0
 32 34  1  0  0  0
 34 35  2  0  0  0
 35 36  1  0  0  0
 36 37  2  0  0  0
 37 38  1  0  0  0
 38 39  2  0  0  0
  6  7  2  0  0  0
 23 24  1  0  0  0
 24 25  1  0  0  0
 25 20  1  0  0  0
 17 12  1  0  0  0
  7  1  1  0  0  0
 33 28  1  0  0  0
 39 34  1  0  0  0
 10 11  1  0  0  0
 26 27  1  0  0  0
M  END
> <minimizedAffinity>
-8.27285

> <CNNscore>
0.3899873793

> <CNNaffinity>
6.1216106415

> <CNN_VS>
2.3873507977

> <CNNaffinity_variance>
0.0230800100

$$$$
[H]c1nc(N([H])c2c([H])c(N([H])C(=O)c3c([H])c([H])c(C([H])([H])N4C([H])([H])C([H])([H])N(C([H])([H])[H])C([H])([H])C4([H])[H])c([H])c3[H])c([H])c([H])c2C([H])([H])[H])nc(-c2c([H])nc([H])c([H])c2[H])c1[H]


 39 43  0  0  0  0  0  0  0  0999 V2000
  152.8665  136.9563  183.8601 C   0  0  0  0  0  0  0  0  0  0  0  0
  151.5551  136.6826  183.5549 C   0  0  0  0  0  0  0  0  0  0  0  0
  150.8423  137.4990  182.6805 C   0  0  0  0  0  0  0  0  0  0  0  0
  151.3880  138.5983  182.0834 C   0  0  0  0  0  0  0  0  0  0  0  0
  150.5611  139.4282  181.1545 C   0  0  0  0  0  0  0  0  0  0  0  0
  152.7253  138.9105  182.3696 C   0  0  0  0  0  0  0  0  0  0  0  0
  153.4122  138.0975  183.2319 C   0  0  0  0  0  0  0  0  0  0  0  0
  154.2937  134.9830  184.4628 C   0  0  0  0  0  0  0  0  0  0  0  0
  154.2197  134.3971  183.3576 O   0  0  0  0  0  0  0  0  0  0  0  0
  153.6650  136.2003  184.7521 N   0  0  0  0  0  0  0  0  0  0  0  0
  153.7824  136.6224  185.7264 H   0  0  0  0  0  0  0  0  0  0  0  0
  156.6194  133.0584  187.4060 C   0  0  0  0  0  0  0  0  0  0  0  0
  156.6104  132.5892  186.1122 C   0  0  0  0  0  0  0  0  0  0  0  0
  155.8526  133.2017  185.1259 C   0  0  0  0  0  0  0  0  0  0  0  0
  155.1058  134.2967  185.4750 C   0  0  0  0  0  0  0  0  0  0  0  0
  155.1295  134.7511  186.7807 C   0  0  0  0  0  0  0  0  0  0  0  0
  155.8749  134.1543  187.7664 C   0  0  0  0  0  0  0  0  0  0  0  0
  157.4655  132.3451  188.3905 C   0  0  0  0  0  0  0  0  0  0  0  0
  158.7061  131.4836  193.3531 C   0  0  0  0  0  0  0  0  0  0  0  0
  158.1967  131.1744  192.0310 N   0  0  0  0  0  0  0  0  0  0  0  0
  159.0064  131.7817  190.9908 C   0  0  0  0  0  0  0  0  0  0  0  0
  158.2686  133.0233  190.5380 C   0  0  0  0  0  0  0  0  0  0  0  0
  157.0716  132.6662  189.7577 N   0  0  0  0  0  0  0  0  0  0  0  0
  156.4599  131.5014  190.3961 C   0  0  0  0  0  0  0  0  0  0  0  0
  156.8090  131.5142  191.8834 C   0  0  0  0  0  0  0  0  0  0  0  0
  153.2602  140.0405  181.7473 N   0  0  0  0  0  0  0  0  0  0  0  0
  152.9430  140.2117  180.7216 H   0  0  0  0  0  0  0  0  0  0  0  0
  154.1556  141.0184  182.2221 C   0  0  0  0  0  0  0  0  0  0  0  0
  153.9057  141.6212  183.4326 N   0  0  0  0  0  0  0  0  0  0  0  0
  154.6694  142.5480  183.9781 C   0  0  0  0  0  0  0  0  0  0  0  0
  155.8171  142.9695  183.3091 C   0  0  0  0  0  0  0  0  0  0  0  0
  156.0831  142.3760  182.0943 C   0  0  0  0  0  0  0  0  0  0  0  0
  155.2522  141.4375  181.6075 N   0  0  0  0  0  0  0  0  0  0  0  0
  157.2829  142.7796  181.3380 C   0  0  0  0  0  0  0  0  0  0  0  0
  157.7514  142.0362  180.2787 C   0  0  0  0  0  0  0  0  0  0  0  0
  158.8802  142.4480  179.5935 C   0  0  0  0  0  0  0  0  0  0  0  0
  159.5493  143.5885  179.9472 C   0  0  0  0  0  0  0  0  0  0  0  0
  159.0967  144.3039  180.9682 N   0  0  0  0  0  0  0  0  0  0  0  0
  157.9799  143.9135  181.6604 C   0  0  0  0  0  0  0  0  0  0  0  0
 19 20  1  0  0  0
 20 21  1  0  0  0
 21 22  1  0  0  0
 22 23  1  0  0  0
 23 18  1  0  0  0
 18 12  1  0  0  0
 12 13  2  0  0  0
 13 14  1  0  0  0
 14 15  2  0  0  0
 15 16  1  0  0  0
 16 17  2  0  0  0
 15  8  1  0  0  0
  8  9  2  0  0  0
  8 10  1  0  0  0
 10  1  1  0  0  0
  1  2  2  0  0  0
  2  3  1  0  0  0
  3  4  2  0  0  0
  4  5  1  0  0  0
  4  6  1  0  0  0
  6 26  1  0  0  0
 26 28  1  0  0  0
 28 29  2  0  0  0
 29 30  1  0  0  0
 30 31  2  0  0  0
 31 32  1  0  0  0
 32 33  2  0  0  0
 32 34  1  0  0  0
 34 35  2  0  0  0
 35 36  1  0  0  0
 36 37  2  0  0  0
 37 38  1  0  0  0
 38 39  2  0  0  0
  6  7  2  0  0  0
 23 24  1  0  0  0
 24 25  1  0  0  0
 25 20  1  0  0  0
 17 12  1  0  0  0
  7  1  1  0  0  0
 33 28  1  0  0  0
 39 34  1  0  0  0
 10 11  1  0  0  0
 26 27  1  0  0  0
M  END
> <minimizedAffinity>
-7.14066

> <CNNscore>
0.2284950316

> <CNNaffinity>
6.0037837029

> <CNN_VS>
1.3718347549

> <CNNaffinity_variance>
0.0305079408

$$$$
[H]c1nc(N([H])c2c([H])c(N([H])C(=O)c3c([H])c([H])c(C([H])([H])N4C([H])([H])C([H])([H])N(C([H])([H])[H])C([H])([H])C4([H])[H])c([H])c3[H])c([H])c([H])c2C([H])([H])[H])nc(-c2c([H])nc([H])c([H])c2[H])c1[H]


 39 43  0  0  0  0  0  0  0  0999 V2000
  152.2840  139.7346  180.8654 C   0  0  0  0  0  0  0  0  0  0  0  0
  151.6887  140.1204  179.6887 C   0  0  0  0  0  0  0  0  0  0  0  0
  150.4011  139.6967  179.3699 C   0  0  0  0  0  0  0  0  0  0  0  0
  149.6639  138.8896  180.1872 C   0  0  0  0  0  0  0  0  0  0  0  0
  148.2868  138.4751  179.7786 C   0  0  0  0  0  0  0  0  0  0  0  0
  150.2373  138.4746  181.3983 C   0  0  0  0  0  0  0  0  0  0  0  0
  151.5047  138.9001  181.6967 C   0  0  0  0  0  0  0  0  0  0  0  0
  153.9518  141.2619  181.9516 C   0  0  0  0  0  0  0  0  0  0  0  0
  153.1416  142.1538  182.2953 O   0  0  0  0  0  0  0  0  0  0  0  0
  153.5934  140.0945  181.2663 N   0  0  0  0  0  0  0  0  0  0  0  0
  154.3564  139.3917  181.0111 H   0  0  0  0  0  0  0  0  0  0  0  0
  157.9626  142.0516  182.9836 C   0  0  0  0  0  0  0  0  0  0  0  0
  157.4560  140.7767  183.0928 C   0  0  0  0  0  0  0  0  0  0  0  0
  156.1403  140.4903  182.7627 C   0  0  0  0  0  0  0  0  0  0  0  0
  155.3494  141.5186  182.3204 C   0  0  0  0  0  0  0  0  0  0  0  0
  155.8788  142.7918  182.2183 C   0  0  0  0  0  0  0  0  0  0  0  0
  157.1790  143.0889  182.5418 C   0  0  0  0  0  0  0  0  0  0  0  0
  159.3820  142.2617  183.3509 C   0  0  0  0  0  0  0  0  0  0  0  0
  162.6379  143.1157  187.2979 C   0  0  0  0  0  0  0  0  0  0  0  0
  161.7283  142.3625  186.4564 N   0  0  0  0  0  0  0  0  0  0  0  0
  161.9075  142.6853  185.0528 C   0  0  0  0  0  0  0  0  0  0  0  0
  160.7997  143.6492  184.6858 C   0  0  0  0  0  0  0  0  0  0  0  0
  159.5010  142.9571  184.6275 N   0  0  0  0  0  0  0  0  0  0  0  0
  159.4610  141.9998  185.7322 C   0  0  0  0  0  0  0  0  0  0  0  0
  160.3576  142.5099  186.8593 C   0  0  0  0  0  0  0  0  0  0  0  0
  149.4637  137.6485  182.2164 N   0  0  0  0  0  0  0  0  0  0  0  0
  149.3480  136.6215  181.8792 H   0  0  0  0  0  0  0  0  0  0  0  0
  148.7930  137.9147  183.4259 C   0  0  0  0  0  0  0  0  0  0  0  0
  147.8471  138.9124  183.4594 N   0  0  0  0  0  0  0  0  0  0  0  0
  147.1567  139.2523  184.5306 C   0  0  0  0  0  0  0  0  0  0  0  0
  147.3752  138.5747  185.7287 C   0  0  0  0  0  0  0  0  0  0  0  0
  148.3198  137.5717  185.7134 C   0  0  0  0  0  0  0  0  0  0  0  0
  148.9810  137.2871  184.5777 N   0  0  0  0  0  0  0  0  0  0  0  0
  148.5963  136.8178  186.9503 C   0  0  0  0  0  0  0  0  0  0  0  0
  147.7128  136.8147  188.0055 C   0  0  0  0  0  0  0  0  0  0  0  0
  148.0076  136.0946  189.1491 C   0  0  0  0  0  0  0  0  0  0  0  0
  149.1686  135.3778  189.2576 C   0  0  0  0  0  0  0  0  0  0  0  0
  150.0192  135.3817  188.2400 N   0  0  0  0  0  0  0  0  0  0  0  0
  149.7461  136.0887  187.0977 C   0  0  0  0  0  0  0  0  0  0  0  0
 19 20  1  0  0  0
 20 21  1  0  0  0
 21 22  1  0  0  0
 22 23  1  0  0  0
 23 18  1  0  0  0
 18 12  1  0  0  0
 12 13  2  0  0  0
 13 14  1  0  0  0
 14 15  2  0  0  0
 15 16  1  0  0  0
 16 17  2  0  0  0
 15  8  1  0  0  0
  8  9  2  0  0  0
  8 10  1  0  0  0
 10  1  1  0  0  0
  1  2  2  0  0  0
  2  3  1  0  0  0
  3  4  2  0  0  0
  4  5  1  0  0  0
  4  6  1  0  0  0
  6 26  1  0  0  0
 26 28  1  0  0  0
 28 29  2  0  0  0
 29 30  1  0  0  0
 30 31  2  0  0  0
 31 32  1  0  0  0
 32 33  2  0  0  0
 32 34  1  0  0  0
 34 35  2  0  0  0
 35 36  1  0  0  0
 36 37  2  0  0  0
 37 38  1  0  0  0
 38 39  2  0  0  0
  6  7  2  0  0  0
 23 24  1  0  0  0
 24 25  1  0  0  0
 25 20  1  0  0  0
 17 12  1  0  0  0
  7  1  1  0  0  0
 33 28  1  0  0  0
 39 34  1  0  0  0
 10 11  1  0  0  0
 26 27  1  0  0  0
M  END
> <minimizedAffinity>
-9.23811

> <CNNscore>
0.2072886676

> <CNNaffinity>
6.3427705765

> <CNN_VS>
1.3147844076

> <CNNaffinity_variance>
0.0193072818

$$$$
[H]c1nc(N([H])c2c([H])c(N([H])C(=O)c3c([H])c([H])c(C([H])([H])N4C([H])([H])C([H])([H])N(C([H])([H])[H])C([H])([H])C4([H])[H])c([H])c3[H])c([H])c([H])c2C([H])([H])[H])nc(-c2c([H])nc([H])c([H])c2[H])c1[H]


 39 43  0  0  0  0  0  0  0  0999 V2000
  152.2011  137.5085  184.2584 C   0  0  0  0  0  0  0  0  0  0  0  0
  151.1202  137.0175  183.5666 C   0  0  0  0  0  0  0  0  0  0  0  0
  150.8268  137.4769  182.2853 C   0  0  0  0  0  0  0  0  0  0  0  0
  151.5769  138.4225  181.6481 C   0  0  0  0  0  0  0  0  0  0  0  0
  151.2009  138.8671  180.2711 C   0  0  0  0  0  0  0  0  0  0  0  0
  152.6895  138.9478  182.3219 C   0  0  0  0  0  0  0  0  0  0  0  0
  152.9641  138.4854  183.5817 C   0  0  0  0  0  0  0  0  0  0  0  0
  152.8954  137.9858  186.6215 C   0  0  0  0  0  0  0  0  0  0  0  0
  152.9140  139.2351  186.5263 O   0  0  0  0  0  0  0  0  0  0  0  0
  152.5666  137.1211  185.5704 N   0  0  0  0  0  0  0  0  0  0  0  0
  152.5824  136.0674  185.7455 H   0  0  0  0  0  0  0  0  0  0  0  0
  153.9567  136.5187  190.4290 C   0  0  0  0  0  0  0  0  0  0  0  0
  153.2315  135.7350  189.5606 C   0  0  0  0  0  0  0  0  0  0  0  0
  152.8672  136.1940  188.3041 C   0  0  0  0  0  0  0  0  0  0  0  0
  153.2514  137.4596  187.9450 C   0  0  0  0  0  0  0  0  0  0  0  0
  153.9795  138.2299  188.8329 C   0  0  0  0  0  0  0  0  0  0  0  0
  154.3464  137.7880  190.0793 C   0  0  0  0  0  0  0  0  0  0  0  0
  154.3076  135.9416  191.7472 C   0  0  0  0  0  0  0  0  0  0  0  0
  149.6715  134.6770  193.7005 C   0  0  0  0  0  0  0  0  0  0  0  0
  150.6141  135.2009  192.7310 N   0  0  0  0  0  0  0  0  0  0  0  0
  151.8157  134.3899  192.6617 C   0  0  0  0  0  0  0  0  0  0  0  0
  152.8721  135.1121  193.4700 C   0  0  0  0  0  0  0  0  0  0  0  0
  153.3353  136.3202  192.7663 N   0  0  0  0  0  0  0  0  0  0  0  0
  152.1676  136.9448  192.1461 C   0  0  0  0  0  0  0  0  0  0  0  0
  150.9254  136.5843  192.9594 C   0  0  0  0  0  0  0  0  0  0  0  0
  153.4401  139.9146  181.6495 N   0  0  0  0  0  0  0  0  0  0  0  0
  153.4034  139.8727  180.5638 H   0  0  0  0  0  0  0  0  0  0  0  0
  154.2528  140.9560  182.1379 C   0  0  0  0  0  0  0  0  0  0  0  0
  153.7066  142.2069  182.3052 N   0  0  0  0  0  0  0  0  0  0  0  0
  154.3669  143.2572  182.7530 C   0  0  0  0  0  0  0  0  0  0  0  0
  155.7130  143.1264  183.0896 C   0  0  0  0  0  0  0  0  0  0  0  0
  156.2769  141.8796  182.9281 C   0  0  0  0  0  0  0  0  0  0  0  0
  155.5333  140.8595  182.4650 N   0  0  0  0  0  0  0  0  0  0  0  0
  157.6977  141.6776  183.2671 C   0  0  0  0  0  0  0  0  0  0  0  0
  158.1789  140.4475  183.6538 C   0  0  0  0  0  0  0  0  0  0  0  0
  159.5187  140.2977  183.9634 C   0  0  0  0  0  0  0  0  0  0  0  0
  160.3862  141.3542  183.8938 C   0  0  0  0  0  0  0  0  0  0  0  0
  159.9212  142.5390  183.5210 N   0  0  0  0  0  0  0  0  0  0  0  0
  158.5970  142.7088  183.2099 C   0  0  0  0  0  0  0  0  0  0  0  0
 19 20  1  0  0  0
 20 21  1  0  0  0
 21 22  1  0  0  0
 22 23  1  0  0  0
 23 18  1  0  0  0
 18 12  1  0  0  0
 12 13  2  0  0  0
 13 14  1  0  0  0
 14 15  2  0  0  0
 15 16  1  0  0  0
 16 17  2  0  0  0
 15  8  1  0  0  0
  8  9  2  0  0  0
  8 10  1  0  0  0
 10  1  1  0  0  0
  1  2  2  0  0  0
  2  3  1  0  0  0
  3  4  2  0  0  0
  4  5  1  0  0  0
  4  6  1  0  0  0
  6 26  1  0  0  0
 26 28  1  0  0  0
 28 29  2  0  0  0
 29 30  1  0  0  0
 30 31  2  0  0  0
 31 32  1  0  0  0
 32 33  2  0  0  0
 32 34  1  0  0  0
 34 35  2  0  0  0
 35 36  1  0  0  0
 36 37  2  0  0  0
 37 38  1  0  0  0
 38 39  2  0  0  0
  6  7  2  0  0  0
 23 24  1  0  0  0
 24 25  1  0  0  0
 25 20  1  0  0  0
 17 12  1  0  0  0
  7  1  1  0  0  0
 33 28  1  0  0  0
 39 34  1  0  0  0
 10 11  1  0  0  0
 26 27  1  0  0  0
M  END
> <minimizedAffinity>
-8.69443

> <CNNscore>
0.2069033831

> <CNNaffinity>
6.2050652504

> <CNN_VS>
1.2838490009

> <CNNaffinity_variance>
0.0877630189

$$$$
[H]c1nc(N([H])c2c([H])c(N([H])C(=O)c3c([H])c([H])c(C([H])([H])N4C([H])([H])C([H])([H])N(C([H])([H])[H])C([H])([H])C4([H])[H])c([H])c3[H])c([H])c([H])c2C([H])([H])[H])nc(-c2c([H])nc([H])c([H])c2[H])c1[H]


 39 43  0  0  0  0  0  0  0  0999 V2000
  152.1585  137.2750  183.0237 C   0  0  0  0  0  0  0  0  0  0  0  0
  151.1090  136.9166  182.2124 C   0  0  0  0  0  0  0  0  0  0  0  0
  150.7689  137.6894  181.1052 C   0  0  0  0  0  0  0  0  0  0  0  0
  151.4409  138.8267  180.7618 C   0  0  0  0  0  0  0  0  0  0  0  0
  151.0186  139.6058  179.5577 C   0  0  0  0  0  0  0  0  0  0  0  0
  152.5193  139.2254  181.5655 C   0  0  0  0  0  0  0  0  0  0  0  0
  152.8406  138.4542  182.6510 C   0  0  0  0  0  0  0  0  0  0  0  0
  153.6462  135.6815  184.2653 C   0  0  0  0  0  0  0  0  0  0  0  0
  154.3977  135.3936  183.3049 O   0  0  0  0  0  0  0  0  0  0  0  0
  152.5654  136.5679  184.1809 N   0  0  0  0  0  0  0  0  0  0  0  0
  151.9772  136.7483  185.0542 H   0  0  0  0  0  0  0  0  0  0  0  0
  154.5722  133.8107  187.9284 C   0  0  0  0  0  0  0  0  0  0  0  0
  154.9680  133.2422  186.7392 C   0  0  0  0  0  0  0  0  0  0  0  0
  154.6744  133.8351  185.5208 C   0  0  0  0  0  0  0  0  0  0  0  0
  153.9735  135.0128  185.5306 C   0  0  0  0  0  0  0  0  0  0  0  0
  153.5856  135.5664  186.7368 C   0  0  0  0  0  0  0  0  0  0  0  0
  153.8695  134.9901  187.9494 C   0  0  0  0  0  0  0  0  0  0  0  0
  154.9380  133.1102  189.1811 C   0  0  0  0  0  0  0  0  0  0  0  0
  158.7265  131.4868  192.3307 C   0  0  0  0  0  0  0  0  0  0  0  0
  157.7401  132.4018  191.7897 N   0  0  0  0  0  0  0  0  0  0  0  0
  156.5189  131.7118  191.4169 C   0  0  0  0  0  0  0  0  0  0  0  0
  156.5693  131.5241  189.9158 C   0  0  0  0  0  0  0  0  0  0  0  0
  156.3639  132.8060  189.2203 N   0  0  0  0  0  0  0  0  0  0  0  0
  157.0817  133.8354  189.9710 C   0  0  0  0  0  0  0  0  0  0  0  0
  158.2554  133.1848  190.7015 C   0  0  0  0  0  0  0  0  0  0  0  0
  153.1898  140.3927  181.1940 N   0  0  0  0  0  0  0  0  0  0  0  0
  153.0563  140.7082  180.1623 H   0  0  0  0  0  0  0  0  0  0  0  0
  154.0254  141.2519  181.9338 C   0  0  0  0  0  0  0  0  0  0  0  0
  153.5133  142.4373  182.4067 N   0  0  0  0  0  0  0  0  0  0  0  0
  154.1974  143.3201  183.1084 C   0  0  0  0  0  0  0  0  0  0  0  0
  155.5342  143.0666  183.4099 C   0  0  0  0  0  0  0  0  0  0  0  0
  156.0640  141.8831  182.9438 C   0  0  0  0  0  0  0  0  0  0  0  0
  155.2977  141.0360  182.2343 N   0  0  0  0  0  0  0  0  0  0  0  0
  157.4734  141.5576  183.2303 C   0  0  0  0  0  0  0  0  0  0  0  0
  157.8565  140.2955  183.6235 C   0  0  0  0  0  0  0  0  0  0  0  0
  159.1888  140.0290  183.8826 C   0  0  0  0  0  0  0  0  0  0  0  0
  160.1451  141.0001  183.7562 C   0  0  0  0  0  0  0  0  0  0  0  0
  159.7746  142.2159  183.3772 N   0  0  0  0  0  0  0  0  0  0  0  0
  158.4595  142.5009  183.1154 C   0  0  0  0  0  0  0  0  0  0  0  0
 19 20  1  0  0  0
 20 21  1  0  0  0
 21 22  1  0  0  0
 22 23  1  0  0  0
 23 18  1  0  0  0
 18 12  1  0  0  0
 12 13  2  0  0  0
 13 14  1  0  0  0
 14 15  2  0  0  0
 15 16  1  0  0  0
 16 17  2  0  0  0
 15  8  1  0  0  0
  8  9  2  0  0  0
  8 10  1  0  0  0
 10  1  1  0  0  0
  1  2  2  0  0  0
  2  3  1  0  0  0
  3  4  2  0  0  0
  4  5  1  0  0  0
  4  6  1  0  0  0
  6 26  1  0  0  0
 26 28  1  0  0  0
 28 29  2  0  0  0
 29 30  1  0  0  0
 30 31  2  0  0  0
 31 32  1  0  0  0
 32 33  2  0  0  0
 32 34  1  0  0  0
 34 35  2  0  0  0
 35 36  1  0  0  0
 36 37  2  0  0  0
 37 38  1  0  0  0
 38 39  2  0  0  0
  6  7  2  0  0  0
 23 24  1  0  0  0
 24 25  1  0  0  0
 25 20  1  0  0  0
 17 12  1  0  0  0
  7  1  1  0  0  0
 33 28  1  0  0  0
 39 34  1  0  0  0
 10 11  1  0  0  0
 26 27  1  0  0  0
M  END
> <minimizedAffinity>
-7.45252

> <CNNscore>
0.2016133517

> <CNNaffinity>
6.1773366928

> <CNN_VS>
1.2454335690

> <CNNaffinity_variance>
0.0473714918

$$$$
[H]c1nc(N([H])c2c([H])c(N([H])C(=O)c3c([H])c([H])c(C([H])([H])N4C([H])([H])C([H])([H])N(C([H])([H])[H])C([H])([H])C4([H])[H])c([H])c3[H])c([H])c([H])c2C([H])([H])[H])nc(-c2c([H])nc([H])c([H])c2[H])c1[H]


 39 43  0  0  0  0  0  0  0  0999 V2000
  151.6208  137.5944  183.0788 C   0  0  0  0  0  0  0  0  0  0  0  0
  150.5933  137.3253  182.2073 C   0  0  0  0  0  0  0  0  0  0  0  0
  150.4558  138.0469  181.0243 C   0  0  0  0  0  0  0  0  0  0  0  0
  151.3136  139.0449  180.6622 C   0  0  0  0  0  0  0  0  0  0  0  0
  151.1032  139.7766  179.3755 C   0  0  0  0  0  0  0  0  0  0  0  0
  152.3761  139.3490  181.5260 C   0  0  0  0  0  0  0  0  0  0  0  0
  152.4969  138.6300  182.6857 C   0  0  0  0  0  0  0  0  0  0  0  0
  150.8764  136.7535  185.3223 C   0  0  0  0  0  0  0  0  0  0  0  0
  149.6973  137.1728  185.2595 O   0  0  0  0  0  0  0  0  0  0  0  0
  151.8302  136.9322  184.3127 N   0  0  0  0  0  0  0  0  0  0  0  0
  152.8140  136.5421  184.4581 H   0  0  0  0  0  0  0  0  0  0  0  0
  151.8291  134.6503  188.8499 C   0  0  0  0  0  0  0  0  0  0  0  0
  151.7961  136.0261  188.8497 C   0  0  0  0  0  0  0  0  0  0  0  0
  151.4883  136.7422  187.7031 C   0  0  0  0  0  0  0  0  0  0  0  0
  151.2151  136.0387  186.5590 C   0  0  0  0  0  0  0  0  0  0  0  0
  151.2541  134.6568  186.5816 C   0  0  0  0  0  0  0  0  0  0  0  0
  151.5573  133.9359  187.7093 C   0  0  0  0  0  0  0  0  0  0  0  0
  152.1595  133.9703  190.1236 C   0  0  0  0  0  0  0  0  0  0  0  0
  156.5139  136.0881  191.9844 C   0  0  0  0  0  0  0  0  0  0  0  0
  155.3795  135.9318  191.0948 N   0  0  0  0  0  0  0  0  0  0  0  0
  154.1812  135.5490  191.8188 C   0  0  0  0  0  0  0  0  0  0  0  0
  154.0176  134.0568  191.6259 C   0  0  0  0  0  0  0  0  0  0  0  0
  153.5959  133.7496  190.2486 N   0  0  0  0  0  0  0  0  0  0  0  0
  154.3265  134.6456  189.3531 C   0  0  0  0  0  0  0  0  0  0  0  0
  155.6509  135.0285  190.0116 C   0  0  0  0  0  0  0  0  0  0  0  0
  153.2390  140.3746  181.1338 N   0  0  0  0  0  0  0  0  0  0  0  0
  153.3061  140.5545  180.0638 H   0  0  0  0  0  0  0  0  0  0  0  0
  154.0545  141.2354  181.8939 C   0  0  0  0  0  0  0  0  0  0  0  0
  153.5208  142.4073  182.3765 N   0  0  0  0  0  0  0  0  0  0  0  0
  154.1849  143.2902  183.0971 C   0  0  0  0  0  0  0  0  0  0  0  0
  155.5218  143.0511  183.4100 C   0  0  0  0  0  0  0  0  0  0  0  0
  156.0730  141.8812  182.9344 C   0  0  0  0  0  0  0  0  0  0  0  0
  155.3264  141.0331  182.2055 N   0  0  0  0  0  0  0  0  0  0  0  0
  157.4837  141.5714  183.2321 C   0  0  0  0  0  0  0  0  0  0  0  0
  157.8952  140.2902  183.5205 C   0  0  0  0  0  0  0  0  0  0  0  0
  159.2277  140.0394  183.7941 C   0  0  0  0  0  0  0  0  0  0  0  0
  160.1562  141.0450  183.7848 C   0  0  0  0  0  0  0  0  0  0  0  0
  159.7583  142.2793  183.5067 N   0  0  0  0  0  0  0  0  0  0  0  0
  158.4426  142.5492  183.2327 C   0  0  0  0  0  0  0  0  0  0  0  0
 19 20  1  0  0  0
 20 21  1  0  0  0
 21 22  1  0  0  0
 22 23  1  0  0  0
 23 18  1  0  0  0
 18 12  1  0  0  0
 12 13  2  0  0  0
 13 14  1  0  0  0
 14 15  2  0  0  0
 15 16  1  0  0  0
 16 17  2  0  0  0
 15  8  1  0  0  0
  8  9  2  0  0  0
  8 10  1  0  0  0
 10  1  1  0  0  0
  1  2  2  0  0  0
  2  3  1  0  0  0
  3  4  2  0  0  0
  4  5  1  0  0  0
  4  6  1  0  0  0
  6 26  1  0  0  0
 26 28  1  0  0  0
 28 29  2  0  0  0
 29 30  1  0  0  0
 30 31  2  0  0  0
 31 32  1  0  0  0
 32 33  2  0  0  0
 32 34  1  0  0  0
 34 35  2  0  0  0
 35 36  1  0  0  0
 36 37  2  0  0  0
 37 38  1  0  0  0
 38 39  2  0  0  0
  6  7  2  0  0  0
 23 24  1  0  0  0
 24 25  1  0  0  0
 25 20  1  0  0  0
 17 12  1  0  0  0
  7  1  1  0  0  0
 33 28  1  0  0  0
 39 34  1  0  0  0
 10 11  1  0  0  0
 26 27  1  0  0  0
M  END
> <minimizedAffinity>
-7.91646

> <CNNscore>
0.1875805706

> <CNNaffinity>
6.1749839783

> <CNN_VS>
1.1583070755

> <CNNaffinity_variance>
0.0603321604

$$$$
[H]c1nc(N([H])c2c([H])c(N([H])C(=O)c3c([H])c([H])c(C([H])([H])N4C([H])([H])C([H])([H])N(C([H])([H])[H])C([H])([H])C4([H])[H])c([H])c3[H])c([H])c([H])c2C([H])([H])[H])nc(-c2c([H])nc([H])c([H])c2[H])c1[H]


 39 43  0  0  0  0  0  0  0  0999 V2000
  153.4395  138.2887  184.7485 C   0  0  0  0  0  0  0  0  0  0  0  0
  152.4752  137.8919  183.8538 C   0  0  0  0  0  0  0  0  0  0  0  0
  152.3382  138.5314  182.6245 C   0  0  0  0  0  0  0  0  0  0  0  0
  153.1351  139.5697  182.2375 C   0  0  0  0  0  0  0  0  0  0  0  0
  152.9295  140.2078  180.9011 C   0  0  0  0  0  0  0  0  0  0  0  0
  154.1321  140.0036  183.1237 C   0  0  0  0  0  0  0  0  0  0  0  0
  154.2534  139.3640  184.3290 C   0  0  0  0  0  0  0  0  0  0  0  0
  153.2315  138.2670  187.2486 C   0  0  0  0  0  0  0  0  0  0  0  0
  152.6290  139.3598  187.3616 O   0  0  0  0  0  0  0  0  0  0  0  0
  153.6415  137.7168  186.0279 N   0  0  0  0  0  0  0  0  0  0  0  0
  154.1541  136.7795  186.0311 H   0  0  0  0  0  0  0  0  0  0  0  0
  154.0281  136.3046  190.8941 C   0  0  0  0  0  0  0  0  0  0  0  0
  153.2643  135.6905  189.9279 C   0  0  0  0  0  0  0  0  0  0  0  0
  152.9852  136.3145  188.7216 C   0  0  0  0  0  0  0  0  0  0  0  0
  153.4940  137.5700  188.5137 C   0  0  0  0  0  0  0  0  0  0  0  0
  154.2588  138.1683  189.4980 C   0  0  0  0  0  0  0  0  0  0  0  0
  154.5425  137.5621  190.6961 C   0  0  0  0  0  0  0  0  0  0  0  0
  154.2811  135.5582  192.1482 C   0  0  0  0  0  0  0  0  0  0  0  0
  149.4852  134.3664  193.7251 C   0  0  0  0  0  0  0  0  0  0  0  0
  150.5052  134.9417  192.8699 N   0  0  0  0  0  0  0  0  0  0  0  0
  151.6598  134.0700  192.7545 C   0  0  0  0  0  0  0  0  0  0  0  0
  152.7132  134.6213  193.6911 C   0  0  0  0  0  0  0  0  0  0  0  0
  153.2812  135.8730  193.1623 N   0  0  0  0  0  0  0  0  0  0  0  0
  152.1850  136.6406  192.5726 C   0  0  0  0  0  0  0  0  0  0  0  0
  150.8838  136.2651  193.2799 C   0  0  0  0  0  0  0  0  0  0  0  0
  154.9335  141.0680  182.7053 N   0  0  0  0  0  0  0  0  0  0  0  0
  154.4052  141.9682  182.4011 H   0  0  0  0  0  0  0  0  0  0  0  0
  156.3335  141.1853  182.6055 C   0  0  0  0  0  0  0  0  0  0  0  0
  156.9462  140.8769  181.4136 N   0  0  0  0  0  0  0  0  0  0  0  0
  158.2460  140.9473  181.2010 C   0  0  0  0  0  0  0  0  0  0  0  0
  159.0867  141.3589  182.2336 C   0  0  0  0  0  0  0  0  0  0  0  0
  158.4896  141.6720  183.4353 C   0  0  0  0  0  0  0  0  0  0  0  0
  157.1553  141.5734  183.5698 N   0  0  0  0  0  0  0  0  0  0  0  0
  159.3260  142.1140  184.5666 C   0  0  0  0  0  0  0  0  0  0  0  0
  158.9800  141.8387  185.8699 C   0  0  0  0  0  0  0  0  0  0  0  0
  159.7910  142.2700  186.9041 C   0  0  0  0  0  0  0  0  0  0  0  0
  160.9409  142.9711  186.6600 C   0  0  0  0  0  0  0  0  0  0  0  0
  161.2731  143.2357  185.4036 N   0  0  0  0  0  0  0  0  0  0  0  0
  160.4834  142.8173  184.3642 C   0  0  0  0  0  0  0  0  0  0  0  0
 19 20  1  0  0  0
 20 21  1  0  0  0
 21 22  1  0  0  0
 22 23  1  0  0  0
 23 18  1  0  0  0
 18 12  1  0  0  0
 12 13  2  0  0  0
 13 14  1  0  0  0
 14 15  2  0  0  0
 15 16  1  0  0  0
 16 17  2  0  0  0
 15  8  1  0  0  0
  8  9  2  0  0  0
  8 10  1  0  0  0
 10  1  1  0  0  0
  1  2  2  0  0  0
  2  3  1  0  0  0
  3  4  2  0  0  0
  4  5  1  0  0  0
  4  6  1  0  0  0
  6 26  1  0  0  0
 26 28  1  0  0  0
 28 29  2  0  0  0
 29 30  1  0  0  0
 30 31  2  0  0  0
 31 32  1  0  0  0
 32 33  2  0  0  0
 32 34  1  0  0  0
 34 35  2  0  0  0
 35 36  1  0  0  0
 36 37  2  0  0  0
 37 38  1  0  0  0
 38 39  2  0  0  0
  6  7  2  0  0  0
 23 24  1  0  0  0
 24 25  1  0  0  0
 25 20  1  0  0  0
 17 12  1  0  0  0
  7  1  1  0  0  0
 33 28  1  0  0  0
 39 34  1  0  0  0
 10 11  1  0  0  0
 26 27  1  0  0  0
M  END
> <minimizedAffinity>
-9.64046

> <CNNscore>
0.1625795066

> <CNNaffinity>
6.2888307571

> <CNN_VS>
1.0224349499

> <CNNaffinity_variance>
0.0429264829

$$$$
[H]c1nc(N([H])c2c([H])c(N([H])C(=O)c3c([H])c([H])c(C([H])([H])N4C([H])([H])C([H])([H])N(C([H])([H])[H])C([H])([H])C4([H])[H])c([H])c3[H])c([H])c([H])c2C([H])([H])[H])nc(-c2c([H])nc([H])c([H])c2[H])c1[H]


 39 43  0  0  0  0  0  0  0  0999 V2000
  151.9377  137.6030  183.3013 C   0  0  0  0  0  0  0  0  0  0  0  0
  150.9429  137.2038  182.4416 C   0  0  0  0  0  0  0  0  0  0  0  0
  150.7424  137.8612  181.2306 C   0  0  0  0  0  0  0  0  0  0  0  0
  151.5038  138.9201  180.8282 C   0  0  0  0  0  0  0  0  0  0  0  0
  151.2300  139.5765  179.5132 C   0  0  0  0  0  0  0  0  0  0  0  0
  152.5302  139.3571  181.6787 C   0  0  0  0  0  0  0  0  0  0  0  0
  152.7140  138.6997  182.8664 C   0  0  0  0  0  0  0  0  0  0  0  0
  153.3308  136.2494  184.8891 C   0  0  0  0  0  0  0  0  0  0  0  0
  154.2579  135.9819  184.0897 O   0  0  0  0  0  0  0  0  0  0  0  0
  152.2042  137.0134  184.5607 N   0  0  0  0  0  0  0  0  0  0  0  0
  151.4619  137.1856  185.3094 H   0  0  0  0  0  0  0  0  0  0  0  0
  153.7536  134.6395  188.7627 C   0  0  0  0  0  0  0  0  0  0  0  0
  154.6527  135.5713  188.2965 C   0  0  0  0  0  0  0  0  0  0  0  0
  154.5383  136.1146  187.0260 C   0  0  0  0  0  0  0  0  0  0  0  0
  153.4972  135.6964  186.2388 C   0  0  0  0  0  0  0  0  0  0  0  0
  152.6056  134.7592  186.7272 C   0  0  0  0  0  0  0  0  0  0  0  0
  152.7073  134.2137  187.9823 C   0  0  0  0  0  0  0  0  0  0  0  0
  153.9505  134.1207  190.1360 C   0  0  0  0  0  0  0  0  0  0  0  0
  151.9649  135.4367  194.7440 C   0  0  0  0  0  0  0  0  0  0  0  0
  152.7364  134.6560  193.7964 N   0  0  0  0  0  0  0  0  0  0  0  0
  153.4091  135.5030  192.8285 C   0  0  0  0  0  0  0  0  0  0  0  0
  152.5779  135.4596  191.5644 C   0  0  0  0  0  0  0  0  0  0  0  0
  152.7067  134.1529  190.8972 N   0  0  0  0  0  0  0  0  0  0  0  0
  152.7222  133.1256  191.9379 C   0  0  0  0  0  0  0  0  0  0  0  0
  151.9506  133.6415  193.1514 C   0  0  0  0  0  0  0  0  0  0  0  0
  153.2942  140.4426  181.2452 N   0  0  0  0  0  0  0  0  0  0  0  0
  153.2651  140.6467  180.1778 H   0  0  0  0  0  0  0  0  0  0  0  0
  154.1125  141.3390  181.9599 C   0  0  0  0  0  0  0  0  0  0  0  0
  153.5820  142.5351  182.3831 N   0  0  0  0  0  0  0  0  0  0  0  0
  154.2489  143.4517  183.0574 C   0  0  0  0  0  0  0  0  0  0  0  0
  155.5856  143.2257  183.3806 C   0  0  0  0  0  0  0  0  0  0  0  0
  156.1336  142.0320  182.9644 C   0  0  0  0  0  0  0  0  0  0  0  0
  155.3843  141.1497  182.2801 N   0  0  0  0  0  0  0  0  0  0  0  0
  157.5439  141.7344  183.2759 C   0  0  0  0  0  0  0  0  0  0  0  0
  158.5037  141.6785  182.2911 C   0  0  0  0  0  0  0  0  0  0  0  0
  159.8165  141.3968  182.6233 C   0  0  0  0  0  0  0  0  0  0  0  0
  160.1878  141.1700  183.9211 C   0  0  0  0  0  0  0  0  0  0  0  0
  159.2619  141.2241  184.8691 N   0  0  0  0  0  0  0  0  0  0  0  0
  157.9554  141.5017  184.5612 C   0  0  0  0  0  0  0  0  0  0  0  0
 19 20  1  0  0  0
 20 21  1  0  0  0
 21 22  1  0  0  0
 22 23  1  0  0  0
 23 18  1  0  0  0
 18 12  1  0  0  0
 12 13  2  0  0  0
 13 14  1  0  0  0
 14 15  2  0  0  0
 15 16  1  0  0  0
 16 17  2  0  0  0
 15  8  1  0  0  0
  8  9  2  0  0  0
  8 10  1  0  0  0
 10  1  1  0  0  0
  1  2  2  0  0  0
  2  3  1  0  0  0
  3  4  2  0  0  0
  4  5  1  0  0  0
  4  6  1  0  0  0
  6 26  1  0  0  0
 26 28  1  0  0  0
 28 29  2  0  0  0
 29 30  1  0  0  0
 30 31  2  0  0  0
 31 32  1  0  0  0
 32 33  2  0  0  0
 32 34  1  0  0  0
 34 35  2  0  0  0
 35 36  1  0  0  0
 36 37  2  0  0  0
 37 38  1  0  0  0
 38 39  2  0  0  0
  6  7  2  0  0  0
 23 24  1  0  0  0
 24 25  1  0  0  0
 25 20  1  0  0  0
 17 12  1  0  0  0
  7  1  1  0  0  0
 33 28  1  0  0  0
 39 34  1  0  0  0
 10 11  1  0  0  0
 26 27  1  0  0  0
M  END
> <minimizedAffinity>
-7.51164

> <CNNscore>
0.1546782255

> <CNNaffinity>
6.1762623787

> <CNN_VS>
0.9553332925

> <CNNaffinity_variance>
0.0255255289

$$$$
[H]c1nc(N([H])c2c([H])c(N([H])C(=O)c3c([H])c([H])c(C([H])([H])N4C([H])([H])C([H])([H])N(C([H])([H])[H])C([H])([H])C4([H])[H])c([H])c3[H])c([H])c([H])c2C([H])([H])[H])nc(-c2c([H])nc([H])c([H])c2[H])c1[H]


 39 43  0  0  0  0  0  0  0  0999 V2000
  151.3333  139.7491  180.8367 C   0  0  0  0  0  0  0  0  0  0  0  0
  151.1102  139.6179  179.4873 C   0  0  0  0  0  0  0  0  0  0  0  0
  149.9118  139.0921  179.0117 C   0  0  0  0  0  0  0  0  0  0  0  0
  148.9041  138.6830  179.8364 C   0  0  0  0  0  0  0  0  0  0  0  0
  147.6440  138.1284  179.2533 C   0  0  0  0  0  0  0  0  0  0  0  0
  149.0940  138.8015  181.2212 C   0  0  0  0  0  0  0  0  0  0  0  0
  150.2787  139.3204  181.6725 C   0  0  0  0  0  0  0  0  0  0  0  0
  153.2238  139.6768  182.4845 C   0  0  0  0  0  0  0  0  0  0  0  0
  152.8702  138.6311  183.0775 O   0  0  0  0  0  0  0  0  0  0  0  0
  152.5244  140.2503  181.4155 N   0  0  0  0  0  0  0  0  0  0  0  0
  152.9014  141.1475  180.9748 H   0  0  0  0  0  0  0  0  0  0  0  0
  156.7727  141.3932  183.9793 C   0  0  0  0  0  0  0  0  0  0  0  0
  155.9182  142.1364  183.1972 C   0  0  0  0  0  0  0  0  0  0  0  0
  154.7463  141.5957  182.6908 C   0  0  0  0  0  0  0  0  0  0  0  0
  154.4573  140.2901  182.9917 C   0  0  0  0  0  0  0  0  0  0  0  0
  155.3299  139.5618  183.7792 C   0  0  0  0  0  0  0  0  0  0  0  0
  156.4928  140.0846  184.2866 C   0  0  0  0  0  0  0  0  0  0  0  0
  157.9972  142.0572  184.4828 C   0  0  0  0  0  0  0  0  0  0  0  0
  159.5285  144.0271  179.9350 C   0  0  0  0  0  0  0  0  0  0  0  0
  158.7315  143.2235  180.8415 N   0  0  0  0  0  0  0  0  0  0  0  0
  158.4678  143.9236  182.0852 C   0  0  0  0  0  0  0  0  0  0  0  0
  159.4413  143.3741  183.1056 C   0  0  0  0  0  0  0  0  0  0  0  0
  159.0715  142.0035  183.4977 N   0  0  0  0  0  0  0  0  0  0  0  0
  158.6211  141.3063  182.2937 C   0  0  0  0  0  0  0  0  0  0  0  0
  159.3063  141.9287  181.0782 C   0  0  0  0  0  0  0  0  0  0  0  0
  148.0491  138.3750  182.0436 N   0  0  0  0  0  0  0  0  0  0  0  0
  147.0873  138.2380  181.5556 H   0  0  0  0  0  0  0  0  0  0  0  0
  148.0191  138.0844  183.4214 C   0  0  0  0  0  0  0  0  0  0  0  0
  146.9529  138.5202  184.1728 N   0  0  0  0  0  0  0  0  0  0  0  0
  146.8153  138.3100  185.4676 C   0  0  0  0  0  0  0  0  0  0  0  0
  147.7994  137.6008  186.1539 C   0  0  0  0  0  0  0  0  0  0  0  0
  148.8753  137.1564  185.4165 C   0  0  0  0  0  0  0  0  0  0  0  0
  148.9397  137.4133  184.0982 N   0  0  0  0  0  0  0  0  0  0  0  0
  149.9496  136.4000  186.0858 C   0  0  0  0  0  0  0  0  0  0  0  0
  149.8124  135.9410  187.3761 C   0  0  0  0  0  0  0  0  0  0  0  0
  150.8428  135.2344  187.9696 C   0  0  0  0  0  0  0  0  0  0  0  0
  152.0075  134.9782  187.2977 C   0  0  0  0  0  0  0  0  0  0  0  0
  152.1385  135.4211  186.0545 N   0  0  0  0  0  0  0  0  0  0  0  0
  151.1294  136.1232  185.4479 C   0  0  0  0  0  0  0  0  0  0  0  0
 19 20  1  0  0  0
 20 21  1  0  0  0
 21 22  1  0  0  0
 22 23  1  0  0  0
 23 18  1  0  0  0
 18 12  1  0  0  0
 12 13  2  0  0  0
 13 14  1  0  0  0
 14 15  2  0  0  0
 15 16  1  0  0  0
 16 17  2  0  0  0
 15  8  1  0  0  0
  8  9  2  0  0  0
  8 10  1  0  0  0
 10  1  1  0  0  0
  1  2  2  0  0  0
  2  3  1  0  0  0
  3  4  2  0  0  0
  4  5  1  0  0  0
  4  6  1  0  0  0
  6 26  1  0  0  0
 26 28  1  0  0  0
 28 29  2  0  0  0
 29 30  1  0  0  0
 30 31  2  0  0  0
 31 32  1  0  0  0
 32 33  2  0  0  0
 32 34  1  0  0  0
 34 35  2  0  0  0
 35 36  1  0  0  0
 36 37  2  0  0  0
 37 38  1  0  0  0
 38 39  2  0  0  0
  6  7  2  0  0  0
 23 24  1  0  0  0
 24 25  1  0  0  0
 25 20  1  0  0  0
 17 12  1  0  0  0
  7  1  1  0  0  0
 33 28  1  0  0  0
 39 34  1  0  0  0
 10 11  1  0  0  0
 26 27  1  0  0  0
M  END
> <minimizedAffinity>
-8.42419

> <CNNscore>
0.1542283744

> <CNNaffinity>
6.5543823242

> <CNN_VS>
1.0108717680

> <CNNaffinity_variance>
0.0214862507

$$$$
[H]c1nc(N([H])C(=O)c2c([H])c(O[C@@]([H])(C([H])([H])[H])C([H])([H])OC([H])([H])[H])c([H])c(O[C@]([H])(C([H])([H])[H])C(C([H])([H])[H])(C([H])([H])[H])C([H])([H])[H])c2[H])c([H])c([H])c1C#N


 31 32  0  0  0  0  0  0  0  0999 V2000
  155.8968  138.9712  185.3790 C   0  0  0  0  0  0  0  0  0  0  0  0
  156.6422  139.9829  184.8486 C   0  0  0  0  0  0  0  0  0  0  0  0
  156.2898  140.6731  183.6707 C   0  0  0  0  0  0  0  0  0  0  0  0
  155.1169  140.2579  183.0666 C   0  0  0  0  0  0  0  0  0  0  0  0
  154.3233  139.2479  183.5491 C   0  0  0  0  0  0  0  0  0  0  0  0
  154.7199  138.6176  184.6956 C   0  0  0  0  0  0  0  0  0  0  0  0
  153.0856  138.8184  182.8914 C   0  0  0  0  0  0  0  0  0  0  0  0
  152.7085  137.6653  183.1650 O   0  0  0  0  0  0  0  0  0  0  0  0
  152.3849  139.6439  182.0231 N   0  0  0  0  0  0  0  0  0  0  0  0
  152.7800  140.6277  181.8396 H   0  0  0  0  0  0  0  0  0  0  0  0
  151.1857  139.2881  181.3586 C   0  0  0  0  0  0  0  0  0  0  0  0
  149.9982  138.9410  181.9208 C   0  0  0  0  0  0  0  0  0  0  0  0
  148.8608  138.6041  181.1668 C   0  0  0  0  0  0  0  0  0  0  0  0
  148.9167  138.6155  179.7969 C   0  0  0  0  0  0  0  0  0  0  0  0
  150.1334  138.9710  179.2526 C   0  0  0  0  0  0  0  0  0  0  0  0
  151.1993  139.2869  179.9750 N   0  0  0  0  0  0  0  0  0  0  0  0
  147.7945  138.2827  178.9677 C   0  0  0  0  0  0  0  0  0  0  0  0
  146.8881  137.9943  178.2987 N   0  0  0  0  0  0  0  0  0  0  0  0
  156.2070  138.2781  186.5214 O   0  0  0  0  0  0  0  0  0  0  0  0
  155.3279  137.4774  187.2147 C   0  0  0  0  0  0  0  0  0  0  0  0
  156.0413  136.1285  187.4284 C   0  0  0  0  0  0  0  0  0  0  0  0
  154.9856  138.0293  188.5930 C   0  0  0  0  0  0  0  0  0  0  0  0
  152.8691  137.9297  187.7430 C   0  0  0  0  0  0  0  0  0  0  0  0
  153.7745  138.7013  188.4601 O   0  0  0  0  0  0  0  0  0  0  0  0
  157.1149  141.6765  183.2259 O   0  0  0  0  0  0  0  0  0  0  0  0
  157.5957  141.8115  181.9563 C   0  0  0  0  0  0  0  0  0  0  0  0
  158.7611  140.8792  181.6433 C   0  0  0  0  0  0  0  0  0  0  0  0
  158.1692  143.2195  181.6967 C   0  0  0  0  0  0  0  0  0  0  0  0
  158.7086  143.3071  180.2903 C   0  0  0  0  0  0  0  0  0  0  0  0
  159.2306  143.4430  182.7412 C   0  0  0  0  0  0  0  0  0  0  0  0
  157.0481  144.1954  181.9124 C   0  0  0  0  0  0  0  0  0  0  0  0
 23 24  1  0  0  0
 24 22  1  0  0  0
 22 20  1  0  0  0
 20 21  1  0  0  0
 20 19  1  0  0  0
 19  1  1  0  0  0
  1  2  2  0  0  0
  2  3  1  0  0  0
  3 25  1  0  0  0
 25 26  1  0  0  0
 26 27  1  0  0  0
 26 28  1  0  0  0
 28 29  1  0  0  0
 28 30  1  0  0  0
 28 31  1  0  0  0
  3  4  2  0  0  0
  4  5  1  0  0  0
  5  6  2  0  0  0
  5  7  1  0  0  0
  7  8  2  0  0  0
  7  9  1  0  0  0
  9 11  1  0  0  0
 11 12  2  0  0  0
 12 13  1  0  0  0
 13 14  2  0  0  0
 14 15  1  0  0  0
 15 16  2  0  0  0
 14 17  1  0  0  0
 17 18  3  0  0  0
  6  1  1  0  0  0
 16 11  1  0  0  0
  9 10  1  0  0  0
M  END
> <minimizedAffinity>
-6.95233

> <CNNscore>
0.6561653018

> <CNNaffinity>
6.2376222610

> <CNN_VS>
4.0929112434

> <CNNaffinity_variance>
0.0082662068

$$$$
[H]c1nc(N([H])C(=O)c2c([H])c(O[C@@]([H])(C([H])([H])[H])C([H])([H])OC([H])([H])[H])c([H])c(O[C@]([H])(C([H])([H])[H])C(C([H])([H])[H])(C([H])([H])[H])C([H])([H])[H])c2[H])c([H])c([H])c1C#N


 31 32  0  0  0  0  0  0  0  0999 V2000
  154.9375  138.2429  185.8410 C   0  0  0  0  0  0  0  0  0  0  0  0
  155.8778  139.0958  185.3419 C   0  0  0  0  0  0  0  0  0  0  0  0
  155.7636  139.7317  184.0887 C   0  0  0  0  0  0  0  0  0  0  0  0
  154.6168  139.4361  183.3743 C   0  0  0  0  0  0  0  0  0  0  0  0
  153.6348  138.5877  183.8199 C   0  0  0  0  0  0  0  0  0  0  0  0
  153.8046  138.0023  185.0436 C   0  0  0  0  0  0  0  0  0  0  0  0
  152.4280  138.2827  183.0454 C   0  0  0  0  0  0  0  0  0  0  0  0
  151.5307  137.6879  183.6680 O   0  0  0  0  0  0  0  0  0  0  0  0
  152.2988  138.6344  181.7089 N   0  0  0  0  0  0  0  0  0  0  0  0
  153.1228  139.1469  181.2443 H   0  0  0  0  0  0  0  0  0  0  0  0
  151.1608  138.3688  180.9084 C   0  0  0  0  0  0  0  0  0  0  0  0
  150.3142  137.3094  180.9968 C   0  0  0  0  0  0  0  0  0  0  0  0
  149.2061  137.1391  180.1490 C   0  0  0  0  0  0  0  0  0  0  0  0
  148.9371  138.0664  179.1754 C   0  0  0  0  0  0  0  0  0  0  0  0
  149.8120  139.1308  179.1077 C   0  0  0  0  0  0  0  0  0  0  0  0
  150.8540  139.2803  179.9137 N   0  0  0  0  0  0  0  0  0  0  0  0
  147.8243  137.9538  178.2774 C   0  0  0  0  0  0  0  0  0  0  0  0
  146.9162  137.8800  177.5547 N   0  0  0  0  0  0  0  0  0  0  0  0
  155.0138  137.6073  187.0541 O   0  0  0  0  0  0  0  0  0  0  0  0
  156.1870  137.2423  187.6746 C   0  0  0  0  0  0  0  0  0  0  0  0
  156.1579  137.8831  189.0755 C   0  0  0  0  0  0  0  0  0  0  0  0
  156.3091  135.7362  187.8706 C   0  0  0  0  0  0  0  0  0  0  0  0
  158.2059  134.6560  188.5394 C   0  0  0  0  0  0  0  0  0  0  0  0
  157.2073  135.5451  188.9160 O   0  0  0  0  0  0  0  0  0  0  0  0
  156.7715  140.5721  183.6846 O   0  0  0  0  0  0  0  0  0  0  0  0
  157.3681  140.5720  182.4577 C   0  0  0  0  0  0  0  0  0  0  0  0
  158.6599  139.7633  182.4079 C   0  0  0  0  0  0  0  0  0  0  0  0
  157.8006  141.9861  182.0195 C   0  0  0  0  0  0  0  0  0  0  0  0
  156.6596  142.9561  182.2034 C   0  0  0  0  0  0  0  0  0  0  0  0
  158.2378  141.8687  180.5833 C   0  0  0  0  0  0  0  0  0  0  0  0
  158.9807  142.3654  182.8676 C   0  0  0  0  0  0  0  0  0  0  0  0
 23 24  1  0  0  0
 24 22  1  0  0  0
 22 20  1  0  0  0
 20 21  1  0  0  0
 20 19  1  0  0  0
 19  1  1  0  0  0
  1  2  2  0  0  0
  2  3  1  0  0  0
  3 25  1  0  0  0
 25 26  1  0  0  0
 26 27  1  0  0  0
 26 28  1  0  0  0
 28 29  1  0  0  0
 28 30  1  0  0  0
 28 31  1  0  0  0
  3  4  2  0  0  0
  4  5  1  0  0  0
  5  6  2  0  0  0
  5  7  1  0  0  0
  7  8  2  0  0  0
  7  9  1  0  0  0
  9 11  1  0  0  0
 11 12  2  0  0  0
 12 13  1  0  0  0
 13 14  2  0  0  0
 14 15  1  0  0  0
 15 16  2  0  0  0
 14 17  1  0  0  0
 17 18  3  0  0  0
  6  1  1  0  0  0
 16 11  1  0  0  0
  9 10  1  0  0  0
M  END
> <minimizedAffinity>
-6.47561

> <CNNscore>
0.6180694103

> <CNNaffinity>
6.2160544395

> <CNN_VS>
3.8419530392

> <CNNaffinity_variance>
0.1846342534

$$$$
[H]c1nc(N([H])C(=O)c2c([H])c(O[C@@]([H])(C([H])([H])[H])C([H])([H])OC([H])([H])[H])c([H])c(O[C@]([H])(C([H])([H])[H])C(C([H])([H])[H])(C([H])([H])[H])C([H])([H])[H])c2[H])c([H])c([H])c1C#N


 31 32  0  0  0  0  0  0  0  0999 V2000
  155.9881  139.4421  184.6529 C   0  0  0  0  0  0  0  0  0  0  0  0
  156.1453  138.7918  185.8416 C   0  0  0  0  0  0  0  0  0  0  0  0
  155.2102  137.8683  186.3522 C   0  0  0  0  0  0  0  0  0  0  0  0
  154.0959  137.6519  185.5619 C   0  0  0  0  0  0  0  0  0  0  0  0
  153.8789  138.2735  184.3580 C   0  0  0  0  0  0  0  0  0  0  0  0
  154.8234  139.1586  183.9179 C   0  0  0  0  0  0  0  0  0  0  0  0
  152.6884  138.0348  183.5367 C   0  0  0  0  0  0  0  0  0  0  0  0
  151.7485  137.4603  184.1139 O   0  0  0  0  0  0  0  0  0  0  0  0
  152.6179  138.4240  182.2062 N   0  0  0  0  0  0  0  0  0  0  0  0
  153.4761  138.9154  181.7824 H   0  0  0  0  0  0  0  0  0  0  0  0
  151.4983  138.2228  181.3622 C   0  0  0  0  0  0  0  0  0  0  0  0
  150.6724  137.1443  181.3240 C   0  0  0  0  0  0  0  0  0  0  0  0
  149.5815  137.0433  180.4434 C   0  0  0  0  0  0  0  0  0  0  0  0
  149.3089  138.0625  179.5677 C   0  0  0  0  0  0  0  0  0  0  0  0
  150.1626  139.1444  179.6275 C   0  0  0  0  0  0  0  0  0  0  0  0
  151.1886  139.2278  180.4631 N   0  0  0  0  0  0  0  0  0  0  0  0
  148.2128  138.0241  178.6432 C   0  0  0  0  0  0  0  0  0  0  0  0
  147.3127  137.9993  177.9074 N   0  0  0  0  0  0  0  0  0  0  0  0
  156.8751  140.3452  184.1246 O   0  0  0  0  0  0  0  0  0  0  0  0
  156.7032  141.0034  182.9279 C   0  0  0  0  0  0  0  0  0  0  0  0
  156.5115  142.4930  183.2724 C   0  0  0  0  0  0  0  0  0  0  0  0
  157.9212  140.9046  182.0179 C   0  0  0  0  0  0  0  0  0  0  0  0
  158.2638  141.8034  179.9474 C   0  0  0  0  0  0  0  0  0  0  0  0
  157.4465  140.9810  180.7122 O   0  0  0  0  0  0  0  0  0  0  0  0
  155.4700  137.2712  187.5611 O   0  0  0  0  0  0  0  0  0  0  0  0
  154.7010  137.3721  188.6835 C   0  0  0  0  0  0  0  0  0  0  0  0
  153.8861  138.6592  188.7507 C   0  0  0  0  0  0  0  0  0  0  0  0
  155.5500  137.4049  189.9707 C   0  0  0  0  0  0  0  0  0  0  0  0
  155.6878  136.0125  190.5352 C   0  0  0  0  0  0  0  0  0  0  0  0
  154.8514  138.3480  190.9142 C   0  0  0  0  0  0  0  0  0  0  0  0
  156.8878  137.9770  189.5983 C   0  0  0  0  0  0  0  0  0  0  0  0
 23 24  1  0  0  0
 24 22  1  0  0  0
 22 20  1  0  0  0
 20 21  1  0  0  0
 20 19  1  0  0  0
 19  1  1  0  0  0
  1  2  2  0  0  0
  2  3  1  0  0  0
  3 25  1  0  0  0
 25 26  1  0  0  0
 26 27  1  0  0  0
 26 28  1  0  0  0
 28 29  1  0  0  0
 28 30  1  0  0  0
 28 31  1  0  0  0
  3  4  2  0  0  0
  4  5  1  0  0  0
  5  6  2  0  0  0
  5  7  1  0  0  0
  7  8  2  0  0  0
  7  9  1  0  0  0
  9 11  1  0  0  0
 11 12  2  0  0  0
 12 13  1  0  0  0
 13 14  2  0  0  0
 14 15  1  0  0  0
 15 16  2  0  0  0
 14 17  1  0  0  0
 17 18  3  0  0  0
  6  1  1  0  0  0
 16 11  1  0  0  0
  9 10  1  0  0  0
M  END
> <minimizedAffinity>
-6.68405

> <CNNscore>
0.5581128001

> <CNNaffinity>
5.9640173912

> <CNN_VS>
3.3285944462

> <CNNaffinity_variance>
0.0398621671

$$$$
[H]c1nc(N([H])C(=O)c2c([H])c(O[C@@]([H])(C([H])([H])[H])C([H])([H])OC([H])([H])[H])c([H])c(O[C@]([H])(C([H])([H])[H])C(C([H])([H])[H])(C([H])([H])[H])C([H])([H])[H])c2[H])c([H])c([H])c1C#N


 31 32  0  0  0  0  0  0  0  0999 V2000
  157.3194  140.4527  183.7176 C   0  0  0  0  0  0  0  0  0  0  0  0
  157.2710  139.8140  184.9219 C   0  0  0  0  0  0  0  0  0  0  0  0
  156.1154  139.1765  185.4179 C   0  0  0  0  0  0  0  0  0  0  0  0
  155.0047  139.2353  184.5958 C   0  0  0  0  0  0  0  0  0  0  0  0
  154.9884  139.8613  183.3749 C   0  0  0  0  0  0  0  0  0  0  0  0
  156.1412  140.4610  182.9502 C   0  0  0  0  0  0  0  0  0  0  0  0
  153.7990  139.9174  182.5197 C   0  0  0  0  0  0  0  0  0  0  0  0
  153.3184  141.0515  182.3481 O   0  0  0  0  0  0  0  0  0  0  0  0
  153.2490  138.7812  181.9426 N   0  0  0  0  0  0  0  0  0  0  0  0
  153.7260  137.8376  182.1422 H   0  0  0  0  0  0  0  0  0  0  0  0
  152.1043  138.7701  181.1086 C   0  0  0  0  0  0  0  0  0  0  0  0
  151.8249  139.6050  180.0734 C   0  0  0  0  0  0  0  0  0  0  0  0
  150.6532  139.5079  179.3031 C   0  0  0  0  0  0  0  0  0  0  0  0
  149.7264  138.5366  179.5818 C   0  0  0  0  0  0  0  0  0  0  0  0
  150.0348  137.7033  180.6371 C   0  0  0  0  0  0  0  0  0  0  0  0
  151.1440  137.8052  181.3562 N   0  0  0  0  0  0  0  0  0  0  0  0
  148.5107  138.3817  178.8364 C   0  0  0  0  0  0  0  0  0  0  0  0
  147.5257  138.2747  178.2277 N   0  0  0  0  0  0  0  0  0  0  0  0
  158.4238  141.0825  183.2026 O   0  0  0  0  0  0  0  0  0  0  0  0
  158.4235  142.3503  182.6666 C   0  0  0  0  0  0  0  0  0  0  0  0
  159.2281  143.2353  183.6379 C   0  0  0  0  0  0  0  0  0  0  0  0
  159.1184  142.4204  181.3124 C   0  0  0  0  0  0  0  0  0  0  0  0
  157.8143  141.9047  179.5109 C   0  0  0  0  0  0  0  0  0  0  0  0
  158.1757  142.9010  180.4088 O   0  0  0  0  0  0  0  0  0  0  0  0
  156.1792  138.5633  186.6448 O   0  0  0  0  0  0  0  0  0  0  0  0
  155.2458  137.7137  187.1628 C   0  0  0  0  0  0  0  0  0  0  0  0
  154.0095  138.4230  187.7046 C   0  0  0  0  0  0  0  0  0  0  0  0
  155.7825  136.9280  188.3767 C   0  0  0  0  0  0  0  0  0  0  0  0
  156.3372  137.8817  189.4059 C   0  0  0  0  0  0  0  0  0  0  0  0
  156.8237  135.9811  187.8409 C   0  0  0  0  0  0  0  0  0  0  0  0
  154.6315  136.1376  188.9302 C   0  0  0  0  0  0  0  0  0  0  0  0
 23 24  1  0  0  0
 24 22  1  0  0  0
 22 20  1  0  0  0
 20 21  1  0  0  0
 20 19  1  0  0  0
 19  1  1  0  0  0
  1  2  2  0  0  0
  2  3  1  0  0  0
  3 25  1  0  0  0
 25 26  1  0  0  0
 26 27  1  0  0  0
 26 28  1  0  0  0
 28 29  1  0  0  0
 28 30  1  0  0  0
 28 31  1  0  0  0
  3  4  2  0  0  0
  4  5  1  0  0  0
  5  6  2  0  0  0
  5  7  1  0  0  0
  7  8  2  0  0  0
  7  9  1  0  0  0
  9 11  1  0  0  0
 11 12  2  0  0  0
 12 13  1  0  0  0
 13 14  2  0  0  0
 14 15  1  0  0  0
 15 16  2  0  0  0
 14 17  1  0  0  0
 17 18  3  0  0  0
  6  1  1  0  0  0
 16 11  1  0  0  0
  9 10  1  0  0  0
M  END
> <minimizedAffinity>
-7.15563

> <CNNscore>
0.5496864915

> <CNNaffinity>
6.1700286865

> <CNN_VS>
3.3915815353

> <CNNaffinity_variance>
0.0478913784

$$$$
[H]c1nc(N([H])C(=O)c2c([H])c(O[C@@]([H])(C([H])([H])[H])C([H])([H])OC([H])([H])[H])c([H])c(O[C@]([H])(C([H])([H])[H])C(C([H])([H])[H])(C([H])([H])[H])C([H])([H])[H])c2[H])c([H])c([H])c1C#N


 31 32  0  0  0  0  0  0  0  0999 V2000
  156.1926  139.1399  185.3493 C   0  0  0  0  0  0  0  0  0  0  0  0
  157.2994  139.8348  184.9590 C   0  0  0  0  0  0  0  0  0  0  0  0
  157.3540  140.6149  183.7858 C   0  0  0  0  0  0  0  0  0  0  0  0
  156.1942  140.6377  183.0326 C   0  0  0  0  0  0  0  0  0  0  0  0
  155.0490  139.9615  183.3699 C   0  0  0  0  0  0  0  0  0  0  0  0
  155.0600  139.2226  184.5201 C   0  0  0  0  0  0  0  0  0  0  0  0
  153.8305  139.9939  182.5555 C   0  0  0  0  0  0  0  0  0  0  0  0
  153.2618  141.0979  182.4900 O   0  0  0  0  0  0  0  0  0  0  0  0
  153.3468  138.8680  181.9036 N   0  0  0  0  0  0  0  0  0  0  0  0
  153.8987  137.9509  182.0125 H   0  0  0  0  0  0  0  0  0  0  0  0
  152.1785  138.8352  181.1035 C   0  0  0  0  0  0  0  0  0  0  0  0
  151.8717  139.6388  180.0514 C   0  0  0  0  0  0  0  0  0  0  0  0
  150.6780  139.5221  179.3185 C   0  0  0  0  0  0  0  0  0  0  0  0
  149.7570  138.5633  179.6537 C   0  0  0  0  0  0  0  0  0  0  0  0
  150.0934  137.7619  180.7250 C   0  0  0  0  0  0  0  0  0  0  0  0
  151.2231  137.8820  181.4085 N   0  0  0  0  0  0  0  0  0  0  0  0
  148.5199  138.3899  178.9487 C   0  0  0  0  0  0  0  0  0  0  0  0
  147.5114  138.2365  178.3902 N   0  0  0  0  0  0  0  0  0  0  0  0
  156.1022  138.3721  186.4825 O   0  0  0  0  0  0  0  0  0  0  0  0
  154.9238  137.9098  187.0233 C   0  0  0  0  0  0  0  0  0  0  0  0
  154.8959  136.3895  186.7743 C   0  0  0  0  0  0  0  0  0  0  0  0
  154.8411  138.1212  188.5300 C   0  0  0  0  0  0  0  0  0  0  0  0
  156.1568  138.1684  190.3950 C   0  0  0  0  0  0  0  0  0  0  0  0
  156.1451  138.0549  189.0107 O   0  0  0  0  0  0  0  0  0  0  0  0
  158.5217  141.2736  183.4890 O   0  0  0  0  0  0  0  0  0  0  0  0
  158.8522  142.5344  183.8920 C   0  0  0  0  0  0  0  0  0  0  0  0
  159.0890  143.5013  182.7369 C   0  0  0  0  0  0  0  0  0  0  0  0
  160.1788  142.5662  184.6781 C   0  0  0  0  0  0  0  0  0  0  0  0
  160.7968  143.9401  184.5945 C   0  0  0  0  0  0  0  0  0  0  0  0
  161.0530  141.4981  184.0758 C   0  0  0  0  0  0  0  0  0  0  0  0
  159.8551  142.1994  186.0981 C   0  0  0  0  0  0  0  0  0  0  0  0
 23 24  1  0  0  0
 24 22  1  0  0  0
 22 20  1  0  0  0
 20 21  1  0  0  0
 20 19  1  0  0  0
 19  1  1  0  0  0
  1  2  2  0  0  0
  2  3  1  0  0  0
  3 25  1  0  0  0
 25 26  1  0  0  0
 26 27  1  0  0  0
 26 28  1  0  0  0
 28 29  1  0  0  0
 28 30  1  0  0  0
 28 31  1  0  0  0
  3  4  2  0  0  0
  4  5  1  0  0  0
  5  6  2  0  0  0
  5  7  1  0  0  0
  7  8  2  0  0  0
  7  9  1  0  0  0
  9 11  1  0  0  0
 11 12  2  0  0  0
 12 13  1  0  0  0
 13 14  2  0  0  0
 14 15  1  0  0  0
 15 16  2  0  0  0
 14 17  1  0  0  0
 17 18  3  0  0  0
  6  1  1  0  0  0
 16 11  1  0  0  0
  9 10  1  0  0  0
M  END
> <minimizedAffinity>
-7.75963

> <CNNscore>
0.5387248397

> <CNNaffinity>
6.2483587265

> <CNN_VS>
3.3661460876

> <CNNaffinity_variance>
0.0723741502

$$$$
[H]c1nc(N([H])C(=O)c2c([H])c(O[C@@]([H])(C([H])([H])[H])C([H])([H])OC([H])([H])[H])c([H])c(O[C@]([H])(C([H])([H])[H])C(C([H])([H])[H])(C([H])([H])[H])C([H])([H])[H])c2[H])c([H])c([H])c1C#N


 31 32  0  0  0  0  0  0  0  0999 V2000
  156.2274  140.1529  184.1819 C   0  0  0  0  0  0  0  0  0  0  0  0
  156.3532  139.5103  185.3784 C   0  0  0  0  0  0  0  0  0  0  0  0
  155.4610  138.5132  185.8230 C   0  0  0  0  0  0  0  0  0  0  0  0
  154.4243  138.2143  184.9576 C   0  0  0  0  0  0  0  0  0  0  0  0
  154.2423  138.8237  183.7418 C   0  0  0  0  0  0  0  0  0  0  0  0
  155.1420  139.7828  183.3681 C   0  0  0  0  0  0  0  0  0  0  0  0
  153.1336  138.4968  182.8401 C   0  0  0  0  0  0  0  0  0  0  0  0
  152.8663  137.2863  182.7405 O   0  0  0  0  0  0  0  0  0  0  0  0
  152.4324  139.4732  182.1463 N   0  0  0  0  0  0  0  0  0  0  0  0
  152.7280  140.4979  182.2883 H   0  0  0  0  0  0  0  0  0  0  0  0
  151.3540  139.2218  181.2631 C   0  0  0  0  0  0  0  0  0  0  0  0
  151.2903  139.4961  179.9336 C   0  0  0  0  0  0  0  0  0  0  0  0
  150.1661  139.2036  179.1421 C   0  0  0  0  0  0  0  0  0  0  0  0
  149.0639  138.6138  179.7055 C   0  0  0  0  0  0  0  0  0  0  0  0
  149.1553  138.3467  181.0558 C   0  0  0  0  0  0  0  0  0  0  0  0
  150.2218  138.6274  181.7917 N   0  0  0  0  0  0  0  0  0  0  0  0
  147.8847  138.2888  178.9564 C   0  0  0  0  0  0  0  0  0  0  0  0
  146.9231  138.0435  178.3501 N   0  0  0  0  0  0  0  0  0  0  0  0
  157.0746  141.1260  183.7162 O   0  0  0  0  0  0  0  0  0  0  0  0
  158.4324  140.9695  183.5527 C   0  0  0  0  0  0  0  0  0  0  0  0
  158.6203  139.9581  182.4055 C   0  0  0  0  0  0  0  0  0  0  0  0
  159.1307  142.2581  183.1361 C   0  0  0  0  0  0  0  0  0  0  0  0
  158.5750  143.7881  181.5355 C   0  0  0  0  0  0  0  0  0  0  0  0
  158.1374  143.1123  182.6673 O   0  0  0  0  0  0  0  0  0  0  0  0
  155.6832  137.9315  187.0468 O   0  0  0  0  0  0  0  0  0  0  0  0
  154.7212  137.5278  187.9259 C   0  0  0  0  0  0  0  0  0  0  0  0
  153.6322  138.5694  188.1590 C   0  0  0  0  0  0  0  0  0  0  0  0
  155.2914  137.2679  189.3353 C   0  0  0  0  0  0  0  0  0  0  0  0
  155.1528  138.5065  190.1858 C   0  0  0  0  0  0  0  0  0  0  0  0
  156.7261  136.8537  189.1412 C   0  0  0  0  0  0  0  0  0  0  0  0
  154.5177  136.1188  189.9154 C   0  0  0  0  0  0  0  0  0  0  0  0
 23 24  1  0  0  0
 24 22  1  0  0  0
 22 20  1  0  0  0
 20 21  1  0  0  0
 20 19  1  0  0  0
 19  1  1  0  0  0
  1  2  2  0  0  0
  2  3  1  0  0  0
  3 25  1  0  0  0
 25 26  1  0  0  0
 26 27  1  0  0  0
 26 28  1  0  0  0
 28 29  1  0  0  0
 28 30  1  0  0  0
 28 31  1  0  0  0
  3  4  2  0  0  0
  4  5  1  0  0  0
  5  6  2  0  0  0
  5  7  1  0  0  0
  7  8  2  0  0  0
  7  9  1  0  0  0
  9 11  1  0  0  0
 11 12  2  0  0  0
 12 13  1  0  0  0
 13 14  2  0  0  0
 14 15  1  0  0  0
 15 16  2  0  0  0
 14 17  1  0  0  0
 17 18  3  0  0  0
  6  1  1  0  0  0
 16 11  1  0  0  0
  9 10  1  0  0  0
M  END
> <minimizedAffinity>
-6.91738

> <CNNscore>
0.4750099480

> <CNNaffinity>
5.9903955460

> <CNN_VS>
2.8454973698

> <CNNaffinity_variance>
0.0284296758

$$$$
[H]c1nc(N([H])C(=O)c2c([H])c(O[C@@]([H])(C([H])([H])[H])C([H])([H])OC([H])([H])[H])c([H])c(O[C@]([H])(C([H])([H])[H])C(C([H])([H])[H])(C([H])([H])[H])C([H])([H])[H])c2[H])c([H])c([H])c1C#N


 31 32  0  0  0  0  0  0  0  0999 V2000
  156.9169  140.9808  184.0187 C   0  0  0  0  0  0  0  0  0  0  0  0
  156.9854  140.0806  185.0413 C   0  0  0  0  0  0  0  0  0  0  0  0
  155.9851  139.1215  185.3010 C   0  0  0  0  0  0  0  0  0  0  0  0
  154.9026  139.1435  184.4404 C   0  0  0  0  0  0  0  0  0  0  0  0
  154.7739  140.0222  183.3945 C   0  0  0  0  0  0  0  0  0  0  0  0
  155.7783  140.9281  183.1954 C   0  0  0  0  0  0  0  0  0  0  0  0
  153.6158  140.0333  182.4958 C   0  0  0  0  0  0  0  0  0  0  0  0
  153.1192  141.1528  182.2794 O   0  0  0  0  0  0  0  0  0  0  0  0
  153.1100  138.8725  181.9272 N   0  0  0  0  0  0  0  0  0  0  0  0
  153.5981  137.9441  182.1668 H   0  0  0  0  0  0  0  0  0  0  0  0
  151.9970  138.8178  181.0529 C   0  0  0  0  0  0  0  0  0  0  0  0
  151.7651  139.5876  179.9572 C   0  0  0  0  0  0  0  0  0  0  0  0
  150.6218  139.4513  179.1510 C   0  0  0  0  0  0  0  0  0  0  0  0
  149.6751  138.5074  179.4553 C   0  0  0  0  0  0  0  0  0  0  0  0
  149.9353  137.7404  180.5721 C   0  0  0  0  0  0  0  0  0  0  0  0
  151.0180  137.8786  181.3247 N   0  0  0  0  0  0  0  0  0  0  0  0
  148.4863  138.3154  178.6759 C   0  0  0  0  0  0  0  0  0  0  0  0
  147.5128  138.1702  178.0567 N   0  0  0  0  0  0  0  0  0  0  0  0
  157.8692  141.9265  183.7354 O   0  0  0  0  0  0  0  0  0  0  0  0
  159.2180  141.6728  183.6305 C   0  0  0  0  0  0  0  0  0  0  0  0
  159.5538  141.7098  182.1271 C   0  0  0  0  0  0  0  0  0  0  0  0
  160.0744  142.7344  184.3096 C   0  0  0  0  0  0  0  0  0  0  0  0
  159.8747  142.4563  186.5667 C   0  0  0  0  0  0  0  0  0  0  0  0
  160.6221  142.1366  185.4404 O   0  0  0  0  0  0  0  0  0  0  0  0
  156.1573  138.2632  186.3588 O   0  0  0  0  0  0  0  0  0  0  0  0
  155.1706  137.5595  186.9854 C   0  0  0  0  0  0  0  0  0  0  0  0
  154.0612  138.4382  187.5529 C   0  0  0  0  0  0  0  0  0  0  0  0
  155.6949  136.7876  188.2135 C   0  0  0  0  0  0  0  0  0  0  0  0
  156.7811  135.8273  187.7958 C   0  0  0  0  0  0  0  0  0  0  0  0
  154.5033  136.0910  188.8156 C   0  0  0  0  0  0  0  0  0  0  0  0
  156.2143  137.8096  189.1839 C   0  0  0  0  0  0  0  0  0  0  0  0
 23 24  1  0  0  0
 24 22  1  0  0  0
 22 20  1  0  0  0
 20 21  1  0  0  0
 20 19  1  0  0  0
 19  1  1  0  0  0
  1  2  2  0  0  0
  2  3  1  0  0  0
  3 25  1  0  0  0
 25 26  1  0  0  0
 26 27  1  0  0  0
 26 28  1  0  0  0
 28 29  1  0  0  0
 28 30  1  0  0  0
 28 31  1  0  0  0
  3  4  2  0  0  0
  4  5  1  0  0  0
  5  6  2  0  0  0
  5  7  1  0  0  0
  7  8  2  0  0  0
  7  9  1  0  0  0
  9 11  1  0  0  0
 11 12  2  0  0  0
 12 13  1  0  0  0
 13 14  2  0  0  0
 14 15  1  0  0  0
 15 16  2  0  0  0
 14 17  1  0  0  0
 17 18  3  0  0  0
  6  1  1  0  0  0
 16 11  1  0  0  0
  9 10  1  0  0  0
M  END
> <minimizedAffinity>
-7.39734

> <CNNscore>
0.4529585540

> <CNNaffinity>
6.0191659927

> <CNN_VS>
2.7264328003

> <CNNaffinity_variance>
0.0632882714

$$$$
[H]c1nc(N([H])C(=O)c2c([H])c(O[C@@]([H])(C([H])([H])[H])C([H])([H])OC([H])([H])[H])c([H])c(O[C@]([H])(C([H])([H])[H])C(C([H])([H])[H])(C([H])([H])[H])C([H])([H])[H])c2[H])c([H])c([H])c1C#N


 31 32  0  0  0  0  0  0  0  0999 V2000
  153.8691  139.6467  183.1576 C   0  0  0  0  0  0  0  0  0  0  0  0
  155.0141  140.2508  182.7279 C   0  0  0  0  0  0  0  0  0  0  0  0
  156.2046  140.2865  183.4823 C   0  0  0  0  0  0  0  0  0  0  0  0
  156.1471  139.6594  184.7138 C   0  0  0  0  0  0  0  0  0  0  0  0
  155.0277  139.0347  185.2031 C   0  0  0  0  0  0  0  0  0  0  0  0
  153.9049  139.0349  184.4231 C   0  0  0  0  0  0  0  0  0  0  0  0
  154.9847  138.3797  186.5139 C   0  0  0  0  0  0  0  0  0  0  0  0
  155.8739  137.5344  186.7172 O   0  0  0  0  0  0  0  0  0  0  0  0
  154.0165  138.6837  187.4608 N   0  0  0  0  0  0  0  0  0  0  0  0
  153.2822  139.4272  187.2050 H   0  0  0  0  0  0  0  0  0  0  0  0
  153.9221  138.0874  188.7422 C   0  0  0  0  0  0  0  0  0  0  0  0
  154.6607  138.3744  189.8463 C   0  0  0  0  0  0  0  0  0  0  0  0
  154.4860  137.7207  191.0783 C   0  0  0  0  0  0  0  0  0  0  0  0
  153.5347  136.7418  191.2077 C   0  0  0  0  0  0  0  0  0  0  0  0
  152.7999  136.4705  190.0722 C   0  0  0  0  0  0  0  0  0  0  0  0
  152.9742  137.0945  188.9155 N   0  0  0  0  0  0  0  0  0  0  0  0
  153.3043  136.0355  192.4348 C   0  0  0  0  0  0  0  0  0  0  0  0
  153.1358  135.4654  193.4342 N   0  0  0  0  0  0  0  0  0  0  0  0
  152.6940  139.5914  182.4523 O   0  0  0  0  0  0  0  0  0  0  0  0
  152.2085  138.4657  181.8264 C   0  0  0  0  0  0  0  0  0  0  0  0
  150.7491  138.3018  182.2927 C   0  0  0  0  0  0  0  0  0  0  0  0
  152.1844  138.5964  180.3085 C   0  0  0  0  0  0  0  0  0  0  0  0
  150.9546  140.1710  179.2039 C   0  0  0  0  0  0  0  0  0  0  0  0
  152.0493  139.9530  180.0306 O   0  0  0  0  0  0  0  0  0  0  0  0
  157.2994  140.9232  182.9518 O   0  0  0  0  0  0  0  0  0  0  0  0
  157.3593  141.5231  181.7279 C   0  0  0  0  0  0  0  0  0  0  0  0
  158.3870  140.8968  180.7915 C   0  0  0  0  0  0  0  0  0  0  0  0
  157.7973  142.9989  181.8228 C   0  0  0  0  0  0  0  0  0  0  0  0
  156.6030  143.8755  182.1088 C   0  0  0  0  0  0  0  0  0  0  0  0
  158.4595  143.3287  180.5112 C   0  0  0  0  0  0  0  0  0  0  0  0
  158.8127  143.0840  182.9261 C   0  0  0  0  0  0  0  0  0  0  0  0
 23 24  1  0  0  0
 24 22  1  0  0  0
 22 20  1  0  0  0
 20 21  1  0  0  0
 20 19  1  0  0  0
 19  1  1  0  0  0
  1  2  2  0  0  0
  2  3  1  0  0  0
  3 25  1  0  0  0
 25 26  1  0  0  0
 26 27  1  0  0  0
 26 28  1  0  0  0
 28 29  1  0  0  0
 28 30  1  0  0  0
 28 31  1  0  0  0
  3  4  2  0  0  0
  4  5  1  0  0  0
  5  6  2  0  0  0
  5  7  1  0  0  0
  7  8  2  0  0  0
  7  9  1  0  0  0
  9 11  1  0  0  0
 11 12  2  0  0  0
 12 13  1  0  0  0
 13 14  2  0  0  0
 14 15  1  0  0  0
 15 16  2  0  0  0
 14 17  1  0  0  0
 17 18  3  0  0  0
  6  1  1  0  0  0
 16 11  1  0  0  0
  9 10  1  0  0  0
M  END
> <minimizedAffinity>
-7.25810

> <CNNscore>
0.4375430942

> <CNNaffinity>
5.9602270126

> <CNN_VS>
2.6078562737

> <CNNaffinity_variance>
0.0715372711

$$$$
[H]c1nc(N([H])C(=O)c2c([H])c(O[C@@]([H])(C([H])([H])[H])C([H])([H])OC([H])([H])[H])c([H])c(O[C@]([H])(C([H])([H])[H])C(C([H])([H])[H])(C([H])([H])[H])C([H])([H])[H])c2[H])c([H])c([H])c1C#N


 31 32  0  0  0  0  0  0  0  0999 V2000
  156.1660  139.4322  184.9540 C   0  0  0  0  0  0  0  0  0  0  0  0
  156.1155  138.6887  186.0964 C   0  0  0  0  0  0  0  0  0  0  0  0
  155.1396  137.7001  186.3381 C   0  0  0  0  0  0  0  0  0  0  0  0
  154.2123  137.5206  185.3278 C   0  0  0  0  0  0  0  0  0  0  0  0
  154.2084  138.2352  184.1565 C   0  0  0  0  0  0  0  0  0  0  0  0
  155.1813  139.1798  183.9825 C   0  0  0  0  0  0  0  0  0  0  0  0
  153.2134  138.0340  183.0989 C   0  0  0  0  0  0  0  0  0  0  0  0
  153.0075  136.8502  182.7785 O   0  0  0  0  0  0  0  0  0  0  0  0
  152.5485  139.0939  182.4980 N   0  0  0  0  0  0  0  0  0  0  0  0
  152.7857  140.0883  182.8335 H   0  0  0  0  0  0  0  0  0  0  0  0
  151.5785  138.9649  181.4740 C   0  0  0  0  0  0  0  0  0  0  0  0
  151.6174  139.4963  180.2238 C   0  0  0  0  0  0  0  0  0  0  0  0
  150.5966  139.3061  179.2764 C   0  0  0  0  0  0  0  0  0  0  0  0
  149.4950  138.5546  179.5950 C   0  0  0  0  0  0  0  0  0  0  0  0
  149.4811  138.0276  180.8698 C   0  0  0  0  0  0  0  0  0  0  0  0
  150.4506  138.2142  181.7547 N   0  0  0  0  0  0  0  0  0  0  0  0
  148.4181  138.3210  178.6768 C   0  0  0  0  0  0  0  0  0  0  0  0
  147.5576  138.1261  177.9191 N   0  0  0  0  0  0  0  0  0  0  0  0
  157.0991  140.4007  184.6838 O   0  0  0  0  0  0  0  0  0  0  0  0
  158.4615  140.2086  184.7249 C   0  0  0  0  0  0  0  0  0  0  0  0
  158.8711  139.6861  183.3344 C   0  0  0  0  0  0  0  0  0  0  0  0
  159.2341  141.4995  184.9666 C   0  0  0  0  0  0  0  0  0  0  0  0
  160.1432  142.6178  186.7371 C   0  0  0  0  0  0  0  0  0  0  0  0
  159.1110  141.7859  186.3226 O   0  0  0  0  0  0  0  0  0  0  0  0
  155.1833  137.0107  187.5248 O   0  0  0  0  0  0  0  0  0  0  0  0
  156.0827  137.2090  188.5313 C   0  0  0  0  0  0  0  0  0  0  0  0
  156.9554  135.9918  188.8179 C   0  0  0  0  0  0  0  0  0  0  0  0
  155.3935  137.4953  189.8810 C   0  0  0  0  0  0  0  0  0  0  0  0
  154.6937  136.2545  190.3780 C   0  0  0  0  0  0  0  0  0  0  0  0
  154.4450  138.6393  189.6372 C   0  0  0  0  0  0  0  0  0  0  0  0
  156.4662  137.9356  190.8356 C   0  0  0  0  0  0  0  0  0  0  0  0
 23 24  1  0  0  0
 24 22  1  0  0  0
 22 20  1  0  0  0
 20 21  1  0  0  0
 20 19  1  0  0  0
 19  1  1  0  0  0
  1  2  2  0  0  0
  2  3  1  0  0  0
  3 25  1  0  0  0
 25 26  1  0  0  0
 26 27  1  0  0  0
 26 28  1  0  0  0
 28 29  1  0  0  0
 28 30  1  0  0  0
 28 31  1  0  0  0
  3  4  2  0  0  0
  4  5  1  0  0  0
  5  6  2  0  0  0
  5  7  1  0  0  0
  7  8  2  0  0  0
  7  9  1  0  0  0
  9 11  1  0  0  0
 11 12  2  0  0  0
 12 13  1  0  0  0
 13 14  2  0  0  0
 14 15  1  0  0  0
 15 16  2  0  0  0
 14 17  1  0  0  0
 17 18  3  0  0  0
  6  1  1  0  0  0
 16 11  1  0  0  0
  9 10  1  0  0  0
M  END
> <minimizedAffinity>
-7.16854

> <CNNscore>
0.4327966571

> <CNNaffinity>
5.7262945175

> <CNN_VS>
2.4783210754

> <CNNaffinity_variance>
0.0096195359

$$$$
[H]c1nc(OC([H])([H])[H])c(N2C([H])([H])C([H])([H])OC([H])([H])C2([H])[H])c([H])c1-c1c(C([H])([H])[H])nc([H])c(N([H])C(=O)c2c([H])c([H])c([H])c(C(F)(F)F)c2[H])c1[H]


 35 38  0  0  0  0  0  0  0  0999 V2000
  155.4791  140.1247  183.8921 C   0  0  0  0  0  0  0  0  0  0  0  0
  155.7210  139.0583  184.7785 C   0  0  0  0  0  0  0  0  0  0  0  0
  154.7829  138.1053  184.9756 C   0  0  0  0  0  0  0  0  0  0  0  0
  153.5355  138.1674  184.2752 C   0  0  0  0  0  0  0  0  0  0  0  0
  153.3319  139.1750  183.4501 N   0  0  0  0  0  0  0  0  0  0  0  0
  154.2723  140.1543  183.2464 C   0  0  0  0  0  0  0  0  0  0  0  0
  153.8647  141.2600  182.3542 C   0  0  0  0  0  0  0  0  0  0  0  0
  158.3127  143.0550  183.0406 C   0  0  0  0  0  0  0  0  0  0  0  0
  157.1938  142.9608  182.3215 N   0  0  0  0  0  0  0  0  0  0  0  0
  156.2621  142.0677  182.6175 C   0  0  0  0  0  0  0  0  0  0  0  0
  156.4268  141.2016  183.6894 C   0  0  0  0  0  0  0  0  0  0  0  0
  157.5820  141.3057  184.4380 C   0  0  0  0  0  0  0  0  0  0  0  0
  158.5719  142.2371  184.1363 C   0  0  0  0  0  0  0  0  0  0  0  0
  159.7618  142.2392  184.8867 N   0  0  0  0  0  0  0  0  0  0  0  0
  159.9030  142.8818  186.1350 C   0  0  0  0  0  0  0  0  0  0  0  0
  161.3118  142.9545  186.6482 C   0  0  0  0  0  0  0  0  0  0  0  0
  162.2713  142.3173  185.9112 O   0  0  0  0  0  0  0  0  0  0  0  0
  162.1194  142.3490  184.5469 C   0  0  0  0  0  0  0  0  0  0  0  0
  160.8782  141.4869  184.2599 C   0  0  0  0  0  0  0  0  0  0  0  0
  159.0901  144.8597  181.6809 C   0  0  0  0  0  0  0  0  0  0  0  0
  159.3280  143.9692  182.7574 O   0  0  0  0  0  0  0  0  0  0  0  0
  154.7693  137.0308  185.9448 N   0  0  0  0  0  0  0  0  0  0  0  0
  155.5583  137.1304  187.0839 C   0  0  0  0  0  0  0  0  0  0  0  0
  156.1575  138.2529  187.2912 O   0  0  0  0  0  0  0  0  0  0  0  0
  154.1692  136.2250  185.7572 H   0  0  0  0  0  0  0  0  0  0  0  0
  155.8179  136.1084  188.0748 C   0  0  0  0  0  0  0  0  0  0  0  0
  156.2305  134.8295  187.8215 C   0  0  0  0  0  0  0  0  0  0  0  0
  156.5959  133.9517  188.8628 C   0  0  0  0  0  0  0  0  0  0  0  0
  156.5394  134.3804  190.1773 C   0  0  0  0  0  0  0  0  0  0  0  0
  156.1322  135.6506  190.4707 C   0  0  0  0  0  0  0  0  0  0  0  0
  155.7768  136.4913  189.4323 C   0  0  0  0  0  0  0  0  0  0  0  0
  156.0773  136.2181  191.8536 C   0  0  0  0  0  0  0  0  0  0  0  0
  156.3036  137.5782  191.7212 F   0  0  0  0  0  0  0  0  0  0  0  0
  157.1990  135.7079  192.5340 F   0  0  0  0  0  0  0  0  0  0  0  0
  154.9342  135.9288  192.5273 F   0  0  0  0  0  0  0  0  0  0  0  0
 20 21  1  0  0  0
 21  8  1  0  0  0
  8  9  2  0  0  0
  9 10  1  0  0  0
 10 11  2  0  0  0
 11 12  1  0  0  0
 12 13  2  0  0  0
 13 14  1  0  0  0
 14 15  1  0  0  0
 15 16  1  0  0  0
 16 17  1  0  0  0
 17 18  1  0  0  0
 18 19  1  0  0  0
 11  1  1  0  0  0
  1  2  2  0  0  0
  2  3  1  0  0  0
  3 22  1  0  0  0
 22 23  1  0  0  0
 23 24  2  0  0  0
 23 26  1  0  0  0
 26 27  2  0  0  0
 27 28  1  0  0  0
 28 29  2  0  0  0
 29 30  1  0  0  0
 30 31  2  0  0  0
 30 32  1  0  0  0
 32 33  1  0  0  0
 32 34  1  0  0  0
 32 35  1  0  0  0
  3  4  2  0  0  0
  4  5  1  0  0  0
  5  6  2  0  0  0
  6  7  1  0  0  0
 13  8  1  0  0  0
 19 14  1  0  0  0
  6  1  1  0  0  0
 31 26  1  0  0  0
 22 25  1  0  0  0
M  END
> <minimizedAffinity>
-9.20071

> <CNNscore>
0.5563207269

> <CNNaffinity>
6.7544374466

> <CNN_VS>
3.7576334476

> <CNNaffinity_variance>
0.0337858237

$$$$
[H]c1nc(OC([H])([H])[H])c(N2C([H])([H])C([H])([H])OC([H])([H])C2([H])[H])c([H])c1-c1c(C([H])([H])[H])nc([H])c(N([H])C(=O)c2c([H])c([H])c([H])c(C(F)(F)F)c2[H])c1[H]


 35 38  0  0  0  0  0  0  0  0999 V2000
  155.3786  139.5543  184.4803 C   0  0  0  0  0  0  0  0  0  0  0  0
  155.6172  138.7181  185.5873 C   0  0  0  0  0  0  0  0  0  0  0  0
  154.7024  137.7946  185.9577 C   0  0  0  0  0  0  0  0  0  0  0  0
  153.4838  137.6519  185.2194 C   0  0  0  0  0  0  0  0  0  0  0  0
  153.2828  138.4456  184.1864 N   0  0  0  0  0  0  0  0  0  0  0  0
  154.1994  139.3935  183.8038 C   0  0  0  0  0  0  0  0  0  0  0  0
  153.7943  140.2601  182.6770 C   0  0  0  0  0  0  0  0  0  0  0  0
  158.1392  142.3442  183.0888 C   0  0  0  0  0  0  0  0  0  0  0  0
  157.0246  142.0891  182.4029 N   0  0  0  0  0  0  0  0  0  0  0  0
  156.1151  141.2439  182.8630 C   0  0  0  0  0  0  0  0  0  0  0  0
  156.2993  140.5978  184.0775 C   0  0  0  0  0  0  0  0  0  0  0  0
  157.4499  140.8691  184.7905 C   0  0  0  0  0  0  0  0  0  0  0  0
  158.4167  141.7523  184.3174 C   0  0  0  0  0  0  0  0  0  0  0  0
  159.6045  141.9246  185.0511 N   0  0  0  0  0  0  0  0  0  0  0  0
  159.6506  142.4454  186.3617 C   0  0  0  0  0  0  0  0  0  0  0  0
  161.0298  142.7576  186.8652 C   0  0  0  0  0  0  0  0  0  0  0  0
  162.0756  142.4191  186.0521 O   0  0  0  0  0  0  0  0  0  0  0  0
  161.8750  142.5635  184.7015 C   0  0  0  0  0  0  0  0  0  0  0  0
  160.8313  141.4953  184.3330 C   0  0  0  0  0  0  0  0  0  0  0  0
  158.7019  144.5030  182.2327 C   0  0  0  0  0  0  0  0  0  0  0  0
  159.1318  143.2146  182.6371 O   0  0  0  0  0  0  0  0  0  0  0  0
  154.6826  136.9585  187.1387 N   0  0  0  0  0  0  0  0  0  0  0  0
  154.2618  137.4971  188.3481 C   0  0  0  0  0  0  0  0  0  0  0  0
  153.7673  138.6874  188.3246 O   0  0  0  0  0  0  0  0  0  0  0  0
  154.9805  135.9856  187.0410 H   0  0  0  0  0  0  0  0  0  0  0  0
  154.3302  136.8909  189.6602 C   0  0  0  0  0  0  0  0  0  0  0  0
  155.4041  136.2250  190.1832 C   0  0  0  0  0  0  0  0  0  0  0  0
  155.4240  135.7957  191.5262 C   0  0  0  0  0  0  0  0  0  0  0  0
  154.3376  136.0458  192.3460 C   0  0  0  0  0  0  0  0  0  0  0  0
  153.2462  136.7079  191.8603 C   0  0  0  0  0  0  0  0  0  0  0  0
  153.2499  137.1165  190.5396 C   0  0  0  0  0  0  0  0  0  0  0  0
  152.0439  137.0606  192.6773 C   0  0  0  0  0  0  0  0  0  0  0  0
  152.3611  138.2327  193.3437 F   0  0  0  0  0  0  0  0  0  0  0  0
  151.9392  136.0707  193.6726 F   0  0  0  0  0  0  0  0  0  0  0  0
  150.8926  137.1463  191.9621 F   0  0  0  0  0  0  0  0  0  0  0  0
 20 21  1  0  0  0
 21  8  1  0  0  0
  8  9  2  0  0  0
  9 10  1  0  0  0
 10 11  2  0  0  0
 11 12  1  0  0  0
 12 13  2  0  0  0
 13 14  1  0  0  0
 14 15  1  0  0  0
 15 16  1  0  0  0
 16 17  1  0  0  0
 17 18  1  0  0  0
 18 19  1  0  0  0
 11  1  1  0  0  0
  1  2  2  0  0  0
  2  3  1  0  0  0
  3 22  1  0  0  0
 22 23  1  0  0  0
 23 24  2  0  0  0
 23 26  1  0  0  0
 26 27  2  0  0  0
 27 28  1  0  0  0
 28 29  2  0  0  0
 29 30  1  0  0  0
 30 31  2  0  0  0
 30 32  1  0  0  0
 32 33  1  0  0  0
 32 34  1  0  0  0
 32 35  1  0  0  0
  3  4  2  0  0  0
  4  5  1  0  0  0
  5  6  2  0  0  0
  6  7  1  0  0  0
 13  8  1  0  0  0
 19 14  1  0  0  0
  6  1  1  0  0  0
 31 26  1  0  0  0
 22 25  1  0  0  0
M  END
> <minimizedAffinity>
-9.71029

> <CNNscore>
0.4940543175

> <CNNaffinity>
6.5966730118

> <CNN_VS>
3.2591147423

> <CNNaffinity_variance>
0.0631509721

$$$$
[H]c1nc(OC([H])([H])[H])c(N2C([H])([H])C([H])([H])OC([H])([H])C2([H])[H])c([H])c1-c1c(C([H])([H])[H])nc([H])c(N([H])C(=O)c2c([H])c([H])c([H])c(C(F)(F)F)c2[H])c1[H]


 35 38  0  0  0  0  0  0  0  0999 V2000
  155.2057  139.9621  183.5616 C   0  0  0  0  0  0  0  0  0  0  0  0
  155.4016  138.8817  184.4425 C   0  0  0  0  0  0  0  0  0  0  0  0
  154.4501  137.9322  184.5839 C   0  0  0  0  0  0  0  0  0  0  0  0
  153.2357  138.0121  183.8293 C   0  0  0  0  0  0  0  0  0  0  0  0
  153.0750  139.0323  183.0105 N   0  0  0  0  0  0  0  0  0  0  0  0
  154.0293  140.0084  182.8630 C   0  0  0  0  0  0  0  0  0  0  0  0
  153.6684  141.1291  181.9695 C   0  0  0  0  0  0  0  0  0  0  0  0
  158.0990  142.8801  182.8869 C   0  0  0  0  0  0  0  0  0  0  0  0
  157.0339  142.7808  182.0908 N   0  0  0  0  0  0  0  0  0  0  0  0
  156.0816  141.8918  182.3280 C   0  0  0  0  0  0  0  0  0  0  0  0
  156.1677  141.0356  183.4169 C   0  0  0  0  0  0  0  0  0  0  0  0
  157.2670  141.1451  184.2449 C   0  0  0  0  0  0  0  0  0  0  0  0
  158.2778  142.0722  184.0058 C   0  0  0  0  0  0  0  0  0  0  0  0
  159.4113  142.0796  184.8389 N   0  0  0  0  0  0  0  0  0  0  0  0
  159.3936  142.4969  186.1868 C   0  0  0  0  0  0  0  0  0  0  0  0
  160.7482  142.6424  186.8170 C   0  0  0  0  0  0  0  0  0  0  0  0
  161.8245  142.2686  186.0610 O   0  0  0  0  0  0  0  0  0  0  0  0
  161.7497  142.5292  184.7150 C   0  0  0  0  0  0  0  0  0  0  0  0
  160.6515  141.5920  184.1839 C   0  0  0  0  0  0  0  0  0  0  0  0
  159.0789  144.5259  181.4583 C   0  0  0  0  0  0  0  0  0  0  0  0
  159.1338  143.7901  182.6681 O   0  0  0  0  0  0  0  0  0  0  0  0
  154.3869  136.8443  185.5360 N   0  0  0  0  0  0  0  0  0  0  0  0
  154.0869  137.1179  186.8646 C   0  0  0  0  0  0  0  0  0  0  0  0
  153.7336  138.3234  187.1543 O   0  0  0  0  0  0  0  0  0  0  0  0
  154.5650  135.8979  185.1935 H   0  0  0  0  0  0  0  0  0  0  0  0
  154.1439  136.2116  187.9912 C   0  0  0  0  0  0  0  0  0  0  0  0
  154.0773  134.8472  187.9295 C   0  0  0  0  0  0  0  0  0  0  0  0
  154.2875  134.0454  189.0703 C   0  0  0  0  0  0  0  0  0  0  0  0
  154.5672  134.6396  190.2883 C   0  0  0  0  0  0  0  0  0  0  0  0
  154.6418  135.9995  190.3904 C   0  0  0  0  0  0  0  0  0  0  0  0
  154.4295  136.7637  189.2580 C   0  0  0  0  0  0  0  0  0  0  0  0
  154.9782  136.7313  191.6508 C   0  0  0  0  0  0  0  0  0  0  0  0
  154.0071  136.3773  192.5729 F   0  0  0  0  0  0  0  0  0  0  0  0
  154.7702  138.0972  191.3812 F   0  0  0  0  0  0  0  0  0  0  0  0
  156.2429  136.5168  192.0964 F   0  0  0  0  0  0  0  0  0  0  0  0
 20 21  1  0  0  0
 21  8  1  0  0  0
  8  9  2  0  0  0
  9 10  1  0  0  0
 10 11  2  0  0  0
 11 12  1  0  0  0
 12 13  2  0  0  0
 13 14  1  0  0  0
 14 15  1  0  0  0
 15 16  1  0  0  0
 16 17  1  0  0  0
 17 18  1  0  0  0
 18 19  1  0  0  0
 11  1  1  0  0  0
  1  2  2  0  0  0
  2  3  1  0  0  0
  3 22  1  0  0  0
 22 23  1  0  0  0
 23 24  2  0  0  0
 23 26  1  0  0  0
 26 27  2  0  0  0
 27 28  1  0  0  0
 28 29  2  0  0  0
 29 30  1  0  0  0
 30 31  2  0  0  0
 30 32  1  0  0  0
 32 33  1  0  0  0
 32 34  1  0  0  0
 32 35  1  0  0  0
  3  4  2  0  0  0
  4  5  1  0  0  0
  5  6  2  0  0  0
  6  7  1  0  0  0
 13  8  1  0  0  0
 19 14  1  0  0  0
  6  1  1  0  0  0
 31 26  1  0  0  0
 22 25  1  0  0  0
M  END
> <minimizedAffinity>
-8.53100

> <CNNscore>
0.4686725736

> <CNNaffinity>
6.6609315872

> <CNN_VS>
3.1217958927

> <CNNaffinity_variance>
0.0739431158

$$$$
[H]c1nc(OC([H])([H])[H])c(N2C([H])([H])C([H])([H])OC([H])([H])C2([H])[H])c([H])c1-c1c(C([H])([H])[H])nc([H])c(N([H])C(=O)c2c([H])c([H])c([H])c(C(F)(F)F)c2[H])c1[H]


 35 38  0  0  0  0  0  0  0  0999 V2000
  155.2745  139.8665  184.0106 C   0  0  0  0  0  0  0  0  0  0  0  0
  155.3980  139.0108  185.1215 C   0  0  0  0  0  0  0  0  0  0  0  0
  154.4168  138.1304  185.4202 C   0  0  0  0  0  0  0  0  0  0  0  0
  153.2447  138.0536  184.6012 C   0  0  0  0  0  0  0  0  0  0  0  0
  153.1516  138.8645  183.5663 N   0  0  0  0  0  0  0  0  0  0  0  0
  154.1366  139.7692  183.2558 C   0  0  0  0  0  0  0  0  0  0  0  0
  153.8499  140.6636  182.1145 C   0  0  0  0  0  0  0  0  0  0  0  0
  158.2563  142.5269  182.8393 C   0  0  0  0  0  0  0  0  0  0  0  0
  157.1863  142.3224  182.0705 N   0  0  0  0  0  0  0  0  0  0  0  0
  156.2071  141.5198  182.4582 C   0  0  0  0  0  0  0  0  0  0  0  0
  156.2694  140.8668  183.6814 C   0  0  0  0  0  0  0  0  0  0  0  0
  157.3740  141.0858  184.4799 C   0  0  0  0  0  0  0  0  0  0  0  0
  158.4129  141.9238  184.0837 C   0  0  0  0  0  0  0  0  0  0  0  0
  159.5485  142.0423  184.9054 N   0  0  0  0  0  0  0  0  0  0  0  0
  159.5257  142.5960  186.2031 C   0  0  0  0  0  0  0  0  0  0  0  0
  160.8787  142.8357  186.8075 C   0  0  0  0  0  0  0  0  0  0  0  0
  161.9607  142.4098  186.0883 O   0  0  0  0  0  0  0  0  0  0  0  0
  161.8758  142.5284  184.7230 C   0  0  0  0  0  0  0  0  0  0  0  0
  160.7974  141.5173  184.2974 C   0  0  0  0  0  0  0  0  0  0  0  0
  159.0628  144.7448  182.4643 C   0  0  0  0  0  0  0  0  0  0  0  0
  159.3186  143.3510  182.4662 O   0  0  0  0  0  0  0  0  0  0  0  0
  154.2779  137.2868  186.5877 N   0  0  0  0  0  0  0  0  0  0  0  0
  153.7483  137.8212  187.7555 C   0  0  0  0  0  0  0  0  0  0  0  0
  153.2680  139.0160  187.6938 O   0  0  0  0  0  0  0  0  0  0  0  0
  154.5759  136.3120  186.5118 H   0  0  0  0  0  0  0  0  0  0  0  0
  153.6865  137.2059  189.0638 C   0  0  0  0  0  0  0  0  0  0  0  0
  152.5984  136.5815  189.6079 C   0  0  0  0  0  0  0  0  0  0  0  0
  152.6816  135.8861  190.8318 C   0  0  0  0  0  0  0  0  0  0  0  0
  153.8861  135.8268  191.5103 C   0  0  0  0  0  0  0  0  0  0  0  0
  154.9954  136.4381  190.9992 C   0  0  0  0  0  0  0  0  0  0  0  0
  154.8875  137.1156  189.7990 C   0  0  0  0  0  0  0  0  0  0  0  0
  156.3482  136.3955  191.6362 C   0  0  0  0  0  0  0  0  0  0  0  0
  156.9521  137.6062  191.3397 F   0  0  0  0  0  0  0  0  0  0  0  0
  157.0828  135.4197  190.9366 F   0  0  0  0  0  0  0  0  0  0  0  0
  156.3270  136.1193  192.9657 F   0  0  0  0  0  0  0  0  0  0  0  0
 20 21  1  0  0  0
 21  8  1  0  0  0
  8  9  2  0  0  0
  9 10  1  0  0  0
 10 11  2  0  0  0
 11 12  1  0  0  0
 12 13  2  0  0  0
 13 14  1  0  0  0
 14 15  1  0  0  0
 15 16  1  0  0  0
 16 17  1  0  0  0
 17 18  1  0  0  0
 18 19  1  0  0  0
 11  1  1  0  0  0
  1  2  2  0  0  0
  2  3  1  0  0  0
  3 22  1  0  0  0
 22 23  1  0  0  0
 23 24  2  0  0  0
 23 26  1  0  0  0
 26 27  2  0  0  0
 27 28  1  0  0  0
 28 29  2  0  0  0
 29 30  1  0  0  0
 30 31  2  0  0  0
 30 32  1  0  0  0
 32 33  1  0  0  0
 32 34  1  0  0  0
 32 35  1  0  0  0
  3  4  2  0  0  0
  4  5  1  0  0  0
  5  6  2  0  0  0
  6  7  1  0  0  0
 13  8  1  0  0  0
 19 14  1  0  0  0
  6  1  1  0  0  0
 31 26  1  0  0  0
 22 25  1  0  0  0
M  END
> <minimizedAffinity>
-9.30977

> <CNNscore>
0.4624763727

> <CNNaffinity>
6.6126585007

> <CNN_VS>
3.0581982136

> <CNNaffinity_variance>
0.0609373525

$$$$
[H]c1nc(OC([H])([H])[H])c(N2C([H])([H])C([H])([H])OC([H])([H])C2([H])[H])c([H])c1-c1c(C([H])([H])[H])nc([H])c(N([H])C(=O)c2c([H])c([H])c([H])c(C(F)(F)F)c2[H])c1[H]


 35 38  0  0  0  0  0  0  0  0999 V2000
  155.5007  139.6664  184.3979 C   0  0  0  0  0  0  0  0  0  0  0  0
  155.7258  138.8227  185.5020 C   0  0  0  0  0  0  0  0  0  0  0  0
  154.7926  137.9184  185.8742 C   0  0  0  0  0  0  0  0  0  0  0  0
  153.5682  137.8039  185.1407 C   0  0  0  0  0  0  0  0  0  0  0  0
  153.3801  138.6042  184.1104 N   0  0  0  0  0  0  0  0  0  0  0  0
  154.3154  139.5328  183.7260 C   0  0  0  0  0  0  0  0  0  0  0  0
  153.9245  140.4106  182.6029 C   0  0  0  0  0  0  0  0  0  0  0  0
  158.3223  142.3954  183.0078 C   0  0  0  0  0  0  0  0  0  0  0  0
  157.2170  142.1423  182.3063 N   0  0  0  0  0  0  0  0  0  0  0  0
  156.2883  141.3172  182.7646 C   0  0  0  0  0  0  0  0  0  0  0  0
  156.4421  140.6907  183.9935 C   0  0  0  0  0  0  0  0  0  0  0  0
  157.5831  140.9600  184.7225 C   0  0  0  0  0  0  0  0  0  0  0  0
  158.5698  141.8222  184.2516 C   0  0  0  0  0  0  0  0  0  0  0  0
  159.7463  141.9924  185.0036 N   0  0  0  0  0  0  0  0  0  0  0  0
  159.7831  142.5890  186.2818 C   0  0  0  0  0  0  0  0  0  0  0  0
  161.1617  142.8776  186.8008 C   0  0  0  0  0  0  0  0  0  0  0  0
  162.2115  142.4506  186.0359 O   0  0  0  0  0  0  0  0  0  0  0  0
  162.0480  142.5211  184.6745 C   0  0  0  0  0  0  0  0  0  0  0  0
  160.9712  141.4736  184.3436 C   0  0  0  0  0  0  0  0  0  0  0  0
  158.9995  144.6172  182.4467 C   0  0  0  0  0  0  0  0  0  0  0  0
  159.3342  143.2448  182.5589 O   0  0  0  0  0  0  0  0  0  0  0  0
  154.7597  137.0801  187.0534 N   0  0  0  0  0  0  0  0  0  0  0  0
  154.2979  137.6083  188.2524 C   0  0  0  0  0  0  0  0  0  0  0  0
  153.7807  138.7887  188.2177 O   0  0  0  0  0  0  0  0  0  0  0  0
  155.0792  136.1136  186.9622 H   0  0  0  0  0  0  0  0  0  0  0  0
  154.3452  137.0015  189.5652 C   0  0  0  0  0  0  0  0  0  0  0  0
  153.3487  137.0317  190.5012 C   0  0  0  0  0  0  0  0  0  0  0  0
  153.4347  136.2869  191.6954 C   0  0  0  0  0  0  0  0  0  0  0  0
  154.5486  135.5034  191.9404 C   0  0  0  0  0  0  0  0  0  0  0  0
  155.5650  135.4473  191.0298 C   0  0  0  0  0  0  0  0  0  0  0  0
  155.4582  136.1885  189.8677 C   0  0  0  0  0  0  0  0  0  0  0  0
  156.7878  134.5998  191.1852 C   0  0  0  0  0  0  0  0  0  0  0  0
  157.4410  135.0687  192.3130 F   0  0  0  0  0  0  0  0  0  0  0  0
  157.6260  134.9141  190.0988 F   0  0  0  0  0  0  0  0  0  0  0  0
  156.5366  133.2659  191.2279 F   0  0  0  0  0  0  0  0  0  0  0  0
 20 21  1  0  0  0
 21  8  1  0  0  0
  8  9  2  0  0  0
  9 10  1  0  0  0
 10 11  2  0  0  0
 11 12  1  0  0  0
 12 13  2  0  0  0
 13 14  1  0  0  0
 14 15  1  0  0  0
 15 16  1  0  0  0
 16 17  1  0  0  0
 17 18  1  0  0  0
 18 19  1  0  0  0
 11  1  1  0  0  0
  1  2  2  0  0  0
  2  3  1  0  0  0
  3 22  1  0  0  0
 22 23  1  0  0  0
 23 24  2  0  0  0
 23 26  1  0  0  0
 26 27  2  0  0  0
 27 28  1  0  0  0
 28 29  2  0  0  0
 29 30  1  0  0  0
 30 31  2  0  0  0
 30 32  1  0  0  0
 32 33  1  0  0  0
 32 34  1  0  0  0
 32 35  1  0  0  0
  3  4  2  0  0  0
  4  5  1  0  0  0
  5  6  2  0  0  0
  6  7  1  0  0  0
 13  8  1  0  0  0
 19 14  1  0  0  0
  6  1  1  0  0  0
 31 26  1  0  0  0
 22 25  1  0  0  0
M  END
> <minimizedAffinity>
-9.10544

> <CNNscore>
0.4261699617

> <CNNaffinity>
6.5505461693

> <CNN_VS>
2.7916460037

> <CNNaffinity_variance>
0.0577838942

$$$$
[H]c1nc(OC([H])([H])[H])c(N2C([H])([H])C([H])([H])OC([H])([H])C2([H])[H])c([H])c1-c1c(C([H])([H])[H])nc([H])c(N([H])C(=O)c2c([H])c([H])c([H])c(C(F)(F)F)c2[H])c1[H]


 35 38  0  0  0  0  0  0  0  0999 V2000
  155.6939  139.6443  184.5726 C   0  0  0  0  0  0  0  0  0  0  0  0
  156.0604  138.6619  185.5117 C   0  0  0  0  0  0  0  0  0  0  0  0
  155.1822  137.7010  185.8757 C   0  0  0  0  0  0  0  0  0  0  0  0
  153.8714  137.6685  185.3003 C   0  0  0  0  0  0  0  0  0  0  0  0
  153.5511  138.5984  184.4228 N   0  0  0  0  0  0  0  0  0  0  0  0
  154.4300  139.5851  184.0499 C   0  0  0  0  0  0  0  0  0  0  0  0
  153.8966  140.6013  183.1185 C   0  0  0  0  0  0  0  0  0  0  0  0
  158.3379  142.5676  183.2291 C   0  0  0  0  0  0  0  0  0  0  0  0
  157.1980  142.3304  182.5792 N   0  0  0  0  0  0  0  0  0  0  0  0
  156.3256  141.4410  183.0279 C   0  0  0  0  0  0  0  0  0  0  0  0
  156.5764  140.7285  184.1923 C   0  0  0  0  0  0  0  0  0  0  0  0
  157.7532  140.9811  184.8685 C   0  0  0  0  0  0  0  0  0  0  0  0
  158.6814  141.9104  184.4067 C   0  0  0  0  0  0  0  0  0  0  0  0
  159.8981  142.0636  185.0960 N   0  0  0  0  0  0  0  0  0  0  0  0
  160.0130  142.6775  186.3613 C   0  0  0  0  0  0  0  0  0  0  0  0
  161.4223  142.9410  186.8059 C   0  0  0  0  0  0  0  0  0  0  0  0
  162.4221  142.4786  185.9959 O   0  0  0  0  0  0  0  0  0  0  0  0
  162.1916  142.5335  184.6435 C   0  0  0  0  0  0  0  0  0  0  0  0
  161.0759  141.5070  184.3833 C   0  0  0  0  0  0  0  0  0  0  0  0
  158.8361  144.4893  181.8991 C   0  0  0  0  0  0  0  0  0  0  0  0
  159.2930  143.4834  182.7865 O   0  0  0  0  0  0  0  0  0  0  0  0
  155.3029  136.7098  186.9231 N   0  0  0  0  0  0  0  0  0  0  0  0
  155.8877  137.0639  188.1324 C   0  0  0  0  0  0  0  0  0  0  0  0
  156.1639  138.3102  188.3126 O   0  0  0  0  0  0  0  0  0  0  0  0
  154.9463  135.7704  186.7360 H   0  0  0  0  0  0  0  0  0  0  0  0
  156.2554  136.1931  189.2280 C   0  0  0  0  0  0  0  0  0  0  0  0
  155.5731  136.0491  190.4044 C   0  0  0  0  0  0  0  0  0  0  0  0
  155.9323  135.0676  191.3509 C   0  0  0  0  0  0  0  0  0  0  0  0
  156.9994  134.2237  191.0977 C   0  0  0  0  0  0  0  0  0  0  0  0
  157.7057  134.3365  189.9342 C   0  0  0  0  0  0  0  0  0  0  0  0
  157.3354  135.3083  189.0232 C   0  0  0  0  0  0  0  0  0  0  0  0
  158.8456  133.4464  189.5524 C   0  0  0  0  0  0  0  0  0  0  0  0
  159.8627  134.2842  189.1258 F   0  0  0  0  0  0  0  0  0  0  0  0
  158.4277  132.7389  188.4095 F   0  0  0  0  0  0  0  0  0  0  0  0
  159.2332  132.5900  190.5324 F   0  0  0  0  0  0  0  0  0  0  0  0
 20 21  1  0  0  0
 21  8  1  0  0  0
  8  9  2  0  0  0
  9 10  1  0  0  0
 10 11  2  0  0  0
 11 12  1  0  0  0
 12 13  2  0  0  0
 13 14  1  0  0  0
 14 15  1  0  0  0
 15 16  1  0  0  0
 16 17  1  0  0  0
 17 18  1  0  0  0
 18 19  1  0  0  0
 11  1  1  0  0  0
  1  2  2  0  0  0
  2  3  1  0  0  0
  3 22  1  0  0  0
 22 23  1  0  0  0
 23 24  2  0  0  0
 23 26  1  0  0  0
 26 27  2  0  0  0
 27 28  1  0  0  0
 28 29  2  0  0  0
 29 30  1  0  0  0
 30 31  2  0  0  0
 30 32  1  0  0  0
 32 33  1  0  0  0
 32 34  1  0  0  0
 32 35  1  0  0  0
  3  4  2  0  0  0
  4  5  1  0  0  0
  5  6  2  0  0  0
  6  7  1  0  0  0
 13  8  1  0  0  0
 19 14  1  0  0  0
  6  1  1  0  0  0
 31 26  1  0  0  0
 22 25  1  0  0  0
M  END
> <minimizedAffinity>
-8.90060

> <CNNscore>
0.4049963355

> <CNNaffinity>
6.5500574112

> <CNN_VS>
2.6527493000

> <CNNaffinity_variance>
0.0584061444

$$$$
[H]c1nc(OC([H])([H])[H])c(N2C([H])([H])C([H])([H])OC([H])([H])C2([H])[H])c([H])c1-c1c(C([H])([H])[H])nc([H])c(N([H])C(=O)c2c([H])c([H])c([H])c(C(F)(F)F)c2[H])c1[H]


 35 38  0  0  0  0  0  0  0  0999 V2000
  153.5918  139.4124  182.7569 C   0  0  0  0  0  0  0  0  0  0  0  0
  154.4174  140.5511  182.7006 C   0  0  0  0  0  0  0  0  0  0  0  0
  155.4824  140.6663  183.5249 C   0  0  0  0  0  0  0  0  0  0  0  0
  155.7865  139.6237  184.4581 C   0  0  0  0  0  0  0  0  0  0  0  0
  154.9995  138.5669  184.4923 N   0  0  0  0  0  0  0  0  0  0  0  0
  153.9097  138.4402  183.6668 C   0  0  0  0  0  0  0  0  0  0  0  0
  153.0791  137.2365  183.8806 C   0  0  0  0  0  0  0  0  0  0  0  0
  150.1403  139.3228  180.4289 C   0  0  0  0  0  0  0  0  0  0  0  0
  151.2880  139.7795  179.9269 N   0  0  0  0  0  0  0  0  0  0  0  0
  152.4031  139.7625  180.6409 C   0  0  0  0  0  0  0  0  0  0  0  0
  152.4062  139.2664  181.9372 C   0  0  0  0  0  0  0  0  0  0  0  0
  151.2189  138.7864  182.4526 C   0  0  0  0  0  0  0  0  0  0  0  0
  150.0380  138.8016  181.7152 C   0  0  0  0  0  0  0  0  0  0  0  0
  148.8445  138.3739  182.3247 N   0  0  0  0  0  0  0  0  0  0  0  0
  147.9222  139.2440  182.9440 C   0  0  0  0  0  0  0  0  0  0  0  0
  146.8406  138.5585  183.7272 C   0  0  0  0  0  0  0  0  0  0  0  0
  146.8116  137.1925  183.6755 O   0  0  0  0  0  0  0  0  0  0  0  0
  148.0262  136.5538  183.6299 C   0  0  0  0  0  0  0  0  0  0  0  0
  148.6161  136.9083  182.2541 C   0  0  0  0  0  0  0  0  0  0  0  0
  148.8095  138.3763  178.6844 C   0  0  0  0  0  0  0  0  0  0  0  0
  148.9384  139.3347  179.7202 O   0  0  0  0  0  0  0  0  0  0  0  0
  156.3501  141.8054  183.7340 N   0  0  0  0  0  0  0  0  0  0  0  0
  157.5817  141.8507  183.0929 C   0  0  0  0  0  0  0  0  0  0  0  0
  157.8281  140.9334  182.2211 O   0  0  0  0  0  0  0  0  0  0  0  0
  156.0218  142.5497  184.3527 H   0  0  0  0  0  0  0  0  0  0  0  0
  158.6541  142.8001  183.2989 C   0  0  0  0  0  0  0  0  0  0  0  0
  158.7668  144.0269  182.7052 C   0  0  0  0  0  0  0  0  0  0  0  0
  159.7739  144.9393  183.0813 C   0  0  0  0  0  0  0  0  0  0  0  0
  160.6777  144.5986  184.0723 C   0  0  0  0  0  0  0  0  0  0  0  0
  160.5979  143.3824  184.6887 C   0  0  0  0  0  0  0  0  0  0  0  0
  159.6030  142.5044  184.3005 C   0  0  0  0  0  0  0  0  0  0  0  0
  161.5006  142.9398  185.7963 C   0  0  0  0  0  0  0  0  0  0  0  0
  160.7344  142.1288  186.6171 F   0  0  0  0  0  0  0  0  0  0  0  0
  161.7873  144.0904  186.5548 F   0  0  0  0  0  0  0  0  0  0  0  0
  162.6460  142.3448  185.3744 F   0  0  0  0  0  0  0  0  0  0  0  0
 20 21  1  0  0  0
 21  8  1  0  0  0
  8  9  2  0  0  0
  9 10  1  0  0  0
 10 11  2  0  0  0
 11 12  1  0  0  0
 12 13  2  0  0  0
 13 14  1  0  0  0
 14 15  1  0  0  0
 15 16  1  0  0  0
 16 17  1  0  0  0
 17 18  1  0  0  0
 18 19  1  0  0  0
 11  1  1  0  0  0
  1  2  2  0  0  0
  2  3  1  0  0  0
  3 22  1  0  0  0
 22 23  1  0  0  0
 23 24  2  0  0  0
 23 26  1  0  0  0
 26 27  2  0  0  0
 27 28  1  0  0  0
 28 29  2  0  0  0
 29 30  1  0  0  0
 30 31  2  0  0  0
 30 32  1  0  0  0
 32 33  1  0  0  0
 32 34  1  0  0  0
 32 35  1  0  0  0
  3  4  2  0  0  0
  4  5  1  0  0  0
  5  6  2  0  0  0
  6  7  1  0  0  0
 13  8  1  0  0  0
 19 14  1  0  0  0
  6  1  1  0  0  0
 31 26  1  0  0  0
 22 25  1  0  0  0
M  END
> <minimizedAffinity>
-9.46191

> <CNNscore>
0.3444485068

> <CNNaffinity>
6.6196718216

> <CNN_VS>
2.2801361084

> <CNNaffinity_variance>
0.0381097868

$$$$
[H]c1nc(OC([H])([H])[H])c(N2C([H])([H])C([H])([H])OC([H])([H])C2([H])[H])c([H])c1-c1c(C([H])([H])[H])nc([H])c(N([H])C(=O)c2c([H])c([H])c([H])c(C(F)(F)F)c2[H])c1[H]


 35 38  0  0  0  0  0  0  0  0999 V2000
  155.6294  139.6798  184.3352 C   0  0  0  0  0  0  0  0  0  0  0  0
  156.0678  139.1953  185.5820 C   0  0  0  0  0  0  0  0  0  0  0  0
  155.2510  138.4385  186.3483 C   0  0  0  0  0  0  0  0  0  0  0  0
  153.9328  138.1143  185.8927 C   0  0  0  0  0  0  0  0  0  0  0  0
  153.5446  138.5788  184.7219 N   0  0  0  0  0  0  0  0  0  0  0  0
  154.3605  139.3553  183.9368 C   0  0  0  0  0  0  0  0  0  0  0  0
  153.7539  139.8667  182.6898 C   0  0  0  0  0  0  0  0  0  0  0  0
  158.0616  141.8849  181.7734 C   0  0  0  0  0  0  0  0  0  0  0  0
  156.8804  141.4236  181.3612 N   0  0  0  0  0  0  0  0  0  0  0  0
  156.0760  140.7677  182.1835 C   0  0  0  0  0  0  0  0  0  0  0  0
  156.4434  140.5419  183.5028 C   0  0  0  0  0  0  0  0  0  0  0  0
  157.6631  141.0272  183.9303 C   0  0  0  0  0  0  0  0  0  0  0  0
  158.5208  141.7150  183.0761 C   0  0  0  0  0  0  0  0  0  0  0  0
  159.7844  142.1130  183.5493 N   0  0  0  0  0  0  0  0  0  0  0  0
  160.9045  141.2574  183.6154 C   0  0  0  0  0  0  0  0  0  0  0  0
  162.0797  141.8179  184.3623 C   0  0  0  0  0  0  0  0  0  0  0  0
  161.9730  143.1076  184.8039 O   0  0  0  0  0  0  0  0  0  0  0  0
  160.7324  143.5084  185.2346 C   0  0  0  0  0  0  0  0  0  0  0  0
  159.8566  143.5352  183.9702 C   0  0  0  0  0  0  0  0  0  0  0  0
  158.6570  142.5376  179.5532 C   0  0  0  0  0  0  0  0  0  0  0  0
  158.9482  142.5674  180.9397 O   0  0  0  0  0  0  0  0  0  0  0  0
  155.4466  137.9810  187.7072 N   0  0  0  0  0  0  0  0  0  0  0  0
  155.7440  136.6441  187.9400 C   0  0  0  0  0  0  0  0  0  0  0  0
  155.9761  135.9026  186.9113 O   0  0  0  0  0  0  0  0  0  0  0  0
  155.3609  138.6671  188.4599 H   0  0  0  0  0  0  0  0  0  0  0  0
  155.8050  135.9580  189.2126 C   0  0  0  0  0  0  0  0  0  0  0  0
  156.8661  135.2381  189.6878 C   0  0  0  0  0  0  0  0  0  0  0  0
  156.8827  134.7277  191.0021 C   0  0  0  0  0  0  0  0  0  0  0  0
  155.8060  134.9514  191.8421 C   0  0  0  0  0  0  0  0  0  0  0  0
  154.7275  135.6657  191.4040 C   0  0  0  0  0  0  0  0  0  0  0  0
  154.7341  136.1535  190.1105 C   0  0  0  0  0  0  0  0  0  0  0  0
  153.5371  135.9945  192.2481 C   0  0  0  0  0  0  0  0  0  0  0  0
  152.4265  135.6146  191.5128 F   0  0  0  0  0  0  0  0  0  0  0  0
  153.4837  137.3990  192.3243 F   0  0  0  0  0  0  0  0  0  0  0  0
  153.5695  135.4469  193.4904 F   0  0  0  0  0  0  0  0  0  0  0  0
 20 21  1  0  0  0
 21  8  1  0  0  0
  8  9  2  0  0  0
  9 10  1  0  0  0
 10 11  2  0  0  0
 11 12  1  0  0  0
 12 13  2  0  0  0
 13 14  1  0  0  0
 14 15  1  0  0  0
 15 16  1  0  0  0
 16 17  1  0  0  0
 17 18  1  0  0  0
 18 19  1  0  0  0
 11  1  1  0  0  0
  1  2  2  0  0  0
  2  3  1  0  0  0
  3 22  1  0  0  0
 22 23  1  0  0  0
 23 24  2  0  0  0
 23 26  1  0  0  0
 26 27  2  0  0  0
 27 28  1  0  0  0
 28 29  2  0  0  0
 29 30  1  0  0  0
 30 31  2  0  0  0
 30 32  1  0  0  0
 32 33  1  0  0  0
 32 34  1  0  0  0
 32 35  1  0  0  0
  3  4  2  0  0  0
  4  5  1  0  0  0
  5  6  2  0  0  0
  6  7  1  0  0  0
 13  8  1  0  0  0
 19 14  1  0  0  0
  6  1  1  0  0  0
 31 26  1  0  0  0
 22 25  1  0  0  0
M  END
> <minimizedAffinity>
-8.14713

> <CNNscore>
0.3176141381

> <CNNaffinity>
6.3765587807

> <CNN_VS>
2.0252852440

> <CNNaffinity_variance>
0.0631338060

$$$$
[H]c1nc(OC([H])([H])[H])c(N2C([H])([H])C([H])([H])OC([H])([H])C2([H])[H])c([H])c1-c1c(C([H])([H])[H])nc([H])c(N([H])C(=O)c2c([H])c([H])c([H])c(C(F)(F)F)c2[H])c1[H]


 35 38  0  0  0  0  0  0  0  0999 V2000
  153.7467  138.8336  184.5597 C   0  0  0  0  0  0  0  0  0  0  0  0
  153.7823  138.5885  185.9454 C   0  0  0  0  0  0  0  0  0  0  0  0
  153.0226  137.6107  186.4876 C   0  0  0  0  0  0  0  0  0  0  0  0
  152.1805  136.8074  185.6536 C   0  0  0  0  0  0  0  0  0  0  0  0
  152.1641  137.0550  184.3591 N   0  0  0  0  0  0  0  0  0  0  0  0
  152.9241  138.0501  183.7957 C   0  0  0  0  0  0  0  0  0  0  0  0
  152.7356  138.2581  182.3446 C   0  0  0  0  0  0  0  0  0  0  0  0
  155.9076  141.7311  182.4919 C   0  0  0  0  0  0  0  0  0  0  0  0
  154.6052  141.5605  182.2624 N   0  0  0  0  0  0  0  0  0  0  0  0
  153.8975  140.6792  182.9522 C   0  0  0  0  0  0  0  0  0  0  0  0
  154.4961  139.9058  183.9371 C   0  0  0  0  0  0  0  0  0  0  0  0
  155.8428  140.0894  184.1792 C   0  0  0  0  0  0  0  0  0  0  0  0
  156.6003  141.0093  183.4592 C   0  0  0  0  0  0  0  0  0  0  0  0
  157.9844  141.0918  183.6967 N   0  0  0  0  0  0  0  0  0  0  0  0
  158.5533  141.7417  184.8126 C   0  0  0  0  0  0  0  0  0  0  0  0
  160.0436  141.9097  184.7491 C   0  0  0  0  0  0  0  0  0  0  0  0
  160.6846  141.3398  183.6843 O   0  0  0  0  0  0  0  0  0  0  0  0
  160.0193  141.3620  182.4834 C   0  0  0  0  0  0  0  0  0  0  0  0
  158.8194  140.4176  182.6705 C   0  0  0  0  0  0  0  0  0  0  0  0
  156.6057  143.9942  182.1739 C   0  0  0  0  0  0  0  0  0  0  0  0
  156.6964  142.6358  181.7804 O   0  0  0  0  0  0  0  0  0  0  0  0
  152.7966  137.3051  187.8839 N   0  0  0  0  0  0  0  0  0  0  0  0
  153.8283  136.7604  188.6380 C   0  0  0  0  0  0  0  0  0  0  0  0
  154.9908  136.6898  188.0850 O   0  0  0  0  0  0  0  0  0  0  0  0
  151.8734  137.5056  188.2741 H   0  0  0  0  0  0  0  0  0  0  0  0
  153.7594  136.2299  189.9825 C   0  0  0  0  0  0  0  0  0  0  0  0
  154.6032  135.3001  190.5242 C   0  0  0  0  0  0  0  0  0  0  0  0
  154.5419  134.9543  191.8899 C   0  0  0  0  0  0  0  0  0  0  0  0
  153.6100  135.5610  192.7134 C   0  0  0  0  0  0  0  0  0  0  0  0
  152.7496  136.4944  192.2095 C   0  0  0  0  0  0  0  0  0  0  0  0
  152.8280  136.8145  190.8669 C   0  0  0  0  0  0  0  0  0  0  0  0
  151.7376  137.2334  193.0263 C   0  0  0  0  0  0  0  0  0  0  0  0
  151.4105  136.3987  194.0820 F   0  0  0  0  0  0  0  0  0  0  0  0
  150.5779  137.3200  192.2332 F   0  0  0  0  0  0  0  0  0  0  0  0
  152.1403  138.4676  193.4248 F   0  0  0  0  0  0  0  0  0  0  0  0
 20 21  1  0  0  0
 21  8  1  0  0  0
  8  9  2  0  0  0
  9 10  1  0  0  0
 10 11  2  0  0  0
 11 12  1  0  0  0
 12 13  2  0  0  0
 13 14  1  0  0  0
 14 15  1  0  0  0
 15 16  1  0  0  0
 16 17  1  0  0  0
 17 18  1  0  0  0
 18 19  1  0  0  0
 11  1  1  0  0  0
  1  2  2  0  0  0
  2  3  1  0  0  0
  3 22  1  0  0  0
 22 23  1  0  0  0
 23 24  2  0  0  0
 23 26  1  0  0  0
 26 27  2  0  0  0
 27 28  1  0  0  0
 28 29  2  0  0  0
 29 30  1  0  0  0
 30 31  2  0  0  0
 30 32  1  0  0  0
 32 33  1  0  0  0
 32 34  1  0  0  0
 32 35  1  0  0  0
  3  4  2  0  0  0
  4  5  1  0  0  0
  5  6  2  0  0  0
  6  7  1  0  0  0
 13  8  1  0  0  0
 19 14  1  0  0  0
  6  1  1  0  0  0
 31 26  1  0  0  0
 22 25  1  0  0  0
M  END
> <minimizedAffinity>
-8.83087

> <CNNscore>
0.3031916320

> <CNNaffinity>
6.1483936310

> <CNN_VS>
1.8641414642

> <CNNaffinity_variance>
0.0498830192

$$$$
[H]c1c([H])c(N([H])C(=O)c2c(C([H])([H])[H])c(C(=O)C(=O)N([H])C3(C([H])([H])[H])C([H])([H])OC3([H])[H])c3n2C([H])([H])C([H])([H])C3([H])[H])c([H])c(Cl)c1F


 32 35  0  0  0  0  0  0  0  0999 V2000
  152.4850  139.9817  180.6718 C   0  0  0  0  0  0  0  0  0  0  0  0
  152.9261  139.4928  182.0280 C   0  0  0  0  0  0  0  0  0  0  0  0
  152.3265  138.5118  182.7711 C   0  0  0  0  0  0  0  0  0  0  0  0
  153.0528  138.3866  183.9321 C   0  0  0  0  0  0  0  0  0  0  0  0
  153.1214  137.6157  185.2007 C   0  0  0  0  0  0  0  0  0  0  0  0
  154.0184  138.4498  186.0599 C   0  0  0  0  0  0  0  0  0  0  0  0
  154.8533  139.2191  185.0770 C   0  0  0  0  0  0  0  0  0  0  0  0
  154.0521  139.2785  183.8624 N   0  0  0  0  0  0  0  0  0  0  0  0
  154.0224  139.9798  182.7194 C   0  0  0  0  0  0  0  0  0  0  0  0
  154.8983  141.0511  182.2188 C   0  0  0  0  0  0  0  0  0  0  0  0
  154.3742  142.2124  182.0933 O   0  0  0  0  0  0  0  0  0  0  0  0
  156.2481  140.8223  181.8882 N   0  0  0  0  0  0  0  0  0  0  0  0
  156.6314  139.8426  181.9859 H   0  0  0  0  0  0  0  0  0  0  0  0
  157.1532  141.7908  181.4180 C   0  0  0  0  0  0  0  0  0  0  0  0
  157.6083  141.7465  180.0860 C   0  0  0  0  0  0  0  0  0  0  0  0
  158.5072  142.6460  179.5726 C   0  0  0  0  0  0  0  0  0  0  0  0
  159.0173  143.6551  180.3516 C   0  0  0  0  0  0  0  0  0  0  0  0
  159.9087  144.5633  179.8760 F   0  0  0  0  0  0  0  0  0  0  0  0
  158.5944  143.7256  181.6540 C   0  0  0  0  0  0  0  0  0  0  0  0
  159.2369  145.0075  182.6581 Cl  0  0  0  0  0  0  0  0  0  0  0  0
  157.6712  142.7995  182.1772 C   0  0  0  0  0  0  0  0  0  0  0  0
  151.1530  137.7328  182.4350 C   0  0  0  0  0  0  0  0  0  0  0  0
  151.3259  136.5726  182.0052 O   0  0  0  0  0  0  0  0  0  0  0  0
  149.8295  138.3021  182.6001 C   0  0  0  0  0  0  0  0  0  0  0  0
  149.4351  139.2158  181.8178 O   0  0  0  0  0  0  0  0  0  0  0  0
  148.9749  137.8437  183.6300 N   0  0  0  0  0  0  0  0  0  0  0  0
  149.3071  137.0932  184.2676 H   0  0  0  0  0  0  0  0  0  0  0  0
  147.6692  138.4026  183.7962 C   0  0  0  0  0  0  0  0  0  0  0  0
  146.8115  138.4356  182.5699 C   0  0  0  0  0  0  0  0  0  0  0  0
  146.9637  137.8653  185.0422 C   0  0  0  0  0  0  0  0  0  0  0  0
  147.6857  138.8135  185.7741 O   0  0  0  0  0  0  0  0  0  0  0  0
  147.6039  139.6481  184.6577 C   0  0  0  0  0  0  0  0  0  0  0  0
  1  2  1  0  0  0
  2  3  1  0  0  0
  3 22  1  0  0  0
 22 23  2  0  0  0
 22 24  1  0  0  0
 24 25  2  0  0  0
 24 26  1  0  0  0
 26 28  1  0  0  0
 28 29  1  0  0  0
 28 30  1  0  0  0
 30 31  1  0  0  0
 31 32  1  0  0  0
  3  4  2  0  0  0
  4  5  1  0  0  0
  5  6  1  0  0  0
  6  7  1  0  0  0
  7  8  1  0  0  0
  8  9  1  0  0  0
  9 10  1  0  0  0
 10 11  2  0  0  0
 10 12  1  0  0  0
 12 14  1  0  0  0
 14 15  2  0  0  0
 15 16  1  0  0  0
 16 17  2  0  0  0
 17 18  1  0  0  0
 17 19  1  0  0  0
 19 20  1  0  0  0
 19 21  2  0  0  0
  9  2  2  0  0  0
 21 14  1  0  0  0
 32 28  1  0  0  0
  8  4  1  0  0  0
 26 27  1  0  0  0
 12 13  1  0  0  0
M  END
> <minimizedAffinity>
-8.32391

> <CNNscore>
0.7030839324

> <CNNaffinity>
6.4442443848

> <CNN_VS>
4.5308446884

> <CNNaffinity_variance>
0.0281136595

$$$$
[H]c1c([H])c(N([H])C(=O)c2c(C([H])([H])[H])c(C(=O)C(=O)N([H])C3(C([H])([H])[H])C([H])([H])OC3([H])[H])c3n2C([H])([H])C([H])([H])C3([H])[H])c([H])c(Cl)c1F


 32 35  0  0  0  0  0  0  0  0999 V2000
  156.5834  139.3391  185.3093 C   0  0  0  0  0  0  0  0  0  0  0  0
  155.2903  139.0719  184.5816 C   0  0  0  0  0  0  0  0  0  0  0  0
  154.3711  138.1052  184.8894 C   0  0  0  0  0  0  0  0  0  0  0  0
  153.3499  138.2163  183.9753 C   0  0  0  0  0  0  0  0  0  0  0  0
  152.0380  137.6287  183.5982 C   0  0  0  0  0  0  0  0  0  0  0  0
  151.8289  138.1255  182.2025 C   0  0  0  0  0  0  0  0  0  0  0  0
  152.6413  139.3869  182.1386 C   0  0  0  0  0  0  0  0  0  0  0  0
  153.6725  139.2266  183.1542 N   0  0  0  0  0  0  0  0  0  0  0  0
  154.8475  139.7852  183.4806 C   0  0  0  0  0  0  0  0  0  0  0  0
  155.5924  140.8978  182.8701 C   0  0  0  0  0  0  0  0  0  0  0  0
  155.1184  142.0740  183.0463 O   0  0  0  0  0  0  0  0  0  0  0  0
  156.7692  140.6916  182.1244 N   0  0  0  0  0  0  0  0  0  0  0  0
  157.1106  139.7014  181.9858 H   0  0  0  0  0  0  0  0  0  0  0  0
  157.5455  141.6980  181.5217 C   0  0  0  0  0  0  0  0  0  0  0  0
  157.8811  141.6107  180.1568 C   0  0  0  0  0  0  0  0  0  0  0  0
  158.6530  142.5452  179.5153 C   0  0  0  0  0  0  0  0  0  0  0  0
  159.1462  143.6349  180.1898 C   0  0  0  0  0  0  0  0  0  0  0  0
  159.9133  144.5797  179.5862 F   0  0  0  0  0  0  0  0  0  0  0  0
  158.8376  143.7489  181.5210 C   0  0  0  0  0  0  0  0  0  0  0  0
  159.4599  145.1334  182.3927 Cl  0  0  0  0  0  0  0  0  0  0  0  0
  158.0447  142.7866  182.1758 C   0  0  0  0  0  0  0  0  0  0  0  0
  154.4266  137.1339  185.9620 C   0  0  0  0  0  0  0  0  0  0  0  0
  154.7073  135.9530  185.6662 O   0  0  0  0  0  0  0  0  0  0  0  0
  154.1613  137.5419  187.3281 C   0  0  0  0  0  0  0  0  0  0  0  0
  153.3793  138.5112  187.5549 O   0  0  0  0  0  0  0  0  0  0  0  0
  154.7703  136.8643  188.4102 N   0  0  0  0  0  0  0  0  0  0  0  0
  155.4110  136.0697  188.2144 H   0  0  0  0  0  0  0  0  0  0  0  0
  154.5112  137.2637  189.7586 C   0  0  0  0  0  0  0  0  0  0  0  0
  153.1515  136.9313  190.2889 C   0  0  0  0  0  0  0  0  0  0  0  0
  155.6595  136.8999  190.7009 C   0  0  0  0  0  0  0  0  0  0  0  0
  156.2960  138.0654  190.2621 O   0  0  0  0  0  0  0  0  0  0  0  0
  155.0284  138.6375  190.1367 C   0  0  0  0  0  0  0  0  0  0  0  0
  1  2  1  0  0  0
  2  3  1  0  0  0
  3 22  1  0  0  0
 22 23  2  0  0  0
 22 24  1  0  0  0
 24 25  2  0  0  0
 24 26  1  0  0  0
 26 28  1  0  0  0
 28 29  1  0  0  0
 28 30  1  0  0  0
 30 31  1  0  0  0
 31 32  1  0  0  0
  3  4  2  0  0  0
  4  5  1  0  0  0
  5  6  1  0  0  0
  6  7  1  0  0  0
  7  8  1  0  0  0
  8  9  1  0  0  0
  9 10  1  0  0  0
 10 11  2  0  0  0
 10 12  1  0  0  0
 12 14  1  0  0  0
 14 15  2  0  0  0
 15 16  1  0  0  0
 16 17  2  0  0  0
 17 18  1  0  0  0
 17 19  1  0  0  0
 19 20  1  0  0  0
 19 21  2  0  0  0
  9  2  2  0  0  0
 21 14  1  0  0  0
 32 28  1  0  0  0
  8  4  1  0  0  0
 26 27  1  0  0  0
 12 13  1  0  0  0
M  END
> <minimizedAffinity>
-8.73114

> <CNNscore>
0.6366028190

> <CNNaffinity>
6.3227820396

> <CNN_VS>
4.0251007080

> <CNNaffinity_variance>
0.0636987835

$$$$
[H]c1c([H])c(N([H])C(=O)c2c(C([H])([H])[H])c(C(=O)C(=O)N([H])C3(C([H])([H])[H])C([H])([H])OC3([H])[H])c3n2C([H])([H])C([H])([H])C3([H])[H])c([H])c(Cl)c1F


 32 35  0  0  0  0  0  0  0  0999 V2000
  152.9938  140.0159  182.0337 C   0  0  0  0  0  0  0  0  0  0  0  0
  153.7356  139.4052  183.1954 C   0  0  0  0  0  0  0  0  0  0  0  0
  153.3120  138.3572  183.9677 C   0  0  0  0  0  0  0  0  0  0  0  0
  154.2910  138.1279  184.9057 C   0  0  0  0  0  0  0  0  0  0  0  0
  154.6452  137.2431  186.0459 C   0  0  0  0  0  0  0  0  0  0  0  0
  155.7359  137.9974  186.7385 C   0  0  0  0  0  0  0  0  0  0  0  0
  156.3271  138.8577  185.6590 C   0  0  0  0  0  0  0  0  0  0  0  0
  155.2613  139.0262  184.6811 N   0  0  0  0  0  0  0  0  0  0  0  0
  154.9736  139.8303  183.6467 C   0  0  0  0  0  0  0  0  0  0  0  0
  155.7249  140.9467  183.0512 C   0  0  0  0  0  0  0  0  0  0  0  0
  155.3676  142.1281  183.3914 O   0  0  0  0  0  0  0  0  0  0  0  0
  156.7856  140.7389  182.1482 N   0  0  0  0  0  0  0  0  0  0  0  0
  157.0304  139.7471  181.8786 H   0  0  0  0  0  0  0  0  0  0  0  0
  157.5605  141.7470  181.5468 C   0  0  0  0  0  0  0  0  0  0  0  0
  157.8942  141.6632  180.1812 C   0  0  0  0  0  0  0  0  0  0  0  0
  158.6648  142.5996  179.5409 C   0  0  0  0  0  0  0  0  0  0  0  0
  159.1584  143.6878  180.2174 C   0  0  0  0  0  0  0  0  0  0  0  0
  159.9243  144.6345  179.6149 F   0  0  0  0  0  0  0  0  0  0  0  0
  158.8517  143.7985  181.5492 C   0  0  0  0  0  0  0  0  0  0  0  0
  159.4747  145.1812  182.4234 Cl  0  0  0  0  0  0  0  0  0  0  0  0
  158.0602  142.8343  182.2029 C   0  0  0  0  0  0  0  0  0  0  0  0
  152.0780  137.6083  183.8517 C   0  0  0  0  0  0  0  0  0  0  0  0
  151.5655  137.1618  184.8999 O   0  0  0  0  0  0  0  0  0  0  0  0
  151.4749  137.3959  182.5501 C   0  0  0  0  0  0  0  0  0  0  0  0
  152.0773  136.6965  181.6837 O   0  0  0  0  0  0  0  0  0  0  0  0
  150.2173  137.9650  182.2408 N   0  0  0  0  0  0  0  0  0  0  0  0
  149.7301  138.5377  182.9582 H   0  0  0  0  0  0  0  0  0  0  0  0
  149.6194  137.7579  180.9584 C   0  0  0  0  0  0  0  0  0  0  0  0
  149.2201  136.3501  180.6431 C   0  0  0  0  0  0  0  0  0  0  0  0
  148.5456  138.8008  180.6451 C   0  0  0  0  0  0  0  0  0  0  0  0
  149.5847  139.6498  180.2507 O   0  0  0  0  0  0  0  0  0  0  0  0
  150.2666  138.5122  179.8139 C   0  0  0  0  0  0  0  0  0  0  0  0
  1  2  1  0  0  0
  2  3  1  0  0  0
  3 22  1  0  0  0
 22 23  2  0  0  0
 22 24  1  0  0  0
 24 25  2  0  0  0
 24 26  1  0  0  0
 26 28  1  0  0  0
 28 29  1  0  0  0
 28 30  1  0  0  0
 30 31  1  0  0  0
 31 32  1  0  0  0
  3  4  2  0  0  0
  4  5  1  0  0  0
  5  6  1  0  0  0
  6  7  1  0  0  0
  7  8  1  0  0  0
  8  9  1  0  0  0
  9 10  1  0  0  0
 10 11  2  0  0  0
 10 12  1  0  0  0
 12 14  1  0  0  0
 14 15  2  0  0  0
 15 16  1  0  0  0
 16 17  2  0  0  0
 17 18  1  0  0  0
 17 19  1  0  0  0
 19 20  1  0  0  0
 19 21  2  0  0  0
  9  2  2  0  0  0
 21 14  1  0  0  0
 32 28  1  0  0  0
  8  4  1  0  0  0
 26 27  1  0  0  0
 12 13  1  0  0  0
M  END
> <minimizedAffinity>
-8.45926

> <CNNscore>
0.6078064442

> <CNNaffinity>
6.4257979393

> <CNN_VS>
3.9056413174

> <CNNaffinity_variance>
0.0321421772

$$$$
[H]c1c([H])c(N([H])C(=O)c2c(C([H])([H])[H])c(C(=O)C(=O)N([H])C3(C([H])([H])[H])C([H])([H])OC3([H])[H])c3n2C([H])([H])C([H])([H])C3([H])[H])c([H])c(Cl)c1F


 32 35  0  0  0  0  0  0  0  0999 V2000
  154.4925  138.5533  189.3667 C   0  0  0  0  0  0  0  0  0  0  0  0
  155.4460  137.4288  189.0518 C   0  0  0  0  0  0  0  0  0  0  0  0
  155.9641  136.5303  189.9455 C   0  0  0  0  0  0  0  0  0  0  0  0
  156.7813  135.6828  189.2350 C   0  0  0  0  0  0  0  0  0  0  0  0
  157.6644  134.4971  189.3862 C   0  0  0  0  0  0  0  0  0  0  0  0
  158.4722  134.5092  188.1269 C   0  0  0  0  0  0  0  0  0  0  0  0
  157.6047  135.2414  187.1438 C   0  0  0  0  0  0  0  0  0  0  0  0
  156.7377  136.0838  187.9558 N   0  0  0  0  0  0  0  0  0  0  0  0
  155.9357  137.1457  187.7880 C   0  0  0  0  0  0  0  0  0  0  0  0
  155.5923  137.9179  186.5833 C   0  0  0  0  0  0  0  0  0  0  0  0
  156.4664  138.7560  186.1676 O   0  0  0  0  0  0  0  0  0  0  0  0
  154.3648  137.7538  185.9127 N   0  0  0  0  0  0  0  0  0  0  0  0
  153.6644  137.0671  186.3053 H   0  0  0  0  0  0  0  0  0  0  0  0
  153.9661  138.4401  184.7514 C   0  0  0  0  0  0  0  0  0  0  0  0
  153.1800  137.7905  183.7803 C   0  0  0  0  0  0  0  0  0  0  0  0
  152.7779  138.3952  182.6170 C   0  0  0  0  0  0  0  0  0  0  0  0
  153.1315  139.6924  182.3384 C   0  0  0  0  0  0  0  0  0  0  0  0
  152.7508  140.3225  181.1967 F   0  0  0  0  0  0  0  0  0  0  0  0
  153.8976  140.3530  183.2641 C   0  0  0  0  0  0  0  0  0  0  0  0
  154.3554  142.0074  182.9215 Cl  0  0  0  0  0  0  0  0  0  0  0  0
  154.3085  139.7280  184.4575 C   0  0  0  0  0  0  0  0  0  0  0  0
  155.7230  136.4537  191.3713 C   0  0  0  0  0  0  0  0  0  0  0  0
  156.5777  136.9503  192.1353 O   0  0  0  0  0  0  0  0  0  0  0  0
  154.5210  135.8163  191.8732 C   0  0  0  0  0  0  0  0  0  0  0  0
  154.4287  134.5537  191.8676 O   0  0  0  0  0  0  0  0  0  0  0  0
  153.4496  136.5954  192.3693 N   0  0  0  0  0  0  0  0  0  0  0  0
  153.5342  137.6312  192.3699 H   0  0  0  0  0  0  0  0  0  0  0  0
  152.2627  135.9705  192.8650 C   0  0  0  0  0  0  0  0  0  0  0  0
  152.3894  135.2850  194.1896 C   0  0  0  0  0  0  0  0  0  0  0  0
  151.0366  136.8761  192.7407 C   0  0  0  0  0  0  0  0  0  0  0  0
  150.9477  136.4553  191.4099 O   0  0  0  0  0  0  0  0  0  0  0  0
  151.4465  135.2208  191.8308 C   0  0  0  0  0  0  0  0  0  0  0  0
  1  2  1  0  0  0
  2  3  1  0  0  0
  3 22  1  0  0  0
 22 23  2  0  0  0
 22 24  1  0  0  0
 24 25  2  0  0  0
 24 26  1  0  0  0
 26 28  1  0  0  0
 28 29  1  0  0  0
 28 30  1  0  0  0
 30 31  1  0  0  0
 31 32  1  0  0  0
  3  4  2  0  0  0
  4  5  1  0  0  0
  5  6  1  0  0  0
  6  7  1  0  0  0
  7  8  1  0  0  0
  8  9  1  0  0  0
  9 10  1  0  0  0
 10 11  2  0  0  0
 10 12  1  0  0  0
 12 14  1  0  0  0
 14 15  2  0  0  0
 15 16  1  0  0  0
 16 17  2  0  0  0
 17 18  1  0  0  0
 17 19  1  0  0  0
 19 20  1  0  0  0
 19 21  2  0  0  0
  9  2  2  0  0  0
 21 14  1  0  0  0
 32 28  1  0  0  0
  8  4  1  0  0  0
 26 27  1  0  0  0
 12 13  1  0  0  0
M  END
> <minimizedAffinity>
-7.46388

> <CNNscore>
0.5919955373

> <CNNaffinity>
5.7110772133

> <CNN_VS>
3.3809323311

> <CNNaffinity_variance>
0.2418281138

$$$$
[H]c1c([H])c(N([H])C(=O)c2c(C([H])([H])[H])c(C(=O)C(=O)N([H])C3(C([H])([H])[H])C([H])([H])OC3([H])[H])c3n2C([H])([H])C([H])([H])C3([H])[H])c([H])c(Cl)c1F


 32 35  0  0  0  0  0  0  0  0999 V2000
  152.2686  140.0108  180.6716 C   0  0  0  0  0  0  0  0  0  0  0  0
  152.6702  139.4119  181.9955 C   0  0  0  0  0  0  0  0  0  0  0  0
  152.1015  138.3224  182.5987 C   0  0  0  0  0  0  0  0  0  0  0  0
  152.7723  138.1229  183.7825 C   0  0  0  0  0  0  0  0  0  0  0  0
  152.8270  137.2295  184.9688 C   0  0  0  0  0  0  0  0  0  0  0  0
  153.6174  138.0244  185.9597 C   0  0  0  0  0  0  0  0  0  0  0  0
  154.4478  138.9437  185.1110 C   0  0  0  0  0  0  0  0  0  0  0  0
  153.7098  139.0788  183.8629 N   0  0  0  0  0  0  0  0  0  0  0  0
  153.6920  139.8925  182.7967 C   0  0  0  0  0  0  0  0  0  0  0  0
  154.5169  141.0636  182.4598 C   0  0  0  0  0  0  0  0  0  0  0  0
  153.9103  142.1871  182.3634 O   0  0  0  0  0  0  0  0  0  0  0  0
  155.9060  140.9662  182.2490 N   0  0  0  0  0  0  0  0  0  0  0  0
  156.3599  140.0145  182.3163 H   0  0  0  0  0  0  0  0  0  0  0  0
  156.7656  142.0352  181.9380 C   0  0  0  0  0  0  0  0  0  0  0  0
  156.7454  143.2088  182.7161 C   0  0  0  0  0  0  0  0  0  0  0  0
  157.5405  144.2946  182.4523 C   0  0  0  0  0  0  0  0  0  0  0  0
  158.4136  144.2878  181.3925 C   0  0  0  0  0  0  0  0  0  0  0  0
  159.2159  145.3450  181.1024 F   0  0  0  0  0  0  0  0  0  0  0  0
  158.4570  143.1594  180.6147 C   0  0  0  0  0  0  0  0  0  0  0  0
  159.5658  143.1375  179.2604 Cl  0  0  0  0  0  0  0  0  0  0  0  0
  157.6384  142.0467  180.8891 C   0  0  0  0  0  0  0  0  0  0  0  0
  151.0042  137.5100  182.1163 C   0  0  0  0  0  0  0  0  0  0  0  0
  149.9555  138.0928  181.7681 O   0  0  0  0  0  0  0  0  0  0  0  0
  151.1410  136.0679  182.0485 C   0  0  0  0  0  0  0  0  0  0  0  0
  152.1554  135.5574  181.4891 O   0  0  0  0  0  0  0  0  0  0  0  0
  150.1484  135.2263  182.6031 N   0  0  0  0  0  0  0  0  0  0  0  0
  149.3190  135.6542  183.0604 H   0  0  0  0  0  0  0  0  0  0  0  0
  150.2797  133.8038  182.5382 C   0  0  0  0  0  0  0  0  0  0  0  0
  151.3418  133.2052  183.4066 C   0  0  0  0  0  0  0  0  0  0  0  0
  148.9278  133.0934  182.6186 C   0  0  0  0  0  0  0  0  0  0  0  0
  148.7915  133.3481  181.2502 O   0  0  0  0  0  0  0  0  0  0  0  0
  150.1771  133.2079  181.1482 C   0  0  0  0  0  0  0  0  0  0  0  0
  1  2  1  0  0  0
  2  3  1  0  0  0
  3 22  1  0  0  0
 22 23  2  0  0  0
 22 24  1  0  0  0
 24 25  2  0  0  0
 24 26  1  0  0  0
 26 28  1  0  0  0
 28 29  1  0  0  0
 28 30  1  0  0  0
 30 31  1  0  0  0
 31 32  1  0  0  0
  3  4  2  0  0  0
  4  5  1  0  0  0
  5  6  1  0  0  0
  6  7  1  0  0  0
  7  8  1  0  0  0
  8  9  1  0  0  0
  9 10  1  0  0  0
 10 11  2  0  0  0
 10 12  1  0  0  0
 12 14  1  0  0  0
 14 15  2  0  0  0
 15 16  1  0  0  0
 16 17  2  0  0  0
 17 18  1  0  0  0
 17 19  1  0  0  0
 19 20  1  0  0  0
 19 21  2  0  0  0
  9  2  2  0  0  0
 21 14  1  0  0  0
 32 28  1  0  0  0
  8  4  1  0  0  0
 26 27  1  0  0  0
 12 13  1  0  0  0
M  END
> <minimizedAffinity>
-6.98558

> <CNNscore>
0.5413488150

> <CNNaffinity>
6.2022714615

> <CNN_VS>
3.3575923443

> <CNNaffinity_variance>
0.0789296478

$$$$
[H]c1c([H])c(N([H])C(=O)c2c(C([H])([H])[H])c(C(=O)C(=O)N([H])C3(C([H])([H])[H])C([H])([H])OC3([H])[H])c3n2C([H])([H])C([H])([H])C3([H])[H])c([H])c(Cl)c1F


 32 35  0  0  0  0  0  0  0  0999 V2000
  155.7780  139.3791  184.9124 C   0  0  0  0  0  0  0  0  0  0  0  0
  154.5834  139.1872  184.0131 C   0  0  0  0  0  0  0  0  0  0  0  0
  153.5965  138.2505  184.1642 C   0  0  0  0  0  0  0  0  0  0  0  0
  152.7096  138.4308  183.1288 C   0  0  0  0  0  0  0  0  0  0  0  0
  151.4382  137.9093  182.5631 C   0  0  0  0  0  0  0  0  0  0  0  0
  151.4338  138.4555  181.1703 C   0  0  0  0  0  0  0  0  0  0  0  0
  152.2936  139.6836  181.2571 C   0  0  0  0  0  0  0  0  0  0  0  0
  153.1751  139.4508  182.3926 N   0  0  0  0  0  0  0  0  0  0  0  0
  154.3165  139.9506  182.8892 C   0  0  0  0  0  0  0  0  0  0  0  0
  155.1762  141.0490  182.4205 C   0  0  0  0  0  0  0  0  0  0  0  0
  154.7493  142.2397  182.6189 O   0  0  0  0  0  0  0  0  0  0  0  0
  156.4093  140.8151  181.7815 N   0  0  0  0  0  0  0  0  0  0  0  0
  156.7103  139.8156  181.6184 H   0  0  0  0  0  0  0  0  0  0  0  0
  157.2937  141.8054  181.3172 C   0  0  0  0  0  0  0  0  0  0  0  0
  157.7558  141.7744  179.9873 C   0  0  0  0  0  0  0  0  0  0  0  0
  158.6359  142.6956  179.4798 C   0  0  0  0  0  0  0  0  0  0  0  0
  159.1187  143.7148  180.2632 C   0  0  0  0  0  0  0  0  0  0  0  0
  159.9909  144.6445  179.7934 F   0  0  0  0  0  0  0  0  0  0  0  0
  158.6883  143.7728  181.5637 C   0  0  0  0  0  0  0  0  0  0  0  0
  159.2961  145.0672  182.5732 Cl  0  0  0  0  0  0  0  0  0  0  0  0
  157.7845  142.8244  182.0808 C   0  0  0  0  0  0  0  0  0  0  0  0
  153.4738  137.2464  185.2003 C   0  0  0  0  0  0  0  0  0  0  0  0
  154.4006  136.4176  185.3225 O   0  0  0  0  0  0  0  0  0  0  0  0
  152.3038  137.2231  186.0567 C   0  0  0  0  0  0  0  0  0  0  0  0
  152.2155  138.0345  187.0243 O   0  0  0  0  0  0  0  0  0  0  0  0
  151.2591  136.2994  185.8188 N   0  0  0  0  0  0  0  0  0  0  0  0
  151.3402  135.6369  185.0222 H   0  0  0  0  0  0  0  0  0  0  0  0
  150.1038  136.2732  186.6611 C   0  0  0  0  0  0  0  0  0  0  0  0
  149.1408  137.4056  186.4849 C   0  0  0  0  0  0  0  0  0  0  0  0
  149.4487  134.8919  186.7025 C   0  0  0  0  0  0  0  0  0  0  0  0
  150.4067  134.5435  187.6600 O   0  0  0  0  0  0  0  0  0  0  0  0
  150.3609  135.8683  188.0990 C   0  0  0  0  0  0  0  0  0  0  0  0
  1  2  1  0  0  0
  2  3  1  0  0  0
  3 22  1  0  0  0
 22 23  2  0  0  0
 22 24  1  0  0  0
 24 25  2  0  0  0
 24 26  1  0  0  0
 26 28  1  0  0  0
 28 29  1  0  0  0
 28 30  1  0  0  0
 30 31  1  0  0  0
 31 32  1  0  0  0
  3  4  2  0  0  0
  4  5  1  0  0  0
  5  6  1  0  0  0
  6  7  1  0  0  0
  7  8  1  0  0  0
  8  9  1  0  0  0
  9 10  1  0  0  0
 10 11  2  0  0  0
 10 12  1  0  0  0
 12 14  1  0  0  0
 14 15  2  0  0  0
 15 16  1  0  0  0
 16 17  2  0  0  0
 17 18  1  0  0  0
 17 19  1  0  0  0
 19 20  1  0  0  0
 19 21  2  0  0  0
  9  2  2  0  0  0
 21 14  1  0  0  0
 32 28  1  0  0  0
  8  4  1  0  0  0
 26 27  1  0  0  0
 12 13  1  0  0  0
M  END
> <minimizedAffinity>
-7.93105

> <CNNscore>
0.5411809683

> <CNNaffinity>
6.0952582359

> <CNN_VS>
3.2986378670

> <CNNaffinity_variance>
0.0614992492

$$$$
[H]c1c([H])c(N([H])C(=O)c2c(C([H])([H])[H])c(C(=O)C(=O)N([H])C3(C([H])([H])[H])C([H])([H])OC3([H])[H])c3n2C([H])([H])C([H])([H])C3([H])[H])c([H])c(Cl)c1F


 32 35  0  0  0  0  0  0  0  0999 V2000
  154.5446  138.4819  189.3722 C   0  0  0  0  0  0  0  0  0  0  0  0
  155.5016  137.3564  189.0721 C   0  0  0  0  0  0  0  0  0  0  0  0
  156.0130  136.4638  189.9754 C   0  0  0  0  0  0  0  0  0  0  0  0
  156.8368  135.6127  189.2769 C   0  0  0  0  0  0  0  0  0  0  0  0
  157.7196  134.4288  189.4425 C   0  0  0  0  0  0  0  0  0  0  0  0
  158.5379  134.4340  188.1900 C   0  0  0  0  0  0  0  0  0  0  0  0
  157.6780  135.1595  187.1953 C   0  0  0  0  0  0  0  0  0  0  0  0
  156.8035  136.0059  187.9950 N   0  0  0  0  0  0  0  0  0  0  0  0
  156.0020  137.0661  187.8141 C   0  0  0  0  0  0  0  0  0  0  0  0
  155.6681  137.8307  186.6019 C   0  0  0  0  0  0  0  0  0  0  0  0
  156.5408  138.6739  186.1938 O   0  0  0  0  0  0  0  0  0  0  0  0
  154.4504  137.6543  185.9165 N   0  0  0  0  0  0  0  0  0  0  0  0
  153.7504  136.9639  186.3031 H   0  0  0  0  0  0  0  0  0  0  0  0
  154.0613  138.3328  184.7475 C   0  0  0  0  0  0  0  0  0  0  0  0
  154.4077  139.6857  184.5659 C   0  0  0  0  0  0  0  0  0  0  0  0
  154.0398  140.4100  183.4610 C   0  0  0  0  0  0  0  0  0  0  0  0
  153.2991  139.8364  182.4571 C   0  0  0  0  0  0  0  0  0  0  0  0
  152.9177  140.5237  181.3490 F   0  0  0  0  0  0  0  0  0  0  0  0
  152.9450  138.5199  182.6038 C   0  0  0  0  0  0  0  0  0  0  0  0
  152.0008  137.7764  181.3311 Cl  0  0  0  0  0  0  0  0  0  0  0  0
  153.3248  137.7799  183.7404 C   0  0  0  0  0  0  0  0  0  0  0  0
  155.7601  136.3956  191.3996 C   0  0  0  0  0  0  0  0  0  0  0  0
  156.6037  136.9052  192.1672 O   0  0  0  0  0  0  0  0  0  0  0  0
  154.5593  135.7514  191.8957 C   0  0  0  0  0  0  0  0  0  0  0  0
  154.4448  134.4927  191.8244 O   0  0  0  0  0  0  0  0  0  0  0  0
  153.5137  136.5197  192.4593 N   0  0  0  0  0  0  0  0  0  0  0  0
  153.6164  137.5524  192.5136 H   0  0  0  0  0  0  0  0  0  0  0  0
  152.3281  135.8882  192.9495 C   0  0  0  0  0  0  0  0  0  0  0  0
  152.4839  135.0926  194.2079 C   0  0  0  0  0  0  0  0  0  0  0  0
  151.1259  136.8335  192.9484 C   0  0  0  0  0  0  0  0  0  0  0  0
  150.9744  136.5264  191.5924 O   0  0  0  0  0  0  0  0  0  0  0  0
  151.4514  135.2485  191.8912 C   0  0  0  0  0  0  0  0  0  0  0  0
  1  2  1  0  0  0
  2  3  1  0  0  0
  3 22  1  0  0  0
 22 23  2  0  0  0
 22 24  1  0  0  0
 24 25  2  0  0  0
 24 26  1  0  0  0
 26 28  1  0  0  0
 28 29  1  0  0  0
 28 30  1  0  0  0
 30 31  1  0  0  0
 31 32  1  0  0  0
  3  4  2  0  0  0
  4  5  1  0  0  0
  5  6  1  0  0  0
  6  7  1  0  0  0
  7  8  1  0  0  0
  8  9  1  0  0  0
  9 10  1  0  0  0
 10 11  2  0  0  0
 10 12  1  0  0  0
 12 14  1  0  0  0
 14 15  2  0  0  0
 15 16  1  0  0  0
 16 17  2  0  0  0
 17 18  1  0  0  0
 17 19  1  0  0  0
 19 20  1  0  0  0
 19 21  2  0  0  0
  9  2  2  0  0  0
 21 14  1  0  0  0
 32 28  1  0  0  0
  8  4  1  0  0  0
 26 27  1  0  0  0
 12 13  1  0  0  0
M  END
> <minimizedAffinity>
-7.36616

> <CNNscore>
0.5345845222

> <CNNaffinity>
5.6516137123

> <CNN_VS>
3.0212652683

> <CNNaffinity_variance>
0.2035486251

$$$$
[H]c1c([H])c(N([H])C(=O)c2c(C([H])([H])[H])c(C(=O)C(=O)N([H])C3(C([H])([H])[H])C([H])([H])OC3([H])[H])c3n2C([H])([H])C([H])([H])C3([H])[H])c([H])c(Cl)c1F


 32 35  0  0  0  0  0  0  0  0999 V2000
  154.7894  137.9932  185.4169 C   0  0  0  0  0  0  0  0  0  0  0  0
  153.9810  138.5105  184.2542 C   0  0  0  0  0  0  0  0  0  0  0  0
  152.8118  137.9799  183.7792 C   0  0  0  0  0  0  0  0  0  0  0  0
  152.4187  138.7602  182.7173 C   0  0  0  0  0  0  0  0  0  0  0  0
  151.3444  138.9120  181.7018 C   0  0  0  0  0  0  0  0  0  0  0  0
  151.9630  139.8148  180.6816 C   0  0  0  0  0  0  0  0  0  0  0  0
  153.0025  140.5776  181.4515 C   0  0  0  0  0  0  0  0  0  0  0  0
  153.3429  139.7225  182.5801 N   0  0  0  0  0  0  0  0  0  0  0  0
  154.3188  139.6176  183.4943 C   0  0  0  0  0  0  0  0  0  0  0  0
  155.5238  140.4313  183.7207 C   0  0  0  0  0  0  0  0  0  0  0  0
  155.3470  141.6882  183.8886 O   0  0  0  0  0  0  0  0  0  0  0  0
  156.8139  139.8674  183.7511 N   0  0  0  0  0  0  0  0  0  0  0  0
  156.9136  138.8288  183.5846 H   0  0  0  0  0  0  0  0  0  0  0  0
  158.0116  140.5704  183.9744 C   0  0  0  0  0  0  0  0  0  0  0  0
  158.9547  140.7088  182.9378 C   0  0  0  0  0  0  0  0  0  0  0  0
  160.1503  141.3614  183.0967 C   0  0  0  0  0  0  0  0  0  0  0  0
  160.4914  141.9234  184.3023 C   0  0  0  0  0  0  0  0  0  0  0  0
  161.6666  142.5772  184.4951 F   0  0  0  0  0  0  0  0  0  0  0  0
  159.5944  141.8057  185.3326 C   0  0  0  0  0  0  0  0  0  0  0  0
  160.0169  142.5177  186.8749 Cl  0  0  0  0  0  0  0  0  0  0  0  0
  158.3677  141.1343  185.1650 C   0  0  0  0  0  0  0  0  0  0  0  0
  152.0954  136.8218  184.2718 C   0  0  0  0  0  0  0  0  0  0  0  0
  152.3813  135.7077  183.7841 O   0  0  0  0  0  0  0  0  0  0  0  0
  151.0829  136.9747  185.2986 C   0  0  0  0  0  0  0  0  0  0  0  0
  151.4106  137.3882  186.4493 O   0  0  0  0  0  0  0  0  0  0  0  0
  149.7302  136.6649  185.0239 N   0  0  0  0  0  0  0  0  0  0  0  0
  149.4704  136.3260  184.0763 H   0  0  0  0  0  0  0  0  0  0  0  0
  148.7289  136.8142  186.0337 C   0  0  0  0  0  0  0  0  0  0  0  0
  148.3030  138.2184  186.3292 C   0  0  0  0  0  0  0  0  0  0  0  0
  147.5712  135.8317  185.8509 C   0  0  0  0  0  0  0  0  0  0  0  0
  148.3692  134.8803  186.4944 O   0  0  0  0  0  0  0  0  0  0  0  0
  148.9006  135.9270  187.2507 C   0  0  0  0  0  0  0  0  0  0  0  0
  1  2  1  0  0  0
  2  3  1  0  0  0
  3 22  1  0  0  0
 22 23  2  0  0  0
 22 24  1  0  0  0
 24 25  2  0  0  0
 24 26  1  0  0  0
 26 28  1  0  0  0
 28 29  1  0  0  0
 28 30  1  0  0  0
 30 31  1  0  0  0
 31 32  1  0  0  0
  3  4  2  0  0  0
  4  5  1  0  0  0
  5  6  1  0  0  0
  6  7  1  0  0  0
  7  8  1  0  0  0
  8  9  1  0  0  0
  9 10  1  0  0  0
 10 11  2  0  0  0
 10 12  1  0  0  0
 12 14  1  0  0  0
 14 15  2  0  0  0
 15 16  1  0  0  0
 16 17  2  0  0  0
 17 18  1  0  0  0
 17 19  1  0  0  0
 19 20  1  0  0  0
 19 21  2  0  0  0
  9  2  2  0  0  0
 21 14  1  0  0  0
 32 28  1  0  0  0
  8  4  1  0  0  0
 26 27  1  0  0  0
 12 13  1  0  0  0
M  END
> <minimizedAffinity>
-7.80605

> <CNNscore>
0.5325000286

> <CNNaffinity>
6.0175628662

> <CNN_VS>
3.2043523788

> <CNNaffinity_variance>
0.0919592306

$$$$
[H]c1c([H])c(N([H])C(=O)c2c(C([H])([H])[H])c(C(=O)C(=O)N([H])C3(C([H])([H])[H])C([H])([H])OC3([H])[H])c3n2C([H])([H])C([H])([H])C3([H])[H])c([H])c(Cl)c1F


 32 35  0  0  0  0  0  0  0  0999 V2000
  155.1238  139.3873  184.5107 C   0  0  0  0  0  0  0  0  0  0  0  0
  154.0372  139.3188  183.4679 C   0  0  0  0  0  0  0  0  0  0  0  0
  153.0680  138.3570  183.3683 C   0  0  0  0  0  0  0  0  0  0  0  0
  152.2908  138.6809  182.2811 C   0  0  0  0  0  0  0  0  0  0  0  0
  151.1024  138.2348  181.5084 C   0  0  0  0  0  0  0  0  0  0  0  0
  151.2292  138.9866  180.2211 C   0  0  0  0  0  0  0  0  0  0  0  0
  152.0381  140.1985  180.5842 C   0  0  0  0  0  0  0  0  0  0  0  0
  152.8010  139.8072  181.7614 N   0  0  0  0  0  0  0  0  0  0  0  0
  153.8682  140.2407  182.4487 C   0  0  0  0  0  0  0  0  0  0  0  0
  154.7397  141.4090  182.2465 C   0  0  0  0  0  0  0  0  0  0  0  0
  154.2124  142.5605  182.4338 O   0  0  0  0  0  0  0  0  0  0  0  0
  156.0889  141.2801  181.8636 N   0  0  0  0  0  0  0  0  0  0  0  0
  156.4749  140.3106  181.6979 H   0  0  0  0  0  0  0  0  0  0  0  0
  156.9900  142.3414  181.6635 C   0  0  0  0  0  0  0  0  0  0  0  0
  157.0150  143.4271  182.5601 C   0  0  0  0  0  0  0  0  0  0  0  0
  157.8521  144.5027  182.4089 C   0  0  0  0  0  0  0  0  0  0  0  0
  158.7253  144.5728  181.3514 C   0  0  0  0  0  0  0  0  0  0  0  0
  159.5686  145.6225  181.1709 F   0  0  0  0  0  0  0  0  0  0  0  0
  158.7253  143.5312  180.4596 C   0  0  0  0  0  0  0  0  0  0  0  0
  159.8336  143.6079  179.1070 Cl  0  0  0  0  0  0  0  0  0  0  0  0
  157.8636  142.4286  180.6187 C   0  0  0  0  0  0  0  0  0  0  0  0
  152.8663  137.2053  184.2225 C   0  0  0  0  0  0  0  0  0  0  0  0
  152.4192  137.4025  185.3723 O   0  0  0  0  0  0  0  0  0  0  0  0
  153.1803  135.8752  183.7375 C   0  0  0  0  0  0  0  0  0  0  0  0
  154.3887  135.5273  183.5916 O   0  0  0  0  0  0  0  0  0  0  0  0
  152.1455  134.9625  183.4258 N   0  0  0  0  0  0  0  0  0  0  0  0
  151.1563  135.2568  183.5486 H   0  0  0  0  0  0  0  0  0  0  0  0
  152.4511  133.6501  182.9472 C   0  0  0  0  0  0  0  0  0  0  0  0
  153.0721  132.7199  183.9420 C   0  0  0  0  0  0  0  0  0  0  0  0
  151.2955  133.0401  182.1525 C   0  0  0  0  0  0  0  0  0  0  0  0
  151.7582  133.7705  181.0533 O   0  0  0  0  0  0  0  0  0  0  0  0
  153.0490  133.5924  181.5555 C   0  0  0  0  0  0  0  0  0  0  0  0
  1  2  1  0  0  0
  2  3  1  0  0  0
  3 22  1  0  0  0
 22 23  2  0  0  0
 22 24  1  0  0  0
 24 25  2  0  0  0
 24 26  1  0  0  0
 26 28  1  0  0  0
 28 29  1  0  0  0
 28 30  1  0  0  0
 30 31  1  0  0  0
 31 32  1  0  0  0
  3  4  2  0  0  0
  4  5  1  0  0  0
  5  6  1  0  0  0
  6  7  1  0  0  0
  7  8  1  0  0  0
  8  9  1  0  0  0
  9 10  1  0  0  0
 10 11  2  0  0  0
 10 12  1  0  0  0
 12 14  1  0  0  0
 14 15  2  0  0  0
 15 16  1  0  0  0
 16 17  2  0  0  0
 17 18  1  0  0  0
 17 19  1  0  0  0
 19 20  1  0  0  0
 19 21  2  0  0  0
  9  2  2  0  0  0
 21 14  1  0  0  0
 32 28  1  0  0  0
  8  4  1  0  0  0
 26 27  1  0  0  0
 12 13  1  0  0  0
M  END
> <minimizedAffinity>
-7.52735

> <CNNscore>
0.5257775187

> <CNNaffinity>
6.1353149414

> <CNN_VS>
3.2258107662

> <CNNaffinity_variance>
0.0781702474

$$$$
[H]C([H])=C([H])C(=O)N1C([H])([H])C([H])([H])C([H])([H])[C@@]([H])(N([H])c2c(F)c([H])c(C(=O)N([H])[H])c3c2c(C([H])([H])[H])c(C([H])([H])[H])n3[H])C1([H])[H]


 30 32  0  0  0  0  0  0  0  0999 V2000
  159.3871  145.5695  181.2376 C   0  0  0  0  0  0  0  0  0  0  0  0
  159.2995  144.4202  182.1671 C   0  0  0  0  0  0  0  0  0  0  0  0
  159.8723  144.3019  183.3763 N   0  0  0  0  0  0  0  0  0  0  0  0
  159.5809  143.1225  183.9447 C   0  0  0  0  0  0  0  0  0  0  0  0
  159.8967  142.4839  185.1189 C   0  0  0  0  0  0  0  0  0  0  0  0
  159.4172  141.1963  185.3925 C   0  0  0  0  0  0  0  0  0  0  0  0
  158.6154  140.5316  184.4966 C   0  0  0  0  0  0  0  0  0  0  0  0
  158.1798  139.2544  184.7642 F   0  0  0  0  0  0  0  0  0  0  0  0
  158.2924  141.1670  183.3177 C   0  0  0  0  0  0  0  0  0  0  0  0
  158.7647  142.4577  183.0213 C   0  0  0  0  0  0  0  0  0  0  0  0
  158.5880  143.2540  181.9191 C   0  0  0  0  0  0  0  0  0  0  0  0
  157.8178  142.9099  180.7080 C   0  0  0  0  0  0  0  0  0  0  0  0
  160.4781  145.0481  183.8228 H   0  0  0  0  0  0  0  0  0  0  0  0
  160.7375  143.1459  186.0950 C   0  0  0  0  0  0  0  0  0  0  0  0
  160.3869  143.0038  187.4827 N   0  0  0  0  0  0  0  0  0  0  0  0
  161.7297  143.8180  185.7868 O   0  0  0  0  0  0  0  0  0  0  0  0
  159.4749  143.3736  187.8404 H   0  0  0  0  0  0  0  0  0  0  0  0
  161.0844  142.5190  188.0979 H   0  0  0  0  0  0  0  0  0  0  0  0
  157.4350  140.4584  182.4286 N   0  0  0  0  0  0  0  0  0  0  0  0
  157.9144  139.9655  181.6150 H   0  0  0  0  0  0  0  0  0  0  0  0
  156.0132  140.3531  182.5318 C   0  0  0  0  0  0  0  0  0  0  0  0
  155.2359  141.6410  182.4541 C   0  0  0  0  0  0  0  0  0  0  0  0
  153.7372  141.3737  182.5913 C   0  0  0  0  0  0  0  0  0  0  0  0
  153.4281  139.8943  182.6431 C   0  0  0  0  0  0  0  0  0  0  0  0
  154.2189  139.3053  183.6832 N   0  0  0  0  0  0  0  0  0  0  0  0
  155.6159  139.6669  183.8190 C   0  0  0  0  0  0  0  0  0  0  0  0
  153.6692  138.3700  184.5922 C   0  0  0  0  0  0  0  0  0  0  0  0
  152.4639  138.0559  184.4776 O   0  0  0  0  0  0  0  0  0  0  0  0
  154.4646  137.7818  185.6334 C   0  0  0  0  0  0  0  0  0  0  0  0
  154.2929  138.1291  186.8929 C   0  0  0  0  0  0  0  0  0  0  0  0
  1  2  1  0  0  0
  2  3  1  0  0  0
  3  4  1  0  0  0
  4  5  2  0  0  0
  5  6  1  0  0  0
  6  7  2  0  0  0
  7  8  1  0  0  0
  7  9  1  0  0  0
  9 19  1  0  0  0
 19 21  1  0  0  0
 21 22  1  0  0  0
 22 23  1  0  0  0
 23 24  1  0  0  0
 24 25  1  0  0  0
 25 26  1  0  0  0
 25 27  1  0  0  0
 27 28  2  0  0  0
 27 29  1  0  0  0
 29 30  2  0  0  0
  9 10  2  0  0  0
 10 11  1  0  0  0
 11 12  1  0  0  0
  5 14  1  0  0  0
 14 15  1  0  0  0
 14 16  2  0  0  0
 11  2  2  0  0  0
 10  4  1  0  0  0
 26 21  1  0  0  0
  3 13  1  0  0  0
 19 20  1  0  0  0
 15 17  1  0  0  0
 15 18  1  0  0  0
M  END
> <minimizedAffinity>
-7.91474

> <CNNscore>
0.4856172204

> <CNNaffinity>
6.8083715439

> <CNN_VS>
3.3062624931

> <CNNaffinity_variance>
0.0765323341

$$$$
[H]C([H])=C([H])C(=O)N1C([H])([H])C([H])([H])C([H])([H])[C@@]([H])(N([H])c2c(F)c([H])c(C(=O)N([H])[H])c3c2c(C([H])([H])[H])c(C([H])([H])[H])n3[H])C1([H])[H]


 30 32  0  0  0  0  0  0  0  0999 V2000
  154.2892  142.6282  182.5886 C   0  0  0  0  0  0  0  0  0  0  0  0
  153.7235  141.2713  182.4117 C   0  0  0  0  0  0  0  0  0  0  0  0
  152.8462  140.8672  181.4784 N   0  0  0  0  0  0  0  0  0  0  0  0
  152.5493  139.5662  181.6137 C   0  0  0  0  0  0  0  0  0  0  0  0
  151.7324  138.6650  180.9757 C   0  0  0  0  0  0  0  0  0  0  0  0
  151.6455  137.3358  181.4096 C   0  0  0  0  0  0  0  0  0  0  0  0
  152.3747  136.8905  182.4854 C   0  0  0  0  0  0  0  0  0  0  0  0
  152.2535  135.5912  182.9207 F   0  0  0  0  0  0  0  0  0  0  0  0
  153.1981  137.7883  183.1286 C   0  0  0  0  0  0  0  0  0  0  0  0
  153.2986  139.1273  182.7122 C   0  0  0  0  0  0  0  0  0  0  0  0
  154.0258  140.1772  183.2113 C   0  0  0  0  0  0  0  0  0  0  0  0
  154.9212  140.1395  184.3841 C   0  0  0  0  0  0  0  0  0  0  0  0
  152.4408  141.4989  180.7302 H   0  0  0  0  0  0  0  0  0  0  0  0
  150.9459  139.0878  179.8353 C   0  0  0  0  0  0  0  0  0  0  0  0
  149.7077  138.3994  179.5872 N   0  0  0  0  0  0  0  0  0  0  0  0
  151.2920  140.0035  179.0783 O   0  0  0  0  0  0  0  0  0  0  0  0
  149.7048  137.3769  179.3617 H   0  0  0  0  0  0  0  0  0  0  0  0
  148.8305  138.9714  179.6448 H   0  0  0  0  0  0  0  0  0  0  0  0
  153.9604  137.2818  184.2197 N   0  0  0  0  0  0  0  0  0  0  0  0
  155.0049  137.1683  184.0436 H   0  0  0  0  0  0  0  0  0  0  0  0
  153.4547  136.9196  185.5066 C   0  0  0  0  0  0  0  0  0  0  0  0
  152.0819  137.4302  185.8580 C   0  0  0  0  0  0  0  0  0  0  0  0
  151.6821  136.9758  187.2616 C   0  0  0  0  0  0  0  0  0  0  0  0
  152.7061  136.0427  187.8680 C   0  0  0  0  0  0  0  0  0  0  0  0
  153.9877  136.6814  187.8092 N   0  0  0  0  0  0  0  0  0  0  0  0
  154.3945  137.3714  186.6012 C   0  0  0  0  0  0  0  0  0  0  0  0
  154.8781  136.6580  188.9092 C   0  0  0  0  0  0  0  0  0  0  0  0
  154.5300  136.0634  189.9531 O   0  0  0  0  0  0  0  0  0  0  0  0
  156.1617  137.2992  188.8469 C   0  0  0  0  0  0  0  0  0  0  0  0
  156.6304  137.9744  189.8768 C   0  0  0  0  0  0  0  0  0  0  0  0
  1  2  1  0  0  0
  2  3  1  0  0  0
  3  4  1  0  0  0
  4  5  2  0  0  0
  5  6  1  0  0  0
  6  7  2  0  0  0
  7  8  1  0  0  0
  7  9  1  0  0  0
  9 19  1  0  0  0
 19 21  1  0  0  0
 21 22  1  0  0  0
 22 23  1  0  0  0
 23 24  1  0  0  0
 24 25  1  0  0  0
 25 26  1  0  0  0
 25 27  1  0  0  0
 27 28  2  0  0  0
 27 29  1  0  0  0
 29 30  2  0  0  0
  9 10  2  0  0  0
 10 11  1  0  0  0
 11 12  1  0  0  0
  5 14  1  0  0  0
 14 15  1  0  0  0
 14 16  2  0  0  0
 11  2  2  0  0  0
 10  4  1  0  0  0
 26 21  1  0  0  0
  3 13  1  0  0  0
 19 20  1  0  0  0
 15 17  1  0  0  0
 15 18  1  0  0  0
M  END
> <minimizedAffinity>
-6.70504

> <CNNscore>
0.4448592961

> <CNNaffinity>
5.5931825638

> <CNN_VS>
2.4881792068

> <CNNaffinity_variance>
0.0630283058

$$$$
[H]C([H])=C([H])C(=O)N1C([H])([H])C([H])([H])C([H])([H])[C@@]([H])(N([H])c2c(F)c([H])c(C(=O)N([H])[H])c3c2c(C([H])([H])[H])c(C([H])([H])[H])n3[H])C1([H])[H]


 30 32  0  0  0  0  0  0  0  0999 V2000
  153.9940  136.3519  185.3827 C   0  0  0  0  0  0  0  0  0  0  0  0
  153.9021  137.5763  184.5551 C   0  0  0  0  0  0  0  0  0  0  0  0
  153.0064  137.8455  183.5911 N   0  0  0  0  0  0  0  0  0  0  0  0
  153.2188  139.0525  183.0462 C   0  0  0  0  0  0  0  0  0  0  0  0
  152.6449  139.8048  182.0507 C   0  0  0  0  0  0  0  0  0  0  0  0
  153.1537  141.0659  181.7137 C   0  0  0  0  0  0  0  0  0  0  0  0
  154.2415  141.5910  182.3681 C   0  0  0  0  0  0  0  0  0  0  0  0
  154.7507  142.8159  182.0034 F   0  0  0  0  0  0  0  0  0  0  0  0
  154.8208  140.8431  183.3695 C   0  0  0  0  0  0  0  0  0  0  0  0
  154.3286  139.5742  183.7222 C   0  0  0  0  0  0  0  0  0  0  0  0
  154.7570  138.6658  184.6556 C   0  0  0  0  0  0  0  0  0  0  0  0
  155.9162  138.8201  185.5561 C   0  0  0  0  0  0  0  0  0  0  0  0
  152.2302  137.1854  183.2995 H   0  0  0  0  0  0  0  0  0  0  0  0
  151.4947  139.2936  181.3339 C   0  0  0  0  0  0  0  0  0  0  0  0
  151.4864  139.4306  179.9022 N   0  0  0  0  0  0  0  0  0  0  0  0
  150.5345  138.7522  181.8961 O   0  0  0  0  0  0  0  0  0  0  0  0
  151.4906  140.3795  179.4597 H   0  0  0  0  0  0  0  0  0  0  0  0
  151.4760  138.5429  179.3437 H   0  0  0  0  0  0  0  0  0  0  0  0
  155.9267  141.4339  184.0446 N   0  0  0  0  0  0  0  0  0  0  0  0
  155.7126  141.8723  184.9916 H   0  0  0  0  0  0  0  0  0  0  0  0
  157.2740  141.4884  183.5704 C   0  0  0  0  0  0  0  0  0  0  0  0
  157.7361  140.3322  182.7229 C   0  0  0  0  0  0  0  0  0  0  0  0
  159.1933  140.5224  182.3021 C   0  0  0  0  0  0  0  0  0  0  0  0
  159.7386  141.8634  182.7393 C   0  0  0  0  0  0  0  0  0  0  0  0
  159.5204  142.0002  184.1491 N   0  0  0  0  0  0  0  0  0  0  0  0
  158.2454  141.6164  184.7218 C   0  0  0  0  0  0  0  0  0  0  0  0
  160.5252  142.5051  185.0086 C   0  0  0  0  0  0  0  0  0  0  0  0
  161.6266  142.8372  184.5175 O   0  0  0  0  0  0  0  0  0  0  0  0
  160.3032  142.6408  186.4211 C   0  0  0  0  0  0  0  0  0  0  0  0
  161.2671  143.0513  187.2202 C   0  0  0  0  0  0  0  0  0  0  0  0
  1  2  1  0  0  0
  2  3  1  0  0  0
  3  4  1  0  0  0
  4  5  2  0  0  0
  5  6  1  0  0  0
  6  7  2  0  0  0
  7  8  1  0  0  0
  7  9  1  0  0  0
  9 19  1  0  0  0
 19 21  1  0  0  0
 21 22  1  0  0  0
 22 23  1  0  0  0
 23 24  1  0  0  0
 24 25  1  0  0  0
 25 26  1  0  0  0
 25 27  1  0  0  0
 27 28  2  0  0  0
 27 29  1  0  0  0
 29 30  2  0  0  0
  9 10  2  0  0  0
 10 11  1  0  0  0
 11 12  1  0  0  0
  5 14  1  0  0  0
 14 15  1  0  0  0
 14 16  2  0  0  0
 11  2  2  0  0  0
 10  4  1  0  0  0
 26 21  1  0  0  0
  3 13  1  0  0  0
 19 20  1  0  0  0
 15 17  1  0  0  0
 15 18  1  0  0  0
M  END
> <minimizedAffinity>
-8.71461

> <CNNscore>
0.3790841997

> <CNNaffinity>
6.3936057091

> <CNN_VS>
2.4237148762

> <CNNaffinity_variance>
0.0855281353

$$$$
[H]C([H])=C([H])C(=O)N1C([H])([H])C([H])([H])C([H])([H])[C@@]([H])(N([H])c2c(F)c([H])c(C(=O)N([H])[H])c3c2c(C([H])([H])[H])c(C([H])([H])[H])n3[H])C1([H])[H]


 30 32  0  0  0  0  0  0  0  0999 V2000
  151.7347  140.2899  180.6510 C   0  0  0  0  0  0  0  0  0  0  0  0
  152.5230  139.7413  181.7781 C   0  0  0  0  0  0  0  0  0  0  0  0
  152.3775  138.5450  182.3710 N   0  0  0  0  0  0  0  0  0  0  0  0
  153.2650  138.3766  183.3624 C   0  0  0  0  0  0  0  0  0  0  0  0
  153.5509  137.3955  184.2800 C   0  0  0  0  0  0  0  0  0  0  0  0
  154.5731  137.5642  185.2231 C   0  0  0  0  0  0  0  0  0  0  0  0
  155.3227  138.7148  185.2600 C   0  0  0  0  0  0  0  0  0  0  0  0
  156.3006  138.8801  186.2134 F   0  0  0  0  0  0  0  0  0  0  0  0
  155.0432  139.7023  184.3410 C   0  0  0  0  0  0  0  0  0  0  0  0
  154.0203  139.5555  183.3877 C   0  0  0  0  0  0  0  0  0  0  0  0
  153.5657  140.4043  182.4115 C   0  0  0  0  0  0  0  0  0  0  0  0
  154.0750  141.7601  182.1270 C   0  0  0  0  0  0  0  0  0  0  0  0
  151.6516  137.8260  182.0891 H   0  0  0  0  0  0  0  0  0  0  0  0
  152.7886  136.1639  184.2784 C   0  0  0  0  0  0  0  0  0  0  0  0
  152.5351  135.5351  185.5468 N   0  0  0  0  0  0  0  0  0  0  0  0
  152.3540  135.6399  183.2451 O   0  0  0  0  0  0  0  0  0  0  0  0
  153.3282  135.1838  186.1332 H   0  0  0  0  0  0  0  0  0  0  0  0
  151.5314  135.4527  185.8400 H   0  0  0  0  0  0  0  0  0  0  0  0
  155.8614  140.8667  184.3914 N   0  0  0  0  0  0  0  0  0  0  0  0
  155.4492  141.7022  184.9080 H   0  0  0  0  0  0  0  0  0  0  0  0
  157.1638  141.0086  183.8197 C   0  0  0  0  0  0  0  0  0  0  0  0
  157.6594  139.8593  182.9817 C   0  0  0  0  0  0  0  0  0  0  0  0
  159.0635  140.1472  182.4507 C   0  0  0  0  0  0  0  0  0  0  0  0
  159.5260  141.5439  182.8005 C   0  0  0  0  0  0  0  0  0  0  0  0
  159.3952  141.7199  184.2168 N   0  0  0  0  0  0  0  0  0  0  0  0
  158.1986  141.2597  184.8928 C   0  0  0  0  0  0  0  0  0  0  0  0
  160.4123  142.3372  184.9835 C   0  0  0  0  0  0  0  0  0  0  0  0
  161.4461  142.7355  184.4030 O   0  0  0  0  0  0  0  0  0  0  0  0
  160.2780  142.5119  186.4027 C   0  0  0  0  0  0  0  0  0  0  0  0
  161.3031  142.8956  187.1363 C   0  0  0  0  0  0  0  0  0  0  0  0
  1  2  1  0  0  0
  2  3  1  0  0  0
  3  4  1  0  0  0
  4  5  2  0  0  0
  5  6  1  0  0  0
  6  7  2  0  0  0
  7  8  1  0  0  0
  7  9  1  0  0  0
  9 19  1  0  0  0
 19 21  1  0  0  0
 21 22  1  0  0  0
 22 23  1  0  0  0
 23 24  1  0  0  0
 24 25  1  0  0  0
 25 26  1  0  0  0
 25 27  1  0  0  0
 27 28  2  0  0  0
 27 29  1  0  0  0
 29 30  2  0  0  0
  9 10  2  0  0  0
 10 11  1  0  0  0
 11 12  1  0  0  0
  5 14  1  0  0  0
 14 15  1  0  0  0
 14 16  2  0  0  0
 11  2  2  0  0  0
 10  4  1  0  0  0
 26 21  1  0  0  0
  3 13  1  0  0  0
 19 20  1  0  0  0
 15 17  1  0  0  0
 15 18  1  0  0  0
M  END
> <minimizedAffinity>
-8.20236

> <CNNscore>
0.3406286538

> <CNNaffinity>
6.0570197105

> <CNN_VS>
2.0631945133

> <CNNaffinity_variance>
0.0350110494

$$$$
[H]C([H])=C([H])C(=O)N1C([H])([H])C([H])([H])C([H])([H])[C@@]([H])(N([H])c2c(F)c([H])c(C(=O)N([H])[H])c3c2c(C([H])([H])[H])c(C([H])([H])[H])n3[H])C1([H])[H]


 30 32  0  0  0  0  0  0  0  0999 V2000
  149.2744  138.5371  179.6935 C   0  0  0  0  0  0  0  0  0  0  0  0
  150.1956  138.3887  180.8432 C   0  0  0  0  0  0  0  0  0  0  0  0
  149.9896  137.6872  181.9700 N   0  0  0  0  0  0  0  0  0  0  0  0
  151.0392  137.7725  182.8006 C   0  0  0  0  0  0  0  0  0  0  0  0
  151.3576  137.2914  184.0471 C   0  0  0  0  0  0  0  0  0  0  0  0
  152.5822  137.6048  184.6512 C   0  0  0  0  0  0  0  0  0  0  0  0
  153.5039  138.4018  184.0167 C   0  0  0  0  0  0  0  0  0  0  0  0
  154.6878  138.7286  184.6364 F   0  0  0  0  0  0  0  0  0  0  0  0
  153.1923  138.8860  182.7652 C   0  0  0  0  0  0  0  0  0  0  0  0
  151.9684  138.5865  182.1414 C   0  0  0  0  0  0  0  0  0  0  0  0
  151.4525  138.9723  180.9310 C   0  0  0  0  0  0  0  0  0  0  0  0
  152.1048  139.8569  179.9459 C   0  0  0  0  0  0  0  0  0  0  0  0
  149.1075  137.1365  182.1746 H   0  0  0  0  0  0  0  0  0  0  0  0
  150.4182  136.4455  184.7541 C   0  0  0  0  0  0  0  0  0  0  0  0
  150.3047  136.6193  186.1773 N   0  0  0  0  0  0  0  0  0  0  0  0
  149.7206  135.5928  184.1905 O   0  0  0  0  0  0  0  0  0  0  0  0
  151.1248  136.4348  186.8016 H   0  0  0  0  0  0  0  0  0  0  0  0
  149.3728  136.9343  186.5410 H   0  0  0  0  0  0  0  0  0  0  0  0
  154.1852  139.6830  182.1273 N   0  0  0  0  0  0  0  0  0  0  0  0
  154.6538  139.2476  181.2755 H   0  0  0  0  0  0  0  0  0  0  0  0
  154.5994  140.9923  182.5237 C   0  0  0  0  0  0  0  0  0  0  0  0
  153.5534  142.0746  182.4675 C   0  0  0  0  0  0  0  0  0  0  0  0
  154.1427  143.4153  182.9054 C   0  0  0  0  0  0  0  0  0  0  0  0
  155.5680  143.2759  183.3912 C   0  0  0  0  0  0  0  0  0  0  0  0
  156.3282  142.6144  182.3722 N   0  0  0  0  0  0  0  0  0  0  0  0
  155.7733  141.4601  181.6938 C   0  0  0  0  0  0  0  0  0  0  0  0
  157.6202  143.0606  182.0048 C   0  0  0  0  0  0  0  0  0  0  0  0
  158.1019  144.0565  182.5885 O   0  0  0  0  0  0  0  0  0  0  0  0
  158.3794  142.3954  180.9831 C   0  0  0  0  0  0  0  0  0  0  0  0
  158.9194  143.0752  179.9919 C   0  0  0  0  0  0  0  0  0  0  0  0
  1  2  1  0  0  0
  2  3  1  0  0  0
  3  4  1  0  0  0
  4  5  2  0  0  0
  5  6  1  0  0  0
  6  7  2  0  0  0
  7  8  1  0  0  0
  7  9  1  0  0  0
  9 19  1  0  0  0
 19 21  1  0  0  0
 21 22  1  0  0  0
 22 23  1  0  0  0
 23 24  1  0  0  0
 24 25  1  0  0  0
 25 26  1  0  0  0
 25 27  1  0  0  0
 27 28  2  0  0  0
 27 29  1  0  0  0
 29 30  2  0  0  0
  9 10  2  0  0  0
 10 11  1  0  0  0
 11 12  1  0  0  0
  5 14  1  0  0  0
 14 15  1  0  0  0
 14 16  2  0  0  0
 11  2  2  0  0  0
 10  4  1  0  0  0
 26 21  1  0  0  0
  3 13  1  0  0  0
 19 20  1  0  0  0
 15 17  1  0  0  0
 15 18  1  0  0  0
M  END
> <minimizedAffinity>
-7.15296

> <CNNscore>
0.3329427242

> <CNNaffinity>
5.9828343391

> <CNN_VS>
1.9919412136

> <CNNaffinity_variance>
0.0999916568

$$$$
[H]C([H])=C([H])C(=O)N1C([H])([H])C([H])([H])C([H])([H])[C@@]([H])(N([H])c2c(F)c([H])c(C(=O)N([H])[H])c3c2c(C([H])([H])[H])c(C([H])([H])[H])n3[H])C1([H])[H]


 30 32  0  0  0  0  0  0  0  0999 V2000
  151.3834  140.1289  180.3442 C   0  0  0  0  0  0  0  0  0  0  0  0
  152.0352  139.5236  181.5280 C   0  0  0  0  0  0  0  0  0  0  0  0
  151.6985  138.3829  182.1520 N   0  0  0  0  0  0  0  0  0  0  0  0
  152.5073  138.1351  183.1929 C   0  0  0  0  0  0  0  0  0  0  0  0
  152.6121  137.1617  184.1562 C   0  0  0  0  0  0  0  0  0  0  0  0
  153.6028  137.2272  185.1446 C   0  0  0  0  0  0  0  0  0  0  0  0
  154.5015  138.2655  185.1818 C   0  0  0  0  0  0  0  0  0  0  0  0
  155.4475  138.3341  186.1783 F   0  0  0  0  0  0  0  0  0  0  0  0
  154.4040  139.2443  184.2173 C   0  0  0  0  0  0  0  0  0  0  0  0
  153.4160  139.2001  183.2179 C   0  0  0  0  0  0  0  0  0  0  0  0
  153.1288  140.0632  182.1920 C   0  0  0  0  0  0  0  0  0  0  0  0
  153.8329  141.3245  181.8892 C   0  0  0  0  0  0  0  0  0  0  0  0
  150.8943  137.7588  181.8571 H   0  0  0  0  0  0  0  0  0  0  0  0
  151.6881  136.0463  184.1563 C   0  0  0  0  0  0  0  0  0  0  0  0
  151.2771  135.5210  185.4306 N   0  0  0  0  0  0  0  0  0  0  0  0
  151.2455  135.5358  183.1196 O   0  0  0  0  0  0  0  0  0  0  0  0
  151.9789  135.0947  186.0803 H   0  0  0  0  0  0  0  0  0  0  0  0
  150.2565  135.5901  185.6620 H   0  0  0  0  0  0  0  0  0  0  0  0
  155.3718  140.2876  184.2710 N   0  0  0  0  0  0  0  0  0  0  0  0
  155.0833  141.1618  184.8070 H   0  0  0  0  0  0  0  0  0  0  0  0
  156.6727  140.2633  183.6794 C   0  0  0  0  0  0  0  0  0  0  0  0
  157.7900  139.7230  184.5329 C   0  0  0  0  0  0  0  0  0  0  0  0
  159.1168  139.7710  183.7755 C   0  0  0  0  0  0  0  0  0  0  0  0
  158.9362  140.2266  182.3449 C   0  0  0  0  0  0  0  0  0  0  0  0
  158.2300  141.4736  182.3553 N   0  0  0  0  0  0  0  0  0  0  0  0
  157.0838  141.6456  183.2256 C   0  0  0  0  0  0  0  0  0  0  0  0
  158.6237  142.5548  181.5310 C   0  0  0  0  0  0  0  0  0  0  0  0
  159.6125  142.4094  180.7789 O   0  0  0  0  0  0  0  0  0  0  0  0
  157.9138  143.8032  181.5441 C   0  0  0  0  0  0  0  0  0  0  0  0
  158.4118  144.8573  182.1581 C   0  0  0  0  0  0  0  0  0  0  0  0
  1  2  1  0  0  0
  2  3  1  0  0  0
  3  4  1  0  0  0
  4  5  2  0  0  0
  5  6  1  0  0  0
  6  7  2  0  0  0
  7  8  1  0  0  0
  7  9  1  0  0  0
  9 19  1  0  0  0
 19 21  1  0  0  0
 21 22  1  0  0  0
 22 23  1  0  0  0
 23 24  1  0  0  0
 24 25  1  0  0  0
 25 26  1  0  0  0
 25 27  1  0  0  0
 27 28  2  0  0  0
 27 29  1  0  0  0
 29 30  2  0  0  0
  9 10  2  0  0  0
 10 11  1  0  0  0
 11 12  1  0  0  0
  5 14  1  0  0  0
 14 15  1  0  0  0
 14 16  2  0  0  0
 11  2  2  0  0  0
 10  4  1  0  0  0
 26 21  1  0  0  0
  3 13  1  0  0  0
 19 20  1  0  0  0
 15 17  1  0  0  0
 15 18  1  0  0  0
M  END
> <minimizedAffinity>
-7.68472

> <CNNscore>
0.2880122662

> <CNNaffinity>
6.0099153519

> <CNN_VS>
1.7309293747

> <CNNaffinity_variance>
0.0362600684

$$$$
[H]C([H])=C([H])C(=O)N1C([H])([H])C([H])([H])C([H])([H])[C@@]([H])(N([H])c2c(F)c([H])c(C(=O)N([H])[H])c3c2c(C([H])([H])[H])c(C([H])([H])[H])n3[H])C1([H])[H]


 30 32  0  0  0  0  0  0  0  0999 V2000
  155.0370  141.7363  182.2554 C   0  0  0  0  0  0  0  0  0  0  0  0
  154.0151  140.6664  182.1959 C   0  0  0  0  0  0  0  0  0  0  0  0
  153.1016  140.4618  181.2327 N   0  0  0  0  0  0  0  0  0  0  0  0
  152.3328  139.3965  181.5030 C   0  0  0  0  0  0  0  0  0  0  0  0
  151.2735  138.7614  180.9023 C   0  0  0  0  0  0  0  0  0  0  0  0
  150.6725  137.6424  181.4935 C   0  0  0  0  0  0  0  0  0  0  0  0
  151.1235  137.1438  182.6915 C   0  0  0  0  0  0  0  0  0  0  0  0
  150.5019  136.0649  183.2765 F   0  0  0  0  0  0  0  0  0  0  0  0
  152.1874  137.7742  183.2986 C   0  0  0  0  0  0  0  0  0  0  0  0
  152.8036  138.9001  182.7248 C   0  0  0  0  0  0  0  0  0  0  0  0
  153.8429  139.6817  183.1596 C   0  0  0  0  0  0  0  0  0  0  0  0
  154.5951  139.5129  184.4182 C   0  0  0  0  0  0  0  0  0  0  0  0
  153.0027  141.0675  180.3687 H   0  0  0  0  0  0  0  0  0  0  0  0
  150.7645  139.2497  179.6373 C   0  0  0  0  0  0  0  0  0  0  0  0
  149.5381  138.6800  179.1474 N   0  0  0  0  0  0  0  0  0  0  0  0
  151.3343  140.1239  178.9721 O   0  0  0  0  0  0  0  0  0  0  0  0
  149.4825  137.6610  178.9131 H   0  0  0  0  0  0  0  0  0  0  0  0
  148.7239  139.3327  179.0423 H   0  0  0  0  0  0  0  0  0  0  0  0
  152.6453  137.2099  184.5233 N   0  0  0  0  0  0  0  0  0  0  0  0
  152.4937  137.8044  185.3941 H   0  0  0  0  0  0  0  0  0  0  0  0
  153.2785  135.9383  184.6820 C   0  0  0  0  0  0  0  0  0  0  0  0
  154.2748  135.8186  185.8053 C   0  0  0  0  0  0  0  0  0  0  0  0
  154.8760  134.4137  185.8435 C   0  0  0  0  0  0  0  0  0  0  0  0
  154.2278  133.4927  184.8343 C   0  0  0  0  0  0  0  0  0  0  0  0
  154.2961  134.1169  183.5461 N   0  0  0  0  0  0  0  0  0  0  0  0
  153.9851  135.5261  183.4106 C   0  0  0  0  0  0  0  0  0  0  0  0
  154.6625  133.3891  182.3888 C   0  0  0  0  0  0  0  0  0  0  0  0
  154.9313  132.1729  182.5024 O   0  0  0  0  0  0  0  0  0  0  0  0
  154.7299  134.0179  181.0993 C   0  0  0  0  0  0  0  0  0  0  0  0
  155.7934  133.8777  180.3340 C   0  0  0  0  0  0  0  0  0  0  0  0
  1  2  1  0  0  0
  2  3  1  0  0  0
  3  4  1  0  0  0
  4  5  2  0  0  0
  5  6  1  0  0  0
  6  7  2  0  0  0
  7  8  1  0  0  0
  7  9  1  0  0  0
  9 19  1  0  0  0
 19 21  1  0  0  0
 21 22  1  0  0  0
 22 23  1  0  0  0
 23 24  1  0  0  0
 24 25  1  0  0  0
 25 26  1  0  0  0
 25 27  1  0  0  0
 27 28  2  0  0  0
 27 29  1  0  0  0
 29 30  2  0  0  0
  9 10  2  0  0  0
 10 11  1  0  0  0
 11 12  1  0  0  0
  5 14  1  0  0  0
 14 15  1  0  0  0
 14 16  2  0  0  0
 11  2  2  0  0  0
 10  4  1  0  0  0
 26 21  1  0  0  0
  3 13  1  0  0  0
 19 20  1  0  0  0
 15 17  1  0  0  0
 15 18  1  0  0  0
M  END
> <minimizedAffinity>
-6.16769

> <CNNscore>
0.2753193676

> <CNNaffinity>
5.2603325844

> <CNN_VS>
1.4482713938

> <CNNaffinity_variance>
0.1809755862

$$$$
[H]C([H])=C([H])C(=O)N1C([H])([H])C([H])([H])C([H])([H])[C@@]([H])(N([H])c2c(F)c([H])c(C(=O)N([H])[H])c3c2c(C([H])([H])[H])c(C([H])([H])[H])n3[H])C1([H])[H]


 30 32  0  0  0  0  0  0  0  0999 V2000
  151.3508  140.1230  179.7674 C   0  0  0  0  0  0  0  0  0  0  0  0
  152.2323  139.9050  180.9370 C   0  0  0  0  0  0  0  0  0  0  0  0
  153.2484  140.6802  181.3501 N   0  0  0  0  0  0  0  0  0  0  0  0
  153.8325  140.1803  182.4491 C   0  0  0  0  0  0  0  0  0  0  0  0
  154.8849  140.5318  183.2586 C   0  0  0  0  0  0  0  0  0  0  0  0
  155.2496  139.7389  184.3545 C   0  0  0  0  0  0  0  0  0  0  0  0
  154.5663  138.5857  184.6556 C   0  0  0  0  0  0  0  0  0  0  0  0
  154.9571  137.7996  185.7148 F   0  0  0  0  0  0  0  0  0  0  0  0
  153.5080  138.2281  183.8494 C   0  0  0  0  0  0  0  0  0  0  0  0
  153.1265  139.0072  182.7430 C   0  0  0  0  0  0  0  0  0  0  0  0
  152.1366  138.8303  181.8110 C   0  0  0  0  0  0  0  0  0  0  0  0
  151.1889  137.7005  181.7478 C   0  0  0  0  0  0  0  0  0  0  0  0
  153.5491  141.5740  180.8665 H   0  0  0  0  0  0  0  0  0  0  0  0
  155.6339  141.7403  182.9818 C   0  0  0  0  0  0  0  0  0  0  0  0
  156.5985  141.6974  181.9159 N   0  0  0  0  0  0  0  0  0  0  0  0
  155.4788  142.7912  183.6164 O   0  0  0  0  0  0  0  0  0  0  0  0
  157.4240  141.0557  181.9724 H   0  0  0  0  0  0  0  0  0  0  0  0
  156.4275  142.3331  181.0994 H   0  0  0  0  0  0  0  0  0  0  0  0
  152.8060  137.0432  184.2115 N   0  0  0  0  0  0  0  0  0  0  0  0
  153.1487  136.1429  183.7566 H   0  0  0  0  0  0  0  0  0  0  0  0
  151.7022  136.9590  185.1157 C   0  0  0  0  0  0  0  0  0  0  0  0
  152.0018  136.4357  186.4960 C   0  0  0  0  0  0  0  0  0  0  0  0
  150.7295  136.3908  187.3419 C   0  0  0  0  0  0  0  0  0  0  0  0
  149.5462  136.9927  186.6177 C   0  0  0  0  0  0  0  0  0  0  0  0
  149.4193  136.3441  185.3460 N   0  0  0  0  0  0  0  0  0  0  0  0
  150.5992  136.0999  184.5405 C   0  0  0  0  0  0  0  0  0  0  0  0
  148.1607  135.9302  184.8480 C   0  0  0  0  0  0  0  0  0  0  0  0
  147.1406  136.1395  185.5409 O   0  0  0  0  0  0  0  0  0  0  0  0
  148.0371  135.2803  183.5732 C   0  0  0  0  0  0  0  0  0  0  0  0
  147.4429  135.8822  182.5627 C   0  0  0  0  0  0  0  0  0  0  0  0
  1  2  1  0  0  0
  2  3  1  0  0  0
  3  4  1  0  0  0
  4  5  2  0  0  0
  5  6  1  0  0  0
  6  7  2  0  0  0
  7  8  1  0  0  0
  7  9  1  0  0  0
  9 19  1  0  0  0
 19 21  1  0  0  0
 21 22  1  0  0  0
 22 23  1  0  0  0
 23 24  1  0  0  0
 24 25  1  0  0  0
 25 26  1  0  0  0
 25 27  1  0  0  0
 27 28  2  0  0  0
 27 29  1  0  0  0
 29 30  2  0  0  0
  9 10  2  0  0  0
 10 11  1  0  0  0
 11 12  1  0  0  0
  5 14  1  0  0  0
 14 15  1  0  0  0
 14 16  2  0  0  0
 11  2  2  0  0  0
 10  4  1  0  0  0
 26 21  1  0  0  0
  3 13  1  0  0  0
 19 20  1  0  0  0
 15 17  1  0  0  0
 15 18  1  0  0  0
M  END
> <minimizedAffinity>
-5.96592

> <CNNscore>
0.2459249794

> <CNNaffinity>
5.4923315048

> <CNN_VS>
1.3507015705

> <CNNaffinity_variance>
0.1431716383

$$$$
[H]C([H])=C([H])C(=O)N1C([H])([H])C([H])([H])C([H])([H])[C@@]([H])(N([H])c2c(F)c([H])c(C(=O)N([H])[H])c3c2c(C([H])([H])[H])c(C([H])([H])[H])n3[H])C1([H])[H]


 30 32  0  0  0  0  0  0  0  0999 V2000
  149.0732  133.9368  187.8532 C   0  0  0  0  0  0  0  0  0  0  0  0
  149.6517  134.5245  189.0831 C   0  0  0  0  0  0  0  0  0  0  0  0
  149.2792  134.2930  190.3526 N   0  0  0  0  0  0  0  0  0  0  0  0
  150.0226  134.9973  191.2189 C   0  0  0  0  0  0  0  0  0  0  0  0
  150.0695  135.1573  192.5822 C   0  0  0  0  0  0  0  0  0  0  0  0
  150.9970  136.0229  193.1764 C   0  0  0  0  0  0  0  0  0  0  0  0
  151.8897  136.7382  192.4157 C   0  0  0  0  0  0  0  0  0  0  0  0
  152.7722  137.6098  193.0109 F   0  0  0  0  0  0  0  0  0  0  0  0
  151.8501  136.5808  191.0477 C   0  0  0  0  0  0  0  0  0  0  0  0
  150.9260  135.7199  190.4300 C   0  0  0  0  0  0  0  0  0  0  0  0
  150.7011  135.4334  189.1082 C   0  0  0  0  0  0  0  0  0  0  0  0
  151.4202  136.0098  187.9553 C   0  0  0  0  0  0  0  0  0  0  0  0
  148.4959  133.6361  190.6321 H   0  0  0  0  0  0  0  0  0  0  0  0
  149.1493  134.4225  193.4256 C   0  0  0  0  0  0  0  0  0  0  0  0
  149.3871  134.4384  194.8439 N   0  0  0  0  0  0  0  0  0  0  0  0
  148.1821  133.7917  192.9807 O   0  0  0  0  0  0  0  0  0  0  0  0
  150.2654  134.0279  195.2396 H   0  0  0  0  0  0  0  0  0  0  0  0
  148.6445  134.8757  195.4416 H   0  0  0  0  0  0  0  0  0  0  0  0
  152.8109  137.3155  190.2959 N   0  0  0  0  0  0  0  0  0  0  0  0
  152.4168  138.0229  189.6036 H   0  0  0  0  0  0  0  0  0  0  0  0
  154.2316  137.1884  190.3883 C   0  0  0  0  0  0  0  0  0  0  0  0
  155.0038  138.4530  190.6586 C   0  0  0  0  0  0  0  0  0  0  0  0
  156.5038  138.1649  190.7177 C   0  0  0  0  0  0  0  0  0  0  0  0
  156.8009  136.6857  190.6141 C   0  0  0  0  0  0  0  0  0  0  0  0
  156.1600  136.1792  189.4366 N   0  0  0  0  0  0  0  0  0  0  0  0
  154.8006  136.5765  189.1284 C   0  0  0  0  0  0  0  0  0  0  0  0
  156.8233  135.2919  188.5557 C   0  0  0  0  0  0  0  0  0  0  0  0
  157.9965  134.9471  188.8190 O   0  0  0  0  0  0  0  0  0  0  0  0
  156.1780  134.7862  187.3765 C   0  0  0  0  0  0  0  0  0  0  0  0
  156.6387  133.7166  186.7600 C   0  0  0  0  0  0  0  0  0  0  0  0
  1  2  1  0  0  0
  2  3  1  0  0  0
  3  4  1  0  0  0
  4  5  2  0  0  0
  5  6  1  0  0  0
  6  7  2  0  0  0
  7  8  1  0  0  0
  7  9  1  0  0  0
  9 19  1  0  0  0
 19 21  1  0  0  0
 21 22  1  0  0  0
 22 23  1  0  0  0
 23 24  1  0  0  0
 24 25  1  0  0  0
 25 26  1  0  0  0
 25 27  1  0  0  0
 27 28  2  0  0  0
 27 29  1  0  0  0
 29 30  2  0  0  0
  9 10  2  0  0  0
 10 11  1  0  0  0
 11 12  1  0  0  0
  5 14  1  0  0  0
 14 15  1  0  0  0
 14 16  2  0  0  0
 11  2  2  0  0  0
 10  4  1  0  0  0
 26 21  1  0  0  0
  3 13  1  0  0  0
 19 20  1  0  0  0
 15 17  1  0  0  0
 15 18  1  0  0  0
M  END
> <minimizedAffinity>
-5.77351

> <CNNscore>
0.2175417989

> <CNNaffinity>
5.1491150856

> <CNN_VS>
1.1201477051

> <CNNaffinity_variance>
0.0636929646

$$$$
[H]OC([H])([H])[C@@]([H])(C(=O)N([H])[C@]([H])(C(=O)N([H])[H])C([H])([H])c1c([H])c([H])c([H])c([H])c1[H])N([H])C(=O)[C@@]([H])(N([H])C(=O)[C@@]([H])(N([H])C(=O)[C@@]([H])(N([H])C(=O)[C@@]([H])(N([H])C(=O)[C@@]([H])(N([H])C(=O)C([H])([H])[H])C([H])([H])O[H])C([H])(C([H])([H])[H])C([H])([H])[H])C([H])([H])C([H])([H])C([H])([H])N=C(N([H])[H])N([H])[H])C([H])([H])O[H])C([H])(C([H])([H])[H])C([H])([H])[H]


 74 74  0  0  0  0  0  0  0  0999 V2000
  155.0143  139.9585  184.1260 C   0  0  0  0  0  0  0  0  0  0  0  0
  156.0458  139.2872  183.9612 O   0  0  0  0  0  0  0  0  0  0  0  0
  153.9857  139.5425  184.9759 N   0  0  0  0  0  0  0  0  0  0  0  0
  153.0831  140.1618  184.9105 H   0  0  0  0  0  0  0  0  0  0  0  0
  153.9464  138.4116  185.8243 C   0  0  0  0  0  0  0  0  0  0  0  0
  153.3607  137.2095  185.1562 C   0  0  0  0  0  0  0  0  0  0  0  0
  152.2889  137.3717  184.5614 O   0  0  0  0  0  0  0  0  0  0  0  0
  153.9651  135.9484  185.1749 N   0  0  0  0  0  0  0  0  0  0  0  0
  154.9020  135.9741  185.7310 H   0  0  0  0  0  0  0  0  0  0  0  0
  153.6418  134.7009  184.6356 C   0  0  0  0  0  0  0  0  0  0  0  0
  154.2379  133.6083  185.5134 C   0  0  0  0  0  0  0  0  0  0  0  0
  153.5087  132.7141  185.9704 O   0  0  0  0  0  0  0  0  0  0  0  0
  155.6074  133.6124  185.8211 N   0  0  0  0  0  0  0  0  0  0  0  0
  156.2201  134.3629  185.4241 H   0  0  0  0  0  0  0  0  0  0  0  0
  156.2909  132.6416  186.6697 C   0  0  0  0  0  0  0  0  0  0  0  0
  156.7026  133.3431  187.9067 C   0  0  0  0  0  0  0  0  0  0  0  0
  157.6088  134.1747  187.8216 O   0  0  0  0  0  0  0  0  0  0  0  0
  156.1141  133.0970  189.1704 N   0  0  0  0  0  0  0  0  0  0  0  0
  155.3396  132.4479  189.2990 H   0  0  0  0  0  0  0  0  0  0  0  0
  156.6571  133.8383  190.3340 C   0  0  0  0  0  0  0  0  0  0  0  0
  157.3084  132.8395  191.1739 C   0  0  0  0  0  0  0  0  0  0  0  0
  156.9576  131.4621  191.0488 N   0  0  0  0  0  0  0  0  0  0  0  0
  158.1788  133.2023  192.0207 O   0  0  0  0  0  0  0  0  0  0  0  0
  156.0182  131.1124  190.7624 H   0  0  0  0  0  0  0  0  0  0  0  0
  157.6905  130.7242  191.2637 H   0  0  0  0  0  0  0  0  0  0  0  0
  155.4283  134.4739  190.9917 C   0  0  0  0  0  0  0  0  0  0  0  0
  155.3578  135.9221  190.8926 C   0  0  0  0  0  0  0  0  0  0  0  0
  154.1221  136.4915  190.6622 C   0  0  0  0  0  0  0  0  0  0  0  0
  153.9986  137.8614  190.6140 C   0  0  0  0  0  0  0  0  0  0  0  0
  155.0806  138.7003  190.7836 C   0  0  0  0  0  0  0  0  0  0  0  0
  156.2903  138.0689  191.0096 C   0  0  0  0  0  0  0  0  0  0  0  0
  156.4669  136.7247  191.0705 C   0  0  0  0  0  0  0  0  0  0  0  0
  157.4387  131.9942  185.9277 C   0  0  0  0  0  0  0  0  0  0  0  0
  157.1519  130.7610  185.4034 O   0  0  0  0  0  0  0  0  0  0  0  0
  157.5410  130.5391  184.5376 H   0  0  0  0  0  0  0  0  0  0  0  0
  154.2085  134.4172  183.2715 C   0  0  0  0  0  0  0  0  0  0  0  0
  153.5166  135.1912  182.1720 C   0  0  0  0  0  0  0  0  0  0  0  0
  153.9290  132.9405  182.9094 C   0  0  0  0  0  0  0  0  0  0  0  0
  153.2135  138.7753  187.0787 C   0  0  0  0  0  0  0  0  0  0  0  0
  152.3952  137.6482  187.4685 O   0  0  0  0  0  0  0  0  0  0  0  0
  152.9236  136.8281  187.4822 H   0  0  0  0  0  0  0  0  0  0  0  0
  154.8951  141.2218  183.3736 C   0  0  0  0  0  0  0  0  0  0  0  0
  156.4799  142.8788  182.3636 C   0  0  0  0  0  0  0  0  0  0  0  0
  155.5313  143.7328  182.1121 O   0  0  0  0  0  0  0  0  0  0  0  0
  156.2051  141.6485  182.9914 N   0  0  0  0  0  0  0  0  0  0  0  0
  157.0359  141.0328  183.1984 H   0  0  0  0  0  0  0  0  0  0  0  0
  157.8557  143.2488  181.9520 C   0  0  0  0  0  0  0  0  0  0  0  0
  159.6798  142.8595  183.6372 C   0  0  0  0  0  0  0  0  0  0  0  0
  159.7492  144.0749  183.8621 O   0  0  0  0  0  0  0  0  0  0  0  0
  158.7563  142.3436  182.6636 N   0  0  0  0  0  0  0  0  0  0  0  0
  158.7000  141.3343  182.4580 H   0  0  0  0  0  0  0  0  0  0  0  0
  160.5249  141.8719  184.3401 C   0  0  0  0  0  0  0  0  0  0  0  0
  162.8425  142.8223  187.2167 C   0  0  0  0  0  0  0  0  0  0  0  0
  162.3905  142.3874  185.9136 C   0  0  0  0  0  0  0  0  0  0  0  0
  163.1849  142.0770  184.9941 O   0  0  0  0  0  0  0  0  0  0  0  0
  160.9703  142.2983  185.6321 N   0  0  0  0  0  0  0  0  0  0  0  0
  160.2995  142.5460  186.3636 H   0  0  0  0  0  0  0  0  0  0  0  0
  159.5757  140.6604  184.6442 C   0  0  0  0  0  0  0  0  0  0  0  0
  158.3571  141.0938  185.1370 O   0  0  0  0  0  0  0  0  0  0  0  0
  158.2037  140.7899  186.0595 H   0  0  0  0  0  0  0  0  0  0  0  0
  157.9628  143.0766  180.4469 C   0  0  0  0  0  0  0  0  0  0  0  0
  159.2586  143.7028  179.9175 C   0  0  0  0  0  0  0  0  0  0  0  0
  157.9131  141.6281  180.0644 C   0  0  0  0  0  0  0  0  0  0  0  0
  153.7820  141.3774  182.4208 C   0  0  0  0  0  0  0  0  0  0  0  0
  153.1147  140.0523  182.0985 C   0  0  0  0  0  0  0  0  0  0  0  0
  152.4871  140.1406  180.6942 C   0  0  0  0  0  0  0  0  0  0  0  0
  151.3477  139.2231  180.6546 N   0  0  0  0  0  0  0  0  0  0  0  0
  150.5121  139.3079  179.6852 C   0  0  0  0  0  0  0  0  0  0  0  0
  149.4017  138.4510  179.6047 N   0  0  0  0  0  0  0  0  0  0  0  0
  150.7039  140.2899  178.6533 N   0  0  0  0  0  0  0  0  0  0  0  0
  148.8227  138.2089  180.4361 H   0  0  0  0  0  0  0  0  0  0  0  0
  149.1364  138.0363  178.6821 H   0  0  0  0  0  0  0  0  0  0  0  0
  151.0187  140.0608  177.7058 H   0  0  0  0  0  0  0  0  0  0  0  0
  150.5004  141.2621  178.9402 H   0  0  0  0  0  0  0  0  0  0  0  0
 53 54  1  0  0  0
 54 55  2  0  0  0
 54 56  1  0  0  0
 56 52  1  0  0  0
 52 58  1  0  0  0
 58 59  1  0  0  0
 52 48  1  0  0  0
 48 49  2  0  0  0
 48 50  1  0  0  0
 50 47  1  0  0  0
 47 61  1  0  0  0
 61 62  1  0  0  0
 61 63  1  0  0  0
 47 43  1  0  0  0
 43 44  2  0  0  0
 43 45  1  0  0  0
 45 42  1  0  0  0
 42 64  1  0  0  0
 64 65  1  0  0  0
 65 66  1  0  0  0
 66 67  1  0  0  0
 67 68  2  0  0  0
 68 69  1  0  0  0
 68 70  1  0  0  0
 42  1  1  0  0  0
  1  2  2  0  0  0
  1  3  1  0  0  0
  3  5  1  0  0  0
  5 39  1  0  0  0
 39 40  1  0  0  0
  5  6  1  0  0  0
  6  7  2  0  0  0
  6  8  1  0  0  0
  8 10  1  0  0  0
 10 36  1  0  0  0
 36 37  1  0  0  0
 36 38  1  0  0  0
 10 11  1  0  0  0
 11 12  2  0  0  0
 11 13  1  0  0  0
 13 15  1  0  0  0
 15 33  1  0  0  0
 33 34  1  0  0  0
 15 16  1  0  0  0
 16 17  2  0  0  0
 16 18  1  0  0  0
 18 20  1  0  0  0
 20 26  1  0  0  0
 26 27  1  0  0  0
 27 28  2  0  0  0
 28 29  1  0  0  0
 29 30  2  0  0  0
 30 31  1  0  0  0
 31 32  2  0  0  0
 20 21  1  0  0  0
 21 22  1  0  0  0
 21 23  2  0  0  0
 32 27  1  0  0  0
 56 57  1  0  0  0
 59 60  1  0  0  0
 50 51  1  0  0  0
 45 46  1  0  0  0
 69 71  1  0  0  0
 69 72  1  0  0  0
 70 73  1  0  0  0
 70 74  1  0  0  0
  3  4  1  0  0  0
 40 41  1  0  0  0
  8  9  1  0  0  0
 13 14  1  0  0  0
 34 35  1  0  0  0
 18 19  1  0  0  0
 22 24  1  0  0  0
 22 25  1  0  0  0
M  END
> <minimizedAffinity>
-7.55528

> <CNNscore>
0.2011007816

> <CNNaffinity>
6.7900037766

> <CNN_VS>
1.3654750586

> <CNNaffinity_variance>
0.9170598984

$$$$
[H]OC([H])([H])[C@@]([H])(C(=O)N([H])[C@]([H])(C(=O)N([H])[H])C([H])([H])c1c([H])c([H])c([H])c([H])c1[H])N([H])C(=O)[C@@]([H])(N([H])C(=O)[C@@]([H])(N([H])C(=O)[C@@]([H])(N([H])C(=O)[C@@]([H])(N([H])C(=O)[C@@]([H])(N([H])C(=O)C([H])([H])[H])C([H])([H])O[H])C([H])(C([H])([H])[H])C([H])([H])[H])C([H])([H])C([H])([H])C([H])([H])N=C(N([H])[H])N([H])[H])C([H])([H])O[H])C([H])(C([H])([H])[H])C([H])([H])[H]


 74 74  0  0  0  0  0  0  0  0999 V2000
  154.8191  140.2637  184.1734 C   0  0  0  0  0  0  0  0  0  0  0  0
  155.9090  139.8781  184.6261 O   0  0  0  0  0  0  0  0  0  0  0  0
  153.6512  139.5071  184.3043 N   0  0  0  0  0  0  0  0  0  0  0  0
  152.8030  139.9046  183.7343 H   0  0  0  0  0  0  0  0  0  0  0  0
  153.4628  138.2901  184.9998 C   0  0  0  0  0  0  0  0  0  0  0  0
  153.7614  138.4078  186.4596 C   0  0  0  0  0  0  0  0  0  0  0  0
  152.9110  138.9735  187.1566 O   0  0  0  0  0  0  0  0  0  0  0  0
  154.9293  137.9120  187.0481 N   0  0  0  0  0  0  0  0  0  0  0  0
  155.5689  137.4377  186.3040 H   0  0  0  0  0  0  0  0  0  0  0  0
  155.4309  137.8819  188.3517 C   0  0  0  0  0  0  0  0  0  0  0  0
  155.8449  136.4568  188.6940 C   0  0  0  0  0  0  0  0  0  0  0  0
  155.3000  135.4991  188.1228 O   0  0  0  0  0  0  0  0  0  0  0  0
  156.8319  136.2170  189.6629 N   0  0  0  0  0  0  0  0  0  0  0  0
  157.2961  137.0288  190.1339 H   0  0  0  0  0  0  0  0  0  0  0  0
  157.2948  134.9032  190.0977 C   0  0  0  0  0  0  0  0  0  0  0  0
  157.7821  134.1834  188.8993 C   0  0  0  0  0  0  0  0  0  0  0  0
  158.8511  134.5478  188.4048 O   0  0  0  0  0  0  0  0  0  0  0  0
  157.0777  133.1131  188.2975 N   0  0  0  0  0  0  0  0  0  0  0  0
  156.2079  132.7445  188.6785 H   0  0  0  0  0  0  0  0  0  0  0  0
  157.6598  132.5139  187.0725 C   0  0  0  0  0  0  0  0  0  0  0  0
  156.5780  132.4761  186.0950 C   0  0  0  0  0  0  0  0  0  0  0  0
  156.8727  132.5377  184.7002 N   0  0  0  0  0  0  0  0  0  0  0  0
  155.3765  132.3984  186.4909 O   0  0  0  0  0  0  0  0  0  0  0  0
  157.6930  133.0318  184.2881 H   0  0  0  0  0  0  0  0  0  0  0  0
  156.2188  132.0565  184.0157 H   0  0  0  0  0  0  0  0  0  0  0  0
  158.1283  131.1229  187.5109 C   0  0  0  0  0  0  0  0  0  0  0  0
  159.0290  130.4572  186.5848 C   0  0  0  0  0  0  0  0  0  0  0  0
  160.2880  130.9956  186.4134 C   0  0  0  0  0  0  0  0  0  0  0  0
  161.1930  130.3689  185.5873 C   0  0  0  0  0  0  0  0  0  0  0  0
  160.8831  129.2086  184.9084 C   0  0  0  0  0  0  0  0  0  0  0  0
  159.6065  128.7206  185.1212 C   0  0  0  0  0  0  0  0  0  0  0  0
  158.6779  129.2957  185.9265 C   0  0  0  0  0  0  0  0  0  0  0  0
  156.2034  134.1698  190.8449 C   0  0  0  0  0  0  0  0  0  0  0  0
  156.5317  132.8933  191.2200 O   0  0  0  0  0  0  0  0  0  0  0  0
  156.2035  132.5798  192.0827 H   0  0  0  0  0  0  0  0  0  0  0  0
  154.4494  138.2422  189.4329 C   0  0  0  0  0  0  0  0  0  0  0  0
  155.1189  138.6716  190.7190 C   0  0  0  0  0  0  0  0  0  0  0  0
  153.6612  136.9753  189.8374 C   0  0  0  0  0  0  0  0  0  0  0  0
  154.2823  137.2252  184.3385 C   0  0  0  0  0  0  0  0  0  0  0  0
  154.1709  136.0151  185.1228 O   0  0  0  0  0  0  0  0  0  0  0  0
  153.2350  135.8088  185.3056 H   0  0  0  0  0  0  0  0  0  0  0  0
  154.7936  141.5582  183.4663 C   0  0  0  0  0  0  0  0  0  0  0  0
  156.4787  143.0693  182.3919 C   0  0  0  0  0  0  0  0  0  0  0  0
  155.5770  143.9435  182.0529 O   0  0  0  0  0  0  0  0  0  0  0  0
  156.1316  141.8996  183.0951 N   0  0  0  0  0  0  0  0  0  0  0  0
  156.9277  141.2648  183.3696 H   0  0  0  0  0  0  0  0  0  0  0  0
  157.8806  143.3494  181.9974 C   0  0  0  0  0  0  0  0  0  0  0  0
  159.7394  142.9068  183.6307 C   0  0  0  0  0  0  0  0  0  0  0  0
  159.9512  144.1217  183.7388 O   0  0  0  0  0  0  0  0  0  0  0  0
  158.7152  142.4146  182.7501 N   0  0  0  0  0  0  0  0  0  0  0  0
  158.5396  141.4039  182.6414 H   0  0  0  0  0  0  0  0  0  0  0  0
  160.5095  141.8958  184.3847 C   0  0  0  0  0  0  0  0  0  0  0  0
  162.7976  142.8720  187.2762 C   0  0  0  0  0  0  0  0  0  0  0  0
  162.3589  142.4244  185.9729 C   0  0  0  0  0  0  0  0  0  0  0  0
  163.1626  142.1031  185.0654 O   0  0  0  0  0  0  0  0  0  0  0  0
  160.9417  142.3349  185.6770 N   0  0  0  0  0  0  0  0  0  0  0  0
  160.2635  142.5913  186.3986 H   0  0  0  0  0  0  0  0  0  0  0  0
  159.4875  140.7465  184.6941 C   0  0  0  0  0  0  0  0  0  0  0  0
  158.3361  141.2472  185.2766 O   0  0  0  0  0  0  0  0  0  0  0  0
  158.2118  140.9135  186.1931 H   0  0  0  0  0  0  0  0  0  0  0  0
  158.0045  143.1300  180.4997 C   0  0  0  0  0  0  0  0  0  0  0  0
  159.3076  143.7371  179.9660 C   0  0  0  0  0  0  0  0  0  0  0  0
  157.9562  141.6703  180.1621 C   0  0  0  0  0  0  0  0  0  0  0  0
  153.6947  141.8295  182.5230 C   0  0  0  0  0  0  0  0  0  0  0  0
  153.7452  140.9202  181.3083 C   0  0  0  0  0  0  0  0  0  0  0  0
  152.3785  140.2267  181.1496 C   0  0  0  0  0  0  0  0  0  0  0  0
  152.5989  138.7817  181.2205 N   0  0  0  0  0  0  0  0  0  0  0  0
  151.6506  138.0260  181.6389 C   0  0  0  0  0  0  0  0  0  0  0  0
  151.8150  136.6336  181.7269 N   0  0  0  0  0  0  0  0  0  0  0  0
  150.3904  138.5992  182.0248 N   0  0  0  0  0  0  0  0  0  0  0  0
  152.6865  136.1970  182.0944 H   0  0  0  0  0  0  0  0  0  0  0  0
  151.0411  136.0024  181.4165 H   0  0  0  0  0  0  0  0  0  0  0  0
  149.5367  138.5184  181.4644 H   0  0  0  0  0  0  0  0  0  0  0  0
  150.4065  139.1105  182.9233 H   0  0  0  0  0  0  0  0  0  0  0  0
 53 54  1  0  0  0
 54 55  2  0  0  0
 54 56  1  0  0  0
 56 52  1  0  0  0
 52 58  1  0  0  0
 58 59  1  0  0  0
 52 48  1  0  0  0
 48 49  2  0  0  0
 48 50  1  0  0  0
 50 47  1  0  0  0
 47 61  1  0  0  0
 61 62  1  0  0  0
 61 63  1  0  0  0
 47 43  1  0  0  0
 43 44  2  0  0  0
 43 45  1  0  0  0
 45 42  1  0  0  0
 42 64  1  0  0  0
 64 65  1  0  0  0
 65 66  1  0  0  0
 66 67  1  0  0  0
 67 68  2  0  0  0
 68 69  1  0  0  0
 68 70  1  0  0  0
 42  1  1  0  0  0
  1  2  2  0  0  0
  1  3  1  0  0  0
  3  5  1  0  0  0
  5 39  1  0  0  0
 39 40  1  0  0  0
  5  6  1  0  0  0
  6  7  2  0  0  0
  6  8  1  0  0  0
  8 10  1  0  0  0
 10 36  1  0  0  0
 36 37  1  0  0  0
 36 38  1  0  0  0
 10 11  1  0  0  0
 11 12  2  0  0  0
 11 13  1  0  0  0
 13 15  1  0  0  0
 15 33  1  0  0  0
 33 34  1  0  0  0
 15 16  1  0  0  0
 16 17  2  0  0  0
 16 18  1  0  0  0
 18 20  1  0  0  0
 20 26  1  0  0  0
 26 27  1  0  0  0
 27 28  2  0  0  0
 28 29  1  0  0  0
 29 30  2  0  0  0
 30 31  1  0  0  0
 31 32  2  0  0  0
 20 21  1  0  0  0
 21 22  1  0  0  0
 21 23  2  0  0  0
 32 27  1  0  0  0
 56 57  1  0  0  0
 59 60  1  0  0  0
 50 51  1  0  0  0
 45 46  1  0  0  0
 69 71  1  0  0  0
 69 72  1  0  0  0
 70 73  1  0  0  0
 70 74  1  0  0  0
  3  4  1  0  0  0
 40 41  1  0  0  0
  8  9  1  0  0  0
 13 14  1  0  0  0
 34 35  1  0  0  0
 18 19  1  0  0  0
 22 24  1  0  0  0
 22 25  1  0  0  0
M  END
> <minimizedAffinity>
-7.56391

> <CNNscore>
0.1643782705

> <CNNaffinity>
6.8044953346

> <CNN_VS>
1.1185112000

> <CNNaffinity_variance>
0.5935264230

$$$$
[H]OC([H])([H])[C@@]([H])(C(=O)N([H])[C@]([H])(C(=O)N([H])[H])C([H])([H])c1c([H])c([H])c([H])c([H])c1[H])N([H])C(=O)[C@@]([H])(N([H])C(=O)[C@@]([H])(N([H])C(=O)[C@@]([H])(N([H])C(=O)[C@@]([H])(N([H])C(=O)[C@@]([H])(N([H])C(=O)C([H])([H])[H])C([H])([H])O[H])C([H])(C([H])([H])[H])C([H])([H])[H])C([H])([H])C([H])([H])C([H])([H])N=C(N([H])[H])N([H])[H])C([H])([H])O[H])C([H])(C([H])([H])[H])C([H])([H])[H]


 74 74  0  0  0  0  0  0  0  0999 V2000
  151.6668  134.5299  188.7894 C   0  0  0  0  0  0  0  0  0  0  0  0
  152.8432  134.5558  188.3931 O   0  0  0  0  0  0  0  0  0  0  0  0
  150.6013  134.9316  187.9790 N   0  0  0  0  0  0  0  0  0  0  0  0
  149.6429  134.9895  188.5087 H   0  0  0  0  0  0  0  0  0  0  0  0
  150.6275  135.3314  186.6226 C   0  0  0  0  0  0  0  0  0  0  0  0
  151.1491  136.7203  186.4407 C   0  0  0  0  0  0  0  0  0  0  0  0
  150.3089  137.6107  186.2667 O   0  0  0  0  0  0  0  0  0  0  0  0
  152.5105  137.0398  186.4645 N   0  0  0  0  0  0  0  0  0  0  0  0
  153.1161  136.1498  186.6340 H   0  0  0  0  0  0  0  0  0  0  0  0
  153.2393  138.2247  186.3361 C   0  0  0  0  0  0  0  0  0  0  0  0
  153.6432  138.4065  184.8790 C   0  0  0  0  0  0  0  0  0  0  0  0
  153.5664  137.4509  184.0909 O   0  0  0  0  0  0  0  0  0  0  0  0
  154.1155  139.6470  184.4221 N   0  0  0  0  0  0  0  0  0  0  0  0
  154.1681  140.4528  185.0886 H   0  0  0  0  0  0  0  0  0  0  0  0
  154.5576  139.9398  183.0626 C   0  0  0  0  0  0  0  0  0  0  0  0
  155.7694  140.7847  183.1605 C   0  0  0  0  0  0  0  0  0  0  0  0
  155.7021  141.8097  183.8423 O   0  0  0  0  0  0  0  0  0  0  0  0
  156.9856  140.4753  182.5056 N   0  0  0  0  0  0  0  0  0  0  0  0
  157.1140  139.6267  181.9569 H   0  0  0  0  0  0  0  0  0  0  0  0
  158.1057  141.4357  182.6532 C   0  0  0  0  0  0  0  0  0  0  0  0
  158.5188  141.7771  181.2967 C   0  0  0  0  0  0  0  0  0  0  0  0
  158.1799  140.9182  180.2089 N   0  0  0  0  0  0  0  0  0  0  0  0
  159.1878  142.8339  181.0914 O   0  0  0  0  0  0  0  0  0  0  0  0
  158.0598  139.8852  180.2832 H   0  0  0  0  0  0  0  0  0  0  0  0
  158.0411  141.3413  179.2448 H   0  0  0  0  0  0  0  0  0  0  0  0
  159.1731  140.6634  183.4347 C   0  0  0  0  0  0  0  0  0  0  0  0
  159.8721  141.4356  184.4483 C   0  0  0  0  0  0  0  0  0  0  0  0
  159.2037  141.7065  185.6248 C   0  0  0  0  0  0  0  0  0  0  0  0
  159.8447  142.3884  186.6339 C   0  0  0  0  0  0  0  0  0  0  0  0
  161.1479  142.8239  186.5103 C   0  0  0  0  0  0  0  0  0  0  0  0
  161.7618  142.5226  185.3080 C   0  0  0  0  0  0  0  0  0  0  0  0
  161.1783  141.8508  184.2834 C   0  0  0  0  0  0  0  0  0  0  0  0
  153.4416  140.5691  182.2591 C   0  0  0  0  0  0  0  0  0  0  0  0
  153.2070  139.9712  181.0486 O   0  0  0  0  0  0  0  0  0  0  0  0
  152.2810  139.9074  180.7506 H   0  0  0  0  0  0  0  0  0  0  0  0
  154.5455  138.2668  187.0807 C   0  0  0  0  0  0  0  0  0  0  0  0
  155.3123  136.9659  187.0022 C   0  0  0  0  0  0  0  0  0  0  0  0
  154.2570  138.4295  188.5907 C   0  0  0  0  0  0  0  0  0  0  0  0
  149.2570  135.1610  186.0434 C   0  0  0  0  0  0  0  0  0  0  0  0
  149.2513  133.9593  185.2386 O   0  0  0  0  0  0  0  0  0  0  0  0
  149.6204  133.2080  185.7399 H   0  0  0  0  0  0  0  0  0  0  0  0
  151.4220  134.0708  190.1699 C   0  0  0  0  0  0  0  0  0  0  0  0
  152.7711  132.0779  190.8667 C   0  0  0  0  0  0  0  0  0  0  0  0
  151.8130  131.2459  190.5797 O   0  0  0  0  0  0  0  0  0  0  0  0
  152.6176  133.4633  190.6655 N   0  0  0  0  0  0  0  0  0  0  0  0
  153.4571  134.0636  190.8825 H   0  0  0  0  0  0  0  0  0  0  0  0
  154.0223  131.5094  191.4239 C   0  0  0  0  0  0  0  0  0  0  0  0
  156.0865  132.7041  190.6296 C   0  0  0  0  0  0  0  0  0  0  0  0
  156.2831  131.8261  189.7793 O   0  0  0  0  0  0  0  0  0  0  0  0
  154.9682  132.6190  191.5291 N   0  0  0  0  0  0  0  0  0  0  0  0
  154.8028  133.3373  192.2507 H   0  0  0  0  0  0  0  0  0  0  0  0
  156.9703  133.8791  190.7776 C   0  0  0  0  0  0  0  0  0  0  0  0
  159.4851  134.3099  187.9424 C   0  0  0  0  0  0  0  0  0  0  0  0
  158.8877  133.8658  189.1822 C   0  0  0  0  0  0  0  0  0  0  0  0
  159.4735  133.0863  189.9709 O   0  0  0  0  0  0  0  0  0  0  0  0
  157.5618  134.3233  189.5520 N   0  0  0  0  0  0  0  0  0  0  0  0
  157.0605  134.9594  188.9271 H   0  0  0  0  0  0  0  0  0  0  0  0
  156.0219  135.0576  191.1931 C   0  0  0  0  0  0  0  0  0  0  0  0
  154.9773  135.1964  190.2957 O   0  0  0  0  0  0  0  0  0  0  0  0
  155.0072  136.0598  189.8262 H   0  0  0  0  0  0  0  0  0  0  0  0
  153.7070  130.9114  192.7838 C   0  0  0  0  0  0  0  0  0  0  0  0
  154.9764  130.3607  193.4446 C   0  0  0  0  0  0  0  0  0  0  0  0
  153.0721  131.9265  193.6858 C   0  0  0  0  0  0  0  0  0  0  0  0
  150.6221  134.9213  191.0687 C   0  0  0  0  0  0  0  0  0  0  0  0
  149.4457  134.1725  191.6690 C   0  0  0  0  0  0  0  0  0  0  0  0
  148.8305  133.2642  190.5871 C   0  0  0  0  0  0  0  0  0  0  0  0
  147.9394  134.0855  189.7668 N   0  0  0  0  0  0  0  0  0  0  0  0
  146.6709  133.9297  189.8762 C   0  0  0  0  0  0  0  0  0  0  0  0
  145.7753  134.6927  189.1087 N   0  0  0  0  0  0  0  0  0  0  0  0
  146.1414  132.9632  190.7989 N   0  0  0  0  0  0  0  0  0  0  0  0
  145.9341  134.8895  188.0982 H   0  0  0  0  0  0  0  0  0  0  0  0
  144.9139  135.0814  189.5566 H   0  0  0  0  0  0  0  0  0  0  0  0
  145.6851  133.2141  191.6811 H   0  0  0  0  0  0  0  0  0  0  0  0
  146.2574  131.9786  190.5057 H   0  0  0  0  0  0  0  0  0  0  0  0
 53 54  1  0  0  0
 54 55  2  0  0  0
 54 56  1  0  0  0
 56 52  1  0  0  0
 52 58  1  0  0  0
 58 59  1  0  0  0
 52 48  1  0  0  0
 48 49  2  0  0  0
 48 50  1  0  0  0
 50 47  1  0  0  0
 47 61  1  0  0  0
 61 62  1  0  0  0
 61 63  1  0  0  0
 47 43  1  0  0  0
 43 44  2  0  0  0
 43 45  1  0  0  0
 45 42  1  0  0  0
 42 64  1  0  0  0
 64 65  1  0  0  0
 65 66  1  0  0  0
 66 67  1  0  0  0
 67 68  2  0  0  0
 68 69  1  0  0  0
 68 70  1  0  0  0
 42  1  1  0  0  0
  1  2  2  0  0  0
  1  3  1  0  0  0
  3  5  1  0  0  0
  5 39  1  0  0  0
 39 40  1  0  0  0
  5  6  1  0  0  0
  6  7  2  0  0  0
  6  8  1  0  0  0
  8 10  1  0  0  0
 10 36  1  0  0  0
 36 37  1  0  0  0
 36 38  1  0  0  0
 10 11  1  0  0  0
 11 12  2  0  0  0
 11 13  1  0  0  0
 13 15  1  0  0  0
 15 33  1  0  0  0
 33 34  1  0  0  0
 15 16  1  0  0  0
 16 17  2  0  0  0
 16 18  1  0  0  0
 18 20  1  0  0  0
 20 26  1  0  0  0
 26 27  1  0  0  0
 27 28  2  0  0  0
 28 29  1  0  0  0
 29 30  2  0  0  0
 30 31  1  0  0  0
 31 32  2  0  0  0
 20 21  1  0  0  0
 21 22  1  0  0  0
 21 23  2  0  0  0
 32 27  1  0  0  0
 56 57  1  0  0  0
 59 60  1  0  0  0
 50 51  1  0  0  0
 45 46  1  0  0  0
 69 71  1  0  0  0
 69 72  1  0  0  0
 70 73  1  0  0  0
 70 74  1  0  0  0
  3  4  1  0  0  0
 40 41  1  0  0  0
  8  9  1  0  0  0
 13 14  1  0  0  0
 34 35  1  0  0  0
 18 19  1  0  0  0
 22 24  1  0  0  0
 22 25  1  0  0  0
M  END
> <minimizedAffinity>
-6.58073

> <CNNscore>
0.1594921350

> <CNNaffinity>
6.2158088684

> <CNN_VS>
0.9913726449

> <CNNaffinity_variance>
1.0499703884

$$$$
[H]OC([H])([H])[C@@]([H])(C(=O)N([H])[C@]([H])(C(=O)N([H])[H])C([H])([H])c1c([H])c([H])c([H])c([H])c1[H])N([H])C(=O)[C@@]([H])(N([H])C(=O)[C@@]([H])(N([H])C(=O)[C@@]([H])(N([H])C(=O)[C@@]([H])(N([H])C(=O)[C@@]([H])(N([H])C(=O)C([H])([H])[H])C([H])([H])O[H])C([H])(C([H])([H])[H])C([H])([H])[H])C([H])([H])C([H])([H])C([H])([H])N=C(N([H])[H])N([H])[H])C([H])([H])O[H])C([H])(C([H])([H])[H])C([H])([H])[H]


 74 74  0  0  0  0  0  0  0  0999 V2000
  154.9061  139.8253  184.0393 C   0  0  0  0  0  0  0  0  0  0  0  0
  155.9449  139.1640  183.8807 O   0  0  0  0  0  0  0  0  0  0  0  0
  153.8630  139.3845  184.8585 N   0  0  0  0  0  0  0  0  0  0  0  0
  152.9580  139.9998  184.7884 H   0  0  0  0  0  0  0  0  0  0  0  0
  153.8137  138.2347  185.6806 C   0  0  0  0  0  0  0  0  0  0  0  0
  152.9600  137.1508  185.1058 C   0  0  0  0  0  0  0  0  0  0  0  0
  153.2073  135.9959  185.4720 O   0  0  0  0  0  0  0  0  0  0  0  0
  151.9207  137.3890  184.2007 N   0  0  0  0  0  0  0  0  0  0  0  0
  151.8275  138.4534  183.9864 H   0  0  0  0  0  0  0  0  0  0  0  0
  150.9922  136.5787  183.5424 C   0  0  0  0  0  0  0  0  0  0  0  0
  150.2705  135.7133  184.5669 C   0  0  0  0  0  0  0  0  0  0  0  0
  150.1891  134.4869  184.3947 O   0  0  0  0  0  0  0  0  0  0  0  0
  149.6835  136.2955  185.7013 N   0  0  0  0  0  0  0  0  0  0  0  0
  149.7644  137.3292  185.8474 H   0  0  0  0  0  0  0  0  0  0  0  0
  148.9439  135.5814  186.7370 C   0  0  0  0  0  0  0  0  0  0  0  0
  147.6728  136.3076  186.9578 C   0  0  0  0  0  0  0  0  0  0  0  0
  147.5561  136.9590  187.9980 O   0  0  0  0  0  0  0  0  0  0  0  0
  146.5943  136.2797  186.0415 N   0  0  0  0  0  0  0  0  0  0  0  0
  146.6428  135.7884  185.1504 H   0  0  0  0  0  0  0  0  0  0  0  0
  145.3619  137.0158  186.4127 C   0  0  0  0  0  0  0  0  0  0  0  0
  144.4810  136.0314  187.0310 C   0  0  0  0  0  0  0  0  0  0  0  0
  144.3460  135.9851  188.4507 N   0  0  0  0  0  0  0  0  0  0  0  0
  143.8450  135.2125  186.3020 O   0  0  0  0  0  0  0  0  0  0  0  0
  145.0929  136.2527  189.1270 H   0  0  0  0  0  0  0  0  0  0  0  0
  143.4283  135.6517  188.8684 H   0  0  0  0  0  0  0  0  0  0  0  0
  144.8248  137.5594  185.0850 C   0  0  0  0  0  0  0  0  0  0  0  0
  145.8175  138.1926  184.2331 C   0  0  0  0  0  0  0  0  0  0  0  0
  146.6414  139.1422  184.8021 C   0  0  0  0  0  0  0  0  0  0  0  0
  147.6311  139.7295  184.0473 C   0  0  0  0  0  0  0  0  0  0  0  0
  147.8303  139.4050  182.7213 C   0  0  0  0  0  0  0  0  0  0  0  0
  146.9722  138.4483  182.2100 C   0  0  0  0  0  0  0  0  0  0  0  0
  145.9838  137.8360  182.9099 C   0  0  0  0  0  0  0  0  0  0  0  0
  149.7818  135.4294  187.9868 C   0  0  0  0  0  0  0  0  0  0  0  0
  151.1302  135.5684  187.7864 O   0  0  0  0  0  0  0  0  0  0  0  0
  151.6444  136.0171  188.4825 H   0  0  0  0  0  0  0  0  0  0  0  0
  151.5707  135.5844  182.5735 C   0  0  0  0  0  0  0  0  0  0  0  0
  152.8333  136.0783  181.9037 C   0  0  0  0  0  0  0  0  0  0  0  0
  150.5839  135.3968  181.3983 C   0  0  0  0  0  0  0  0  0  0  0  0
  153.3663  138.6409  187.0509 C   0  0  0  0  0  0  0  0  0  0  0  0
  152.0421  138.1033  187.2732 O   0  0  0  0  0  0  0  0  0  0  0  0
  152.0170  137.1516  187.0594 H   0  0  0  0  0  0  0  0  0  0  0  0
  154.7941  141.1044  183.3127 C   0  0  0  0  0  0  0  0  0  0  0  0
  156.3868  142.8057  182.3928 C   0  0  0  0  0  0  0  0  0  0  0  0
  155.4329  143.6449  182.1133 O   0  0  0  0  0  0  0  0  0  0  0  0
  156.1103  141.5614  182.9917 N   0  0  0  0  0  0  0  0  0  0  0  0
  156.9436  140.9588  183.2250 H   0  0  0  0  0  0  0  0  0  0  0  0
  157.7711  143.2077  182.0444 C   0  0  0  0  0  0  0  0  0  0  0  0
  159.7003  142.8640  183.6187 C   0  0  0  0  0  0  0  0  0  0  0  0
  159.8813  144.0869  183.6846 O   0  0  0  0  0  0  0  0  0  0  0  0
  158.6589  142.3185  182.7913 N   0  0  0  0  0  0  0  0  0  0  0  0
  158.5083  141.3006  182.7178 H   0  0  0  0  0  0  0  0  0  0  0  0
  160.5260  141.8969  184.3716 C   0  0  0  0  0  0  0  0  0  0  0  0
  162.7735  142.9129  187.2811 C   0  0  0  0  0  0  0  0  0  0  0  0
  162.3528  142.4398  185.9809 C   0  0  0  0  0  0  0  0  0  0  0  0
  163.1687  142.0863  185.0964 O   0  0  0  0  0  0  0  0  0  0  0  0
  160.9402  142.3614  185.6608 N   0  0  0  0  0  0  0  0  0  0  0  0
  160.2524  142.6439  186.3633 H   0  0  0  0  0  0  0  0  0  0  0  0
  159.5673  140.6962  184.6882 C   0  0  0  0  0  0  0  0  0  0  0  0
  159.5882  139.7598  183.6691 O   0  0  0  0  0  0  0  0  0  0  0  0
  158.7146  139.6789  183.2253 H   0  0  0  0  0  0  0  0  0  0  0  0
  157.9485  143.0461  180.5448 C   0  0  0  0  0  0  0  0  0  0  0  0
  159.2093  143.7743  180.0636 C   0  0  0  0  0  0  0  0  0  0  0  0
  158.0293  141.5986  180.1637 C   0  0  0  0  0  0  0  0  0  0  0  0
  153.7159  141.2649  182.3214 C   0  0  0  0  0  0  0  0  0  0  0  0
  153.0498  139.9437  181.9810 C   0  0  0  0  0  0  0  0  0  0  0  0
  152.3200  140.0882  180.6317 C   0  0  0  0  0  0  0  0  0  0  0  0
  151.2525  139.0880  180.5908 N   0  0  0  0  0  0  0  0  0  0  0  0
  150.4158  139.1084  179.6188 C   0  0  0  0  0  0  0  0  0  0  0  0
  149.3729  138.1707  179.5369 N   0  0  0  0  0  0  0  0  0  0  0  0
  150.5367  140.1001  178.5856 N   0  0  0  0  0  0  0  0  0  0  0  0
  148.8111  137.8875  180.3671 H   0  0  0  0  0  0  0  0  0  0  0  0
  149.1420  137.7357  178.6144 H   0  0  0  0  0  0  0  0  0  0  0  0
  150.8706  139.8936  177.6394 H   0  0  0  0  0  0  0  0  0  0  0  0
  150.2603  141.0549  178.8700 H   0  0  0  0  0  0  0  0  0  0  0  0
 53 54  1  0  0  0
 54 55  2  0  0  0
 54 56  1  0  0  0
 56 52  1  0  0  0
 52 58  1  0  0  0
 58 59  1  0  0  0
 52 48  1  0  0  0
 48 49  2  0  0  0
 48 50  1  0  0  0
 50 47  1  0  0  0
 47 61  1  0  0  0
 61 62  1  0  0  0
 61 63  1  0  0  0
 47 43  1  0  0  0
 43 44  2  0  0  0
 43 45  1  0  0  0
 45 42  1  0  0  0
 42 64  1  0  0  0
 64 65  1  0  0  0
 65 66  1  0  0  0
 66 67  1  0  0  0
 67 68  2  0  0  0
 68 69  1  0  0  0
 68 70  1  0  0  0
 42  1  1  0  0  0
  1  2  2  0  0  0
  1  3  1  0  0  0
  3  5  1  0  0  0
  5 39  1  0  0  0
 39 40  1  0  0  0
  5  6  1  0  0  0
  6  7  2  0  0  0
  6  8  1  0  0  0
  8 10  1  0  0  0
 10 36  1  0  0  0
 36 37  1  0  0  0
 36 38  1  0  0  0
 10 11  1  0  0  0
 11 12  2  0  0  0
 11 13  1  0  0  0
 13 15  1  0  0  0
 15 33  1  0  0  0
 33 34  1  0  0  0
 15 16  1  0  0  0
 16 17  2  0  0  0
 16 18  1  0  0  0
 18 20  1  0  0  0
 20 26  1  0  0  0
 26 27  1  0  0  0
 27 28  2  0  0  0
 28 29  1  0  0  0
 29 30  2  0  0  0
 30 31  1  0  0  0
 31 32  2  0  0  0
 20 21  1  0  0  0
 21 22  1  0  0  0
 21 23  2  0  0  0
 32 27  1  0  0  0
 56 57  1  0  0  0
 59 60  1  0  0  0
 50 51  1  0  0  0
 45 46  1  0  0  0
 69 71  1  0  0  0
 69 72  1  0  0  0
 70 73  1  0  0  0
 70 74  1  0  0  0
  3  4  1  0  0  0
 40 41  1  0  0  0
  8  9  1  0  0  0
 13 14  1  0  0  0
 34 35  1  0  0  0
 18 19  1  0  0  0
 22 24  1  0  0  0
 22 25  1  0  0  0
M  END
> <minimizedAffinity>
-7.49920

> <CNNscore>
0.1438391209

> <CNNaffinity>
6.3868379593

> <CNN_VS>
0.9186771512

> <CNNaffinity_variance>
0.8425165415

$$$$
[H]OC([H])([H])[C@@]([H])(C(=O)N([H])[C@]([H])(C(=O)N([H])[H])C([H])([H])c1c([H])c([H])c([H])c([H])c1[H])N([H])C(=O)[C@@]([H])(N([H])C(=O)[C@@]([H])(N([H])C(=O)[C@@]([H])(N([H])C(=O)[C@@]([H])(N([H])C(=O)[C@@]([H])(N([H])C(=O)C([H])([H])[H])C([H])([H])O[H])C([H])(C([H])([H])[H])C([H])([H])[H])C([H])([H])C([H])([H])C([H])([H])N=C(N([H])[H])N([H])[H])C([H])([H])O[H])C([H])(C([H])([H])[H])C([H])([H])[H]


 74 74  0  0  0  0  0  0  0  0999 V2000
  153.7654  137.2993  185.0029 C   0  0  0  0  0  0  0  0  0  0  0  0
  154.7007  136.5123  185.2203 O   0  0  0  0  0  0  0  0  0  0  0  0
  152.6328  137.3505  185.8203 N   0  0  0  0  0  0  0  0  0  0  0  0
  151.8331  137.9882  185.4250 H   0  0  0  0  0  0  0  0  0  0  0  0
  152.3767  136.6413  187.0169 C   0  0  0  0  0  0  0  0  0  0  0  0
  150.9520  136.2050  187.1353 C   0  0  0  0  0  0  0  0  0  0  0  0
  150.0906  137.0210  186.7873 O   0  0  0  0  0  0  0  0  0  0  0  0
  150.5703  134.9445  187.6059 N   0  0  0  0  0  0  0  0  0  0  0  0
  151.4430  134.3444  187.8629 H   0  0  0  0  0  0  0  0  0  0  0  0
  149.3446  134.3021  187.7976 C   0  0  0  0  0  0  0  0  0  0  0  0
  148.7746  134.7086  189.1502 C   0  0  0  0  0  0  0  0  0  0  0  0
  147.9094  135.5960  189.2165 O   0  0  0  0  0  0  0  0  0  0  0  0
  149.2310  134.0946  190.3270 N   0  0  0  0  0  0  0  0  0  0  0  0
  149.9532  133.3390  190.2645 H   0  0  0  0  0  0  0  0  0  0  0  0
  148.7860  134.4133  191.6798 C   0  0  0  0  0  0  0  0  0  0  0  0
  149.9311  135.0227  192.3935 C   0  0  0  0  0  0  0  0  0  0  0  0
  149.8571  136.2186  192.6837 O   0  0  0  0  0  0  0  0  0  0  0  0
  151.0979  134.3026  192.7452 N   0  0  0  0  0  0  0  0  0  0  0  0
  151.2043  133.3059  192.5636 H   0  0  0  0  0  0  0  0  0  0  0  0
  152.1874  135.0512  193.4169 C   0  0  0  0  0  0  0  0  0  0  0  0
  153.2694  135.1391  192.4430 C   0  0  0  0  0  0  0  0  0  0  0  0
  153.2585  134.3051  191.2853 N   0  0  0  0  0  0  0  0  0  0  0  0
  154.2227  135.9519  192.6353 O   0  0  0  0  0  0  0  0  0  0  0  0
  152.8322  133.3546  191.2424 H   0  0  0  0  0  0  0  0  0  0  0  0
  153.7171  134.6572  190.3946 H   0  0  0  0  0  0  0  0  0  0  0  0
  152.5414  134.1991  194.6397 C   0  0  0  0  0  0  0  0  0  0  0  0
  151.8746  134.5851  195.8721 C   0  0  0  0  0  0  0  0  0  0  0  0
  150.5438  134.2495  196.0154 C   0  0  0  0  0  0  0  0  0  0  0  0
  149.8859  134.5474  197.1870 C   0  0  0  0  0  0  0  0  0  0  0  0
  150.5136  135.1841  198.2376 C   0  0  0  0  0  0  0  0  0  0  0  0
  151.8456  135.4946  198.0316 C   0  0  0  0  0  0  0  0  0  0  0  0
  152.5423  135.2208  196.8996 C   0  0  0  0  0  0  0  0  0  0  0  0
  148.2272  133.1859  192.3642 C   0  0  0  0  0  0  0  0  0  0  0  0
  148.2148  133.2555  193.7327 O   0  0  0  0  0  0  0  0  0  0  0  0
  147.4566  132.8548  194.1964 H   0  0  0  0  0  0  0  0  0  0  0  0
  149.4028  132.8008  187.8669 C   0  0  0  0  0  0  0  0  0  0  0  0
  150.3594  132.1998  186.8616 C   0  0  0  0  0  0  0  0  0  0  0  0
  148.0290  132.2259  187.4518 C   0  0  0  0  0  0  0  0  0  0  0  0
  152.8093  137.4828  188.1778 C   0  0  0  0  0  0  0  0  0  0  0  0
  152.5581  136.7409  189.3938 O   0  0  0  0  0  0  0  0  0  0  0  0
  152.9311  135.8415  189.3311 H   0  0  0  0  0  0  0  0  0  0  0  0
  153.8769  138.1833  183.8271 C   0  0  0  0  0  0  0  0  0  0  0  0
  152.1505  138.8378  182.1333 C   0  0  0  0  0  0  0  0  0  0  0  0
  152.5050  140.0892  182.1578 O   0  0  0  0  0  0  0  0  0  0  0  0
  152.8091  137.8783  182.9264 N   0  0  0  0  0  0  0  0  0  0  0  0
  152.4892  136.8796  182.8150 H   0  0  0  0  0  0  0  0  0  0  0  0
  151.0202  138.4676  181.2477 C   0  0  0  0  0  0  0  0  0  0  0  0
  150.0208  136.3736  182.2148 C   0  0  0  0  0  0  0  0  0  0  0  0
  150.8239  135.6803  181.5770 O   0  0  0  0  0  0  0  0  0  0  0  0
  150.0307  137.8064  182.0966 N   0  0  0  0  0  0  0  0  0  0  0  0
  149.3570  138.3931  182.6123 H   0  0  0  0  0  0  0  0  0  0  0  0
  149.0145  135.7890  183.1255 C   0  0  0  0  0  0  0  0  0  0  0  0
  145.6115  135.4578  181.4349 C   0  0  0  0  0  0  0  0  0  0  0  0
  146.7483  136.0392  182.1136 C   0  0  0  0  0  0  0  0  0  0  0  0
  146.7979  137.2528  182.4260 O   0  0  0  0  0  0  0  0  0  0  0  0
  147.8882  135.2106  182.4575 N   0  0  0  0  0  0  0  0  0  0  0  0
  147.8750  134.2171  182.2142 H   0  0  0  0  0  0  0  0  0  0  0  0
  149.7295  134.5652  183.7978 C   0  0  0  0  0  0  0  0  0  0  0  0
  150.9319  134.9434  184.3697 O   0  0  0  0  0  0  0  0  0  0  0  0
  151.6991  134.5055  183.9380 H   0  0  0  0  0  0  0  0  0  0  0  0
  150.4667  139.7392  180.6287 C   0  0  0  0  0  0  0  0  0  0  0  0
  150.8510  139.8363  179.1473 C   0  0  0  0  0  0  0  0  0  0  0  0
  148.9752  139.8011  180.7649 C   0  0  0  0  0  0  0  0  0  0  0  0
  154.2650  139.5899  184.0316 C   0  0  0  0  0  0  0  0  0  0  0  0
  155.7463  139.7376  184.3293 C   0  0  0  0  0  0  0  0  0  0  0  0
  156.2576  141.0356  183.6752 C   0  0  0  0  0  0  0  0  0  0  0  0
  156.5530  140.7435  182.2720 N   0  0  0  0  0  0  0  0  0  0  0  0
  157.2593  141.5748  181.5972 C   0  0  0  0  0  0  0  0  0  0  0  0
  157.5674  141.3396  180.2469 N   0  0  0  0  0  0  0  0  0  0  0  0
  157.7543  142.7713  182.2211 N   0  0  0  0  0  0  0  0  0  0  0  0
  156.8647  140.9748  179.5699 H   0  0  0  0  0  0  0  0  0  0  0  0
  158.5332  141.5352  179.8968 H   0  0  0  0  0  0  0  0  0  0  0  0
  158.7362  142.9108  182.4779 H   0  0  0  0  0  0  0  0  0  0  0  0
  157.0365  143.4939  182.3982 H   0  0  0  0  0  0  0  0  0  0  0  0
 53 54  1  0  0  0
 54 55  2  0  0  0
 54 56  1  0  0  0
 56 52  1  0  0  0
 52 58  1  0  0  0
 58 59  1  0  0  0
 52 48  1  0  0  0
 48 49  2  0  0  0
 48 50  1  0  0  0
 50 47  1  0  0  0
 47 61  1  0  0  0
 61 62  1  0  0  0
 61 63  1  0  0  0
 47 43  1  0  0  0
 43 44  2  0  0  0
 43 45  1  0  0  0
 45 42  1  0  0  0
 42 64  1  0  0  0
 64 65  1  0  0  0
 65 66  1  0  0  0
 66 67  1  0  0  0
 67 68  2  0  0  0
 68 69  1  0  0  0
 68 70  1  0  0  0
 42  1  1  0  0  0
  1  2  2  0  0  0
  1  3  1  0  0  0
  3  5  1  0  0  0
  5 39  1  0  0  0
 39 40  1  0  0  0
  5  6  1  0  0  0
  6  7  2  0  0  0
  6  8  1  0  0  0
  8 10  1  0  0  0
 10 36  1  0  0  0
 36 37  1  0  0  0
 36 38  1  0  0  0
 10 11  1  0  0  0
 11 12  2  0  0  0
 11 13  1  0  0  0
 13 15  1  0  0  0
 15 33  1  0  0  0
 33 34  1  0  0  0
 15 16  1  0  0  0
 16 17  2  0  0  0
 16 18  1  0  0  0
 18 20  1  0  0  0
 20 26  1  0  0  0
 26 27  1  0  0  0
 27 28  2  0  0  0
 28 29  1  0  0  0
 29 30  2  0  0  0
 30 31  1  0  0  0
 31 32  2  0  0  0
 20 21  1  0  0  0
 21 22  1  0  0  0
 21 23  2  0  0  0
 32 27  1  0  0  0
 56 57  1  0  0  0
 59 60  1  0  0  0
 50 51  1  0  0  0
 45 46  1  0  0  0
 69 71  1  0  0  0
 69 72  1  0  0  0
 70 73  1  0  0  0
 70 74  1  0  0  0
  3  4  1  0  0  0
 40 41  1  0  0  0
  8  9  1  0  0  0
 13 14  1  0  0  0
 34 35  1  0  0  0
 18 19  1  0  0  0
 22 24  1  0  0  0
 22 25  1  0  0  0
M  END
> <minimizedAffinity>
-5.73971

> <CNNscore>
0.1263362318

> <CNNaffinity>
5.5636181831

> <CNN_VS>
0.7028865814

> <CNNaffinity_variance>
1.3827121258

$$$$
[H]OC([H])([H])[C@@]([H])(C(=O)N([H])[C@]([H])(C(=O)N([H])[H])C([H])([H])c1c([H])c([H])c([H])c([H])c1[H])N([H])C(=O)[C@@]([H])(N([H])C(=O)[C@@]([H])(N([H])C(=O)[C@@]([H])(N([H])C(=O)[C@@]([H])(N([H])C(=O)[C@@]([H])(N([H])C(=O)C([H])([H])[H])C([H])([H])O[H])C([H])(C([H])([H])[H])C([H])([H])[H])C([H])([H])C([H])([H])C([H])([H])N=C(N([H])[H])N([H])[H])C([H])([H])O[H])C([H])(C([H])([H])[H])C([H])([H])[H]


 74 74  0  0  0  0  0  0  0  0999 V2000
  151.6746  137.2386  187.1987 C   0  0  0  0  0  0  0  0  0  0  0  0
  151.9268  137.5202  186.0161 O   0  0  0  0  0  0  0  0  0  0  0  0
  152.6013  137.4435  188.2247 N   0  0  0  0  0  0  0  0  0  0  0  0
  152.2937  137.0175  189.1872 H   0  0  0  0  0  0  0  0  0  0  0  0
  153.8780  138.0477  188.1516 C   0  0  0  0  0  0  0  0  0  0  0  0
  154.8381  137.2677  187.3125 C   0  0  0  0  0  0  0  0  0  0  0  0
  155.6430  137.9201  186.6377 O   0  0  0  0  0  0  0  0  0  0  0  0
  154.8613  135.8700  187.2686 N   0  0  0  0  0  0  0  0  0  0  0  0
  154.0983  135.4474  187.9218 H   0  0  0  0  0  0  0  0  0  0  0  0
  155.6415  134.9255  186.5970 C   0  0  0  0  0  0  0  0  0  0  0  0
  154.8862  134.4380  185.3676 C   0  0  0  0  0  0  0  0  0  0  0  0
  155.3392  133.4990  184.6942 O   0  0  0  0  0  0  0  0  0  0  0  0
  153.6848  135.0529  184.9818 N   0  0  0  0  0  0  0  0  0  0  0  0
  153.3015  135.8374  185.5596 H   0  0  0  0  0  0  0  0  0  0  0  0
  152.8851  134.6978  183.8139 C   0  0  0  0  0  0  0  0  0  0  0  0
  152.7879  135.9018  182.9578 C   0  0  0  0  0  0  0  0  0  0  0  0
  152.6055  135.7352  181.7499 O   0  0  0  0  0  0  0  0  0  0  0  0
  152.9031  137.2208  183.4584 N   0  0  0  0  0  0  0  0  0  0  0  0
  153.0201  137.4242  184.4497 H   0  0  0  0  0  0  0  0  0  0  0  0
  152.8328  138.3326  182.4799 C   0  0  0  0  0  0  0  0  0  0  0  0
  153.7243  139.3684  182.9893 C   0  0  0  0  0  0  0  0  0  0  0  0
  154.0363  139.4220  184.3806 N   0  0  0  0  0  0  0  0  0  0  0  0
  154.2116  140.2250  182.1922 O   0  0  0  0  0  0  0  0  0  0  0  0
  153.3993  139.1090  185.1442 H   0  0  0  0  0  0  0  0  0  0  0  0
  154.9779  139.8104  184.6809 H   0  0  0  0  0  0  0  0  0  0  0  0
  151.3588  138.7498  182.4781 C   0  0  0  0  0  0  0  0  0  0  0  0
  150.7488  138.8467  181.1625 C   0  0  0  0  0  0  0  0  0  0  0  0
  151.1735  139.8622  180.3301 C   0  0  0  0  0  0  0  0  0  0  0  0
  150.6626  139.9606  179.0560 C   0  0  0  0  0  0  0  0  0  0  0  0
  149.7229  139.0732  178.5735 C   0  0  0  0  0  0  0  0  0  0  0  0
  149.3378  138.0800  179.4558 C   0  0  0  0  0  0  0  0  0  0  0  0
  149.8117  137.9351  180.7192 C   0  0  0  0  0  0  0  0  0  0  0  0
  151.5431  134.1397  184.2318 C   0  0  0  0  0  0  0  0  0  0  0  0
  150.4963  135.0125  184.0895 O   0  0  0  0  0  0  0  0  0  0  0  0
  149.6406  134.6451  183.8009 H   0  0  0  0  0  0  0  0  0  0  0  0
  155.9366  133.6650  187.3628 C   0  0  0  0  0  0  0  0  0  0  0  0
  155.8027  133.8380  188.8591 C   0  0  0  0  0  0  0  0  0  0  0  0
  157.4258  133.2980  187.1699 C   0  0  0  0  0  0  0  0  0  0  0  0
  154.3888  138.2649  189.5425 C   0  0  0  0  0  0  0  0  0  0  0  0
  154.6681  136.9729  190.1296 O   0  0  0  0  0  0  0  0  0  0  0  0
  155.2193  136.4350  189.5307 H   0  0  0  0  0  0  0  0  0  0  0  0
  150.3520  136.6556  187.4939 C   0  0  0  0  0  0  0  0  0  0  0  0
  148.3770  137.4608  186.1793 C   0  0  0  0  0  0  0  0  0  0  0  0
  147.9428  138.1996  187.1581 O   0  0  0  0  0  0  0  0  0  0  0  0
  149.5583  136.7046  186.3056 N   0  0  0  0  0  0  0  0  0  0  0  0
  149.8638  136.1675  185.4511 H   0  0  0  0  0  0  0  0  0  0  0  0
  147.5722  137.4391  184.9339 C   0  0  0  0  0  0  0  0  0  0  0  0
  146.6126  135.1167  185.0011 C   0  0  0  0  0  0  0  0  0  0  0  0
  147.6861  134.6476  184.6012 O   0  0  0  0  0  0  0  0  0  0  0  0
  146.4518  136.5338  185.1828 N   0  0  0  0  0  0  0  0  0  0  0  0
  145.5574  136.9368  185.5020 H   0  0  0  0  0  0  0  0  0  0  0  0
  145.4428  134.2698  185.3143 C   0  0  0  0  0  0  0  0  0  0  0  0
  145.1881  130.9355  183.4794 C   0  0  0  0  0  0  0  0  0  0  0  0
  145.0049  132.3325  183.8052 C   0  0  0  0  0  0  0  0  0  0  0  0
  144.3233  133.1068  183.0918 O   0  0  0  0  0  0  0  0  0  0  0  0
  145.6218  132.8856  184.9958 N   0  0  0  0  0  0  0  0  0  0  0  0
  146.1837  132.2769  185.5960 H   0  0  0  0  0  0  0  0  0  0  0  0
  145.3272  134.2898  186.8786 C   0  0  0  0  0  0  0  0  0  0  0  0
  146.5617  134.5045  187.4667 O   0  0  0  0  0  0  0  0  0  0  0  0
  146.8518  133.7350  188.0057 H   0  0  0  0  0  0  0  0  0  0  0  0
  147.0970  138.8537  184.6517 C   0  0  0  0  0  0  0  0  0  0  0  0
  147.6418  139.3538  183.3083 C   0  0  0  0  0  0  0  0  0  0  0  0
  145.6000  138.9292  184.6451 C   0  0  0  0  0  0  0  0  0  0  0  0
  150.2789  135.4646  188.3584 C   0  0  0  0  0  0  0  0  0  0  0  0
  151.2645  134.3896  187.9365 C   0  0  0  0  0  0  0  0  0  0  0  0
  152.1627  134.0397  189.1385 C   0  0  0  0  0  0  0  0  0  0  0  0
  151.3565  134.1704  190.3528 N   0  0  0  0  0  0  0  0  0  0  0  0
  151.9369  134.4659  191.4579 C   0  0  0  0  0  0  0  0  0  0  0  0
  151.2063  134.6001  192.6502 N   0  0  0  0  0  0  0  0  0  0  0  0
  153.3592  134.6696  191.4919 N   0  0  0  0  0  0  0  0  0  0  0  0
  150.4462  133.9391  192.9160 H   0  0  0  0  0  0  0  0  0  0  0  0
  151.4250  135.3871  193.3031 H   0  0  0  0  0  0  0  0  0  0  0  0
  153.7966  135.5906  191.5916 H   0  0  0  0  0  0  0  0  0  0  0  0
  153.9207  133.8059  191.4046 H   0  0  0  0  0  0  0  0  0  0  0  0
 53 54  1  0  0  0
 54 55  2  0  0  0
 54 56  1  0  0  0
 56 52  1  0  0  0
 52 58  1  0  0  0
 58 59  1  0  0  0
 52 48  1  0  0  0
 48 49  2  0  0  0
 48 50  1  0  0  0
 50 47  1  0  0  0
 47 61  1  0  0  0
 61 62  1  0  0  0
 61 63  1  0  0  0
 47 43  1  0  0  0
 43 44  2  0  0  0
 43 45  1  0  0  0
 45 42  1  0  0  0
 42 64  1  0  0  0
 64 65  1  0  0  0
 65 66  1  0  0  0
 66 67  1  0  0  0
 67 68  2  0  0  0
 68 69  1  0  0  0
 68 70  1  0  0  0
 42  1  1  0  0  0
  1  2  2  0  0  0
  1  3  1  0  0  0
  3  5  1  0  0  0
  5 39  1  0  0  0
 39 40  1  0  0  0
  5  6  1  0  0  0
  6  7  2  0  0  0
  6  8  1  0  0  0
  8 10  1  0  0  0
 10 36  1  0  0  0
 36 37  1  0  0  0
 36 38  1  0  0  0
 10 11  1  0  0  0
 11 12  2  0  0  0
 11 13  1  0  0  0
 13 15  1  0  0  0
 15 33  1  0  0  0
 33 34  1  0  0  0
 15 16  1  0  0  0
 16 17  2  0  0  0
 16 18  1  0  0  0
 18 20  1  0  0  0
 20 26  1  0  0  0
 26 27  1  0  0  0
 27 28  2  0  0  0
 28 29  1  0  0  0
 29 30  2  0  0  0
 30 31  1  0  0  0
 31 32  2  0  0  0
 20 21  1  0  0  0
 21 22  1  0  0  0
 21 23  2  0  0  0
 32 27  1  0  0  0
 56 57  1  0  0  0
 59 60  1  0  0  0
 50 51  1  0  0  0
 45 46  1  0  0  0
 69 71  1  0  0  0
 69 72  1  0  0  0
 70 73  1  0  0  0
 70 74  1  0  0  0
  3  4  1  0  0  0
 40 41  1  0  0  0
  8  9  1  0  0  0
 13 14  1  0  0  0
 34 35  1  0  0  0
 18 19  1  0  0  0
 22 24  1  0  0  0
 22 25  1  0  0  0
M  END
> <minimizedAffinity>
-4.60982

> <CNNscore>
0.1218161732

> <CNNaffinity>
5.6156220436

> <CNN_VS>
0.6840735674

> <CNNaffinity_variance>
1.2954456806

$$$$
[H]OC([H])([H])[C@@]([H])(C(=O)N([H])[C@]([H])(C(=O)N([H])[H])C([H])([H])c1c([H])c([H])c([H])c([H])c1[H])N([H])C(=O)[C@@]([H])(N([H])C(=O)[C@@]([H])(N([H])C(=O)[C@@]([H])(N([H])C(=O)[C@@]([H])(N([H])C(=O)[C@@]([H])(N([H])C(=O)C([H])([H])[H])C([H])([H])O[H])C([H])(C([H])([H])[H])C([H])([H])[H])C([H])([H])C([H])([H])C([H])([H])N=C(N([H])[H])N([H])[H])C([H])([H])O[H])C([H])(C([H])([H])[H])C([H])([H])[H]


 74 74  0  0  0  0  0  0  0  0999 V2000
  150.6536  136.3642  186.7293 C   0  0  0  0  0  0  0  0  0  0  0  0
  150.0408  136.8982  185.7908 O   0  0  0  0  0  0  0  0  0  0  0  0
  151.9623  136.7246  187.0623 N   0  0  0  0  0  0  0  0  0  0  0  0
  152.4205  136.0723  187.8152 H   0  0  0  0  0  0  0  0  0  0  0  0
  152.7628  137.7494  186.5061 C   0  0  0  0  0  0  0  0  0  0  0  0
  153.1755  137.4595  185.0991 C   0  0  0  0  0  0  0  0  0  0  0  0
  154.0255  136.5755  184.9406 O   0  0  0  0  0  0  0  0  0  0  0  0
  152.6476  138.1277  183.9896 N   0  0  0  0  0  0  0  0  0  0  0  0
  151.9089  138.8680  184.2964 H   0  0  0  0  0  0  0  0  0  0  0  0
  152.8476  138.0414  182.6096 C   0  0  0  0  0  0  0  0  0  0  0  0
  153.1248  139.4336  182.0578 C   0  0  0  0  0  0  0  0  0  0  0  0
  152.5878  139.7991  181.0002 O   0  0  0  0  0  0  0  0  0  0  0  0
  153.9957  140.3044  182.7314 N   0  0  0  0  0  0  0  0  0  0  0  0
  154.4375  139.9951  183.6288 H   0  0  0  0  0  0  0  0  0  0  0  0
  154.3626  141.6470  182.2927 C   0  0  0  0  0  0  0  0  0  0  0  0
  155.8405  141.7324  182.3085 C   0  0  0  0  0  0  0  0  0  0  0  0
  156.3702  142.6508  181.6792 O   0  0  0  0  0  0  0  0  0  0  0  0
  156.6634  140.8107  182.9994 N   0  0  0  0  0  0  0  0  0  0  0  0
  156.2849  140.0521  183.5642 H   0  0  0  0  0  0  0  0  0  0  0  0
  158.1313  140.9891  182.8908 C   0  0  0  0  0  0  0  0  0  0  0  0
  158.5381  140.2336  181.7114 C   0  0  0  0  0  0  0  0  0  0  0  0
  158.6820  140.8936  180.4545 N   0  0  0  0  0  0  0  0  0  0  0  0
  158.7531  138.9882  181.8069 O   0  0  0  0  0  0  0  0  0  0  0  0
  158.1346  141.7295  180.1569 H   0  0  0  0  0  0  0  0  0  0  0  0
  159.3882  140.5186  179.7557 H   0  0  0  0  0  0  0  0  0  0  0  0
  158.6855  140.4148  184.1983 C   0  0  0  0  0  0  0  0  0  0  0  0
  159.5663  141.3047  184.9362 C   0  0  0  0  0  0  0  0  0  0  0  0
  160.7533  141.6759  184.3382 C   0  0  0  0  0  0  0  0  0  0  0  0
  161.5938  142.5591  184.9767 C   0  0  0  0  0  0  0  0  0  0  0  0
  161.2938  143.0909  186.2138 C   0  0  0  0  0  0  0  0  0  0  0  0
  160.0918  142.6791  186.7602 C   0  0  0  0  0  0  0  0  0  0  0  0
  159.2256  141.8151  186.1728 C   0  0  0  0  0  0  0  0  0  0  0  0
  153.6844  142.6948  183.1466 C   0  0  0  0  0  0  0  0  0  0  0  0
  154.5103  143.3139  184.0479 O   0  0  0  0  0  0  0  0  0  0  0  0
  154.3661  144.2641  184.2110 H   0  0  0  0  0  0  0  0  0  0  0  0
  151.6651  137.5655  181.8112 C   0  0  0  0  0  0  0  0  0  0  0  0
  150.3422  137.8629  182.4806 C   0  0  0  0  0  0  0  0  0  0  0  0
  151.6978  136.0217  181.7381 C   0  0  0  0  0  0  0  0  0  0  0  0
  153.9384  137.9835  187.4039 C   0  0  0  0  0  0  0  0  0  0  0  0
  154.3639  136.7074  187.9354 O   0  0  0  0  0  0  0  0  0  0  0  0
  154.4733  136.0554  187.2178 H   0  0  0  0  0  0  0  0  0  0  0  0
  149.9555  135.3078  187.4865 C   0  0  0  0  0  0  0  0  0  0  0  0
  151.0400  133.7081  189.0809 C   0  0  0  0  0  0  0  0  0  0  0  0
  150.6768  132.6684  188.3887 O   0  0  0  0  0  0  0  0  0  0  0  0
  150.7157  135.0126  188.6609 N   0  0  0  0  0  0  0  0  0  0  0  0
  151.0851  135.8013  189.2556 H   0  0  0  0  0  0  0  0  0  0  0  0
  151.7966  133.4624  190.3325 C   0  0  0  0  0  0  0  0  0  0  0  0
  153.5038  134.9640  191.4044 C   0  0  0  0  0  0  0  0  0  0  0  0
  154.2937  134.0160  191.5046 O   0  0  0  0  0  0  0  0  0  0  0  0
  152.1966  134.7748  190.8369 N   0  0  0  0  0  0  0  0  0  0  0  0
  151.5252  135.5543  190.7615 H   0  0  0  0  0  0  0  0  0  0  0  0
  153.8422  136.3310  191.8523 C   0  0  0  0  0  0  0  0  0  0  0  0
  156.7614  138.0784  190.1279 C   0  0  0  0  0  0  0  0  0  0  0  0
  156.0063  137.3139  191.0958 C   0  0  0  0  0  0  0  0  0  0  0  0
  156.5312  136.8222  192.1232 O   0  0  0  0  0  0  0  0  0  0  0  0
  154.5870  137.0918  190.8953 N   0  0  0  0  0  0  0  0  0  0  0  0
  154.1328  137.4810  190.0654 H   0  0  0  0  0  0  0  0  0  0  0  0
  152.4690  137.0829  191.9525 C   0  0  0  0  0  0  0  0  0  0  0  0
  151.9084  136.9309  193.2089 O   0  0  0  0  0  0  0  0  0  0  0  0
  151.0580  136.4386  193.1757 H   0  0  0  0  0  0  0  0  0  0  0  0
  150.8801  132.7434  191.3070 C   0  0  0  0  0  0  0  0  0  0  0  0
  151.6811  131.8032  192.2159 C   0  0  0  0  0  0  0  0  0  0  0  0
  150.1128  133.7195  192.1469 C   0  0  0  0  0  0  0  0  0  0  0  0
  148.4854  135.3517  187.5742 C   0  0  0  0  0  0  0  0  0  0  0  0
  148.0061  136.2181  188.7251 C   0  0  0  0  0  0  0  0  0  0  0  0
  146.5072  135.9489  188.9591 C   0  0  0  0  0  0  0  0  0  0  0  0
  145.7518  137.0019  188.2794 N   0  0  0  0  0  0  0  0  0  0  0  0
  144.8368  136.6724  187.4430 C   0  0  0  0  0  0  0  0  0  0  0  0
  144.0865  137.6469  186.7641 N   0  0  0  0  0  0  0  0  0  0  0  0
  144.5605  135.2852  187.1879 N   0  0  0  0  0  0  0  0  0  0  0  0
  144.5201  138.5044  186.3618 H   0  0  0  0  0  0  0  0  0  0  0  0
  143.0550  137.5172  186.6511 H   0  0  0  0  0  0  0  0  0  0  0  0
  143.7250  134.8022  187.5315 H   0  0  0  0  0  0  0  0  0  0  0  0
  145.2785  134.7991  186.6248 H   0  0  0  0  0  0  0  0  0  0  0  0
 53 54  1  0  0  0
 54 55  2  0  0  0
 54 56  1  0  0  0
 56 52  1  0  0  0
 52 58  1  0  0  0
 58 59  1  0  0  0
 52 48  1  0  0  0
 48 49  2  0  0  0
 48 50  1  0  0  0
 50 47  1  0  0  0
 47 61  1  0  0  0
 61 62  1  0  0  0
 61 63  1  0  0  0
 47 43  1  0  0  0
 43 44  2  0  0  0
 43 45  1  0  0  0
 45 42  1  0  0  0
 42 64  1  0  0  0
 64 65  1  0  0  0
 65 66  1  0  0  0
 66 67  1  0  0  0
 67 68  2  0  0  0
 68 69  1  0  0  0
 68 70  1  0  0  0
 42  1  1  0  0  0
  1  2  2  0  0  0
  1  3  1  0  0  0
  3  5  1  0  0  0
  5 39  1  0  0  0
 39 40  1  0  0  0
  5  6  1  0  0  0
  6  7  2  0  0  0
  6  8  1  0  0  0
  8 10  1  0  0  0
 10 36  1  0  0  0
 36 37  1  0  0  0
 36 38  1  0  0  0
 10 11  1  0  0  0
 11 12  2  0  0  0
 11 13  1  0  0  0
 13 15  1  0  0  0
 15 33  1  0  0  0
 33 34  1  0  0  0
 15 16  1  0  0  0
 16 17  2  0  0  0
 16 18  1  0  0  0
 18 20  1  0  0  0
 20 26  1  0  0  0
 26 27  1  0  0  0
 27 28  2  0  0  0
 28 29  1  0  0  0
 29 30  2  0  0  0
 30 31  1  0  0  0
 31 32  2  0  0  0
 20 21  1  0  0  0
 21 22  1  0  0  0
 21 23  2  0  0  0
 32 27  1  0  0  0
 56 57  1  0  0  0
 59 60  1  0  0  0
 50 51  1  0  0  0
 45 46  1  0  0  0
 69 71  1  0  0  0
 69 72  1  0  0  0
 70 73  1  0  0  0
 70 74  1  0  0  0
  3  4  1  0  0  0
 40 41  1  0  0  0
  8  9  1  0  0  0
 13 14  1  0  0  0
 34 35  1  0  0  0
 18 19  1  0  0  0
 22 24  1  0  0  0
 22 25  1  0  0  0
M  END
> <minimizedAffinity>
-7.28910

> <CNNscore>
0.1200420707

> <CNNaffinity>
6.2567400932

> <CNN_VS>
0.7510720491

> <CNNaffinity_variance>
0.9765352011

$$$$
[H]OC([H])([H])[C@@]([H])(C(=O)N([H])[C@]([H])(C(=O)N([H])[H])C([H])([H])c1c([H])c([H])c([H])c([H])c1[H])N([H])C(=O)[C@@]([H])(N([H])C(=O)[C@@]([H])(N([H])C(=O)[C@@]([H])(N([H])C(=O)[C@@]([H])(N([H])C(=O)[C@@]([H])(N([H])C(=O)C([H])([H])[H])C([H])([H])O[H])C([H])(C([H])([H])[H])C([H])([H])[H])C([H])([H])C([H])([H])C([H])([H])N=C(N([H])[H])N([H])[H])C([H])([H])O[H])C([H])(C([H])([H])[H])C([H])([H])[H]


 74 74  0  0  0  0  0  0  0  0999 V2000
  152.4344  137.0399  188.2329 C   0  0  0  0  0  0  0  0  0  0  0  0
  152.6611  137.5125  187.1074 O   0  0  0  0  0  0  0  0  0  0  0  0
  153.3116  137.2228  189.3056 N   0  0  0  0  0  0  0  0  0  0  0  0
  153.0524  136.6315  190.1919 H   0  0  0  0  0  0  0  0  0  0  0  0
  154.4953  137.9953  189.3542 C   0  0  0  0  0  0  0  0  0  0  0  0
  155.5870  137.4322  188.5027 C   0  0  0  0  0  0  0  0  0  0  0  0
  156.1575  138.2193  187.7386 O   0  0  0  0  0  0  0  0  0  0  0  0
  155.9778  136.0898  188.5417 N   0  0  0  0  0  0  0  0  0  0  0  0
  155.3857  135.5331  189.2677 H   0  0  0  0  0  0  0  0  0  0  0  0
  156.9478  135.3340  187.8786 C   0  0  0  0  0  0  0  0  0  0  0  0
  156.2807  134.5249  186.7742 C   0  0  0  0  0  0  0  0  0  0  0  0
  156.8579  133.5357  186.2959 O   0  0  0  0  0  0  0  0  0  0  0  0
  155.0200  134.8981  186.2825 N   0  0  0  0  0  0  0  0  0  0  0  0
  154.5327  135.7270  186.6969 H   0  0  0  0  0  0  0  0  0  0  0  0
  154.2914  134.2244  185.2125 C   0  0  0  0  0  0  0  0  0  0  0  0
  153.8771  135.2576  184.2365 C   0  0  0  0  0  0  0  0  0  0  0  0
  153.8282  134.9380  183.0468 O   0  0  0  0  0  0  0  0  0  0  0  0
  153.5471  136.5841  184.6043 N   0  0  0  0  0  0  0  0  0  0  0  0
  153.5355  136.8991  185.5730 H   0  0  0  0  0  0  0  0  0  0  0  0
  153.1942  137.5280  183.5167 C   0  0  0  0  0  0  0  0  0  0  0  0
  153.9479  138.7471  183.7872 C   0  0  0  0  0  0  0  0  0  0  0  0
  154.5450  138.9488  185.0673 N   0  0  0  0  0  0  0  0  0  0  0  0
  154.0609  139.6288  182.8838 O   0  0  0  0  0  0  0  0  0  0  0  0
  154.1716  138.5682  185.9632 H   0  0  0  0  0  0  0  0  0  0  0  0
  155.4312  139.5303  185.1345 H   0  0  0  0  0  0  0  0  0  0  0  0
  151.6789  137.7123  183.6449 C   0  0  0  0  0  0  0  0  0  0  0  0
  150.9629  137.8130  182.3842 C   0  0  0  0  0  0  0  0  0  0  0  0
  150.8800  139.0555  181.7894 C   0  0  0  0  0  0  0  0  0  0  0  0
  150.2579  139.1892  180.5690 C   0  0  0  0  0  0  0  0  0  0  0  0
  149.6998  138.1133  179.9100 C   0  0  0  0  0  0  0  0  0  0  0  0
  149.8148  136.8968  180.5582 C   0  0  0  0  0  0  0  0  0  0  0  0
  150.4201  136.7088  181.7582 C   0  0  0  0  0  0  0  0  0  0  0  0
  153.1392  133.4200  185.7715 C   0  0  0  0  0  0  0  0  0  0  0  0
  151.8992  133.9158  185.4643 O   0  0  0  0  0  0  0  0  0  0  0  0
  151.1902  133.2721  185.2818 H   0  0  0  0  0  0  0  0  0  0  0  0
  157.6455  134.2967  188.7149 C   0  0  0  0  0  0  0  0  0  0  0  0
  157.3731  134.4499  190.1945 C   0  0  0  0  0  0  0  0  0  0  0  0
  159.1730  134.5057  188.6017 C   0  0  0  0  0  0  0  0  0  0  0  0
  154.9137  138.1465  190.7843 C   0  0  0  0  0  0  0  0  0  0  0  0
  156.3590  138.1723  190.8333 O   0  0  0  0  0  0  0  0  0  0  0  0
  156.7132  138.8187  190.1940 H   0  0  0  0  0  0  0  0  0  0  0  0
  151.1995  136.2515  188.4056 C   0  0  0  0  0  0  0  0  0  0  0  0
  149.1406  136.3312  186.9801 C   0  0  0  0  0  0  0  0  0  0  0  0
  148.3681  136.5908  187.9942 O   0  0  0  0  0  0  0  0  0  0  0  0
  150.5303  136.1731  187.1445 N   0  0  0  0  0  0  0  0  0  0  0  0
  151.0897  136.0079  186.2660 H   0  0  0  0  0  0  0  0  0  0  0  0
  148.4971  136.1973  185.6508 C   0  0  0  0  0  0  0  0  0  0  0  0
  146.9963  134.2018  185.9418 C   0  0  0  0  0  0  0  0  0  0  0  0
  147.9526  133.4388  185.7528 O   0  0  0  0  0  0  0  0  0  0  0  0
  147.1721  135.6277  185.8897 N   0  0  0  0  0  0  0  0  0  0  0  0
  146.3797  136.2728  186.0315 H   0  0  0  0  0  0  0  0  0  0  0  0
  145.6325  133.7106  186.2288 C   0  0  0  0  0  0  0  0  0  0  0  0
  144.0105  135.2223  189.3325 C   0  0  0  0  0  0  0  0  0  0  0  0
  144.7861  134.3399  188.4893 C   0  0  0  0  0  0  0  0  0  0  0  0
  145.4122  133.3526  188.9433 O   0  0  0  0  0  0  0  0  0  0  0  0
  144.8605  134.5828  187.0612 N   0  0  0  0  0  0  0  0  0  0  0  0
  144.3600  135.3814  186.6636 H   0  0  0  0  0  0  0  0  0  0  0  0
  144.8858  133.7396  184.8494 C   0  0  0  0  0  0  0  0  0  0  0  0
  143.8160  134.6173  184.8803 O   0  0  0  0  0  0  0  0  0  0  0  0
  142.9566  134.1551  184.7601 H   0  0  0  0  0  0  0  0  0  0  0  0
  148.4085  137.5785  185.0256 C   0  0  0  0  0  0  0  0  0  0  0  0
  147.5446  137.5490  183.7590 C   0  0  0  0  0  0  0  0  0  0  0  0
  147.8448  138.5743  185.9939 C   0  0  0  0  0  0  0  0  0  0  0  0
  151.2324  135.0637  189.2768 C   0  0  0  0  0  0  0  0  0  0  0  0
  150.4416  135.2699  190.5563 C   0  0  0  0  0  0  0  0  0  0  0  0
  151.4239  135.3446  191.7410 C   0  0  0  0  0  0  0  0  0  0  0  0
  151.6695  136.7579  192.0304 N   0  0  0  0  0  0  0  0  0  0  0  0
  151.8560  137.1224  193.2460 C   0  0  0  0  0  0  0  0  0  0  0  0
  152.0932  138.4676  193.5739 N   0  0  0  0  0  0  0  0  0  0  0  0
  151.8282  136.1478  194.3019 N   0  0  0  0  0  0  0  0  0  0  0  0
  151.5602  139.2500  193.1393 H   0  0  0  0  0  0  0  0  0  0  0  0
  152.8278  138.7045  194.2795 H   0  0  0  0  0  0  0  0  0  0  0  0
  152.6657  135.8228  194.7942 H   0  0  0  0  0  0  0  0  0  0  0  0
  150.8864  135.7891  194.5328 H   0  0  0  0  0  0  0  0  0  0  0  0
 53 54  1  0  0  0
 54 55  2  0  0  0
 54 56  1  0  0  0
 56 52  1  0  0  0
 52 58  1  0  0  0
 58 59  1  0  0  0
 52 48  1  0  0  0
 48 49  2  0  0  0
 48 50  1  0  0  0
 50 47  1  0  0  0
 47 61  1  0  0  0
 61 62  1  0  0  0
 61 63  1  0  0  0
 47 43  1  0  0  0
 43 44  2  0  0  0
 43 45  1  0  0  0
 45 42  1  0  0  0
 42 64  1  0  0  0
 64 65  1  0  0  0
 65 66  1  0  0  0
 66 67  1  0  0  0
 67 68  2  0  0  0
 68 69  1  0  0  0
 68 70  1  0  0  0
 42  1  1  0  0  0
  1  2  2  0  0  0
  1  3  1  0  0  0
  3  5  1  0  0  0
  5 39  1  0  0  0
 39 40  1  0  0  0
  5  6  1  0  0  0
  6  7  2  0  0  0
  6  8  1  0  0  0
  8 10  1  0  0  0
 10 36  1  0  0  0
 36 37  1  0  0  0
 36 38  1  0  0  0
 10 11  1  0  0  0
 11 12  2  0  0  0
 11 13  1  0  0  0
 13 15  1  0  0  0
 15 33  1  0  0  0
 33 34  1  0  0  0
 15 16  1  0  0  0
 16 17  2  0  0  0
 16 18  1  0  0  0
 18 20  1  0  0  0
 20 26  1  0  0  0
 26 27  1  0  0  0
 27 28  2  0  0  0
 28 29  1  0  0  0
 29 30  2  0  0  0
 30 31  1  0  0  0
 31 32  2  0  0  0
 20 21  1  0  0  0
 21 22  1  0  0  0
 21 23  2  0  0  0
 32 27  1  0  0  0
 56 57  1  0  0  0
 59 60  1  0  0  0
 50 51  1  0  0  0
 45 46  1  0  0  0
 69 71  1  0  0  0
 69 72  1  0  0  0
 70 73  1  0  0  0
 70 74  1  0  0  0
  3  4  1  0  0  0
 40 41  1  0  0  0
  8  9  1  0  0  0
 13 14  1  0  0  0
 34 35  1  0  0  0
 18 19  1  0  0  0
 22 24  1  0  0  0
 22 25  1  0  0  0
M  END
> <minimizedAffinity>
-4.81093

> <CNNscore>
0.1178445667

> <CNNaffinity>
5.9359917641

> <CNN_VS>
0.6995244026

> <CNNaffinity_variance>
1.1673816442

$$$$
[H]OC([H])([H])[C@@]([H])(C(=O)N([H])[C@]([H])(C(=O)N([H])[H])C([H])([H])c1c([H])c([H])c([H])c([H])c1[H])N([H])C(=O)[C@@]([H])(N([H])C(=O)[C@@]([H])(N([H])C(=O)[C@@]([H])(N([H])C(=O)[C@@]([H])(N([H])C(=O)[C@@]([H])(N([H])C(=O)C([H])([H])[H])C([H])([H])O[H])C([H])(C([H])([H])[H])C([H])([H])[H])C([H])([H])C([H])([H])C([H])([H])N=C(N([H])[H])N([H])[H])C([H])([H])O[H])C([H])(C([H])([H])[H])C([H])([H])[H]


 74 74  0  0  0  0  0  0  0  0999 V2000
  152.7461  136.3397  187.4549 C   0  0  0  0  0  0  0  0  0  0  0  0
  152.2535  137.2050  188.1966 O   0  0  0  0  0  0  0  0  0  0  0  0
  153.5730  136.6687  186.3772 N   0  0  0  0  0  0  0  0  0  0  0  0
  153.8147  135.8161  185.7313 H   0  0  0  0  0  0  0  0  0  0  0  0
  154.0553  137.9415  185.9928 C   0  0  0  0  0  0  0  0  0  0  0  0
  154.0380  138.1418  184.5117 C   0  0  0  0  0  0  0  0  0  0  0  0
  155.1311  138.3243  183.9632 O   0  0  0  0  0  0  0  0  0  0  0  0
  152.8670  138.1255  183.7471 N   0  0  0  0  0  0  0  0  0  0  0  0
  151.9946  137.9468  184.3752 H   0  0  0  0  0  0  0  0  0  0  0  0
  152.5854  138.2701  182.3864 C   0  0  0  0  0  0  0  0  0  0  0  0
  152.8460  139.7128  181.9737 C   0  0  0  0  0  0  0  0  0  0  0  0
  152.0411  140.3007  181.2341 O   0  0  0  0  0  0  0  0  0  0  0  0
  153.9995  140.3805  182.4141 N   0  0  0  0  0  0  0  0  0  0  0  0
  154.6698  139.8835  183.0467 H   0  0  0  0  0  0  0  0  0  0  0  0
  154.3749  141.7475  182.0678 C   0  0  0  0  0  0  0  0  0  0  0  0
  155.8511  141.8357  182.1391 C   0  0  0  0  0  0  0  0  0  0  0  0
  156.3999  142.7731  181.5560 O   0  0  0  0  0  0  0  0  0  0  0  0
  156.6516  140.8963  182.8321 N   0  0  0  0  0  0  0  0  0  0  0  0
  156.2557  140.1208  183.3608 H   0  0  0  0  0  0  0  0  0  0  0  0
  158.1219  141.0810  182.7815 C   0  0  0  0  0  0  0  0  0  0  0  0
  158.5810  140.3085  181.6326 C   0  0  0  0  0  0  0  0  0  0  0  0
  158.7448  140.9422  180.3647 N   0  0  0  0  0  0  0  0  0  0  0  0
  158.8237  139.0715  181.7643 O   0  0  0  0  0  0  0  0  0  0  0  0
  158.1859  141.7568  180.0316 H   0  0  0  0  0  0  0  0  0  0  0  0
  159.4799  140.5688  179.6954 H   0  0  0  0  0  0  0  0  0  0  0  0
  158.6242  140.5313  184.1202 C   0  0  0  0  0  0  0  0  0  0  0  0
  159.5642  141.3884  184.8230 C   0  0  0  0  0  0  0  0  0  0  0  0
  159.2082  141.8406  186.0773 C   0  0  0  0  0  0  0  0  0  0  0  0
  160.0891  142.6107  186.8020 C   0  0  0  0  0  0  0  0  0  0  0  0
  161.3311  142.9588  186.3126 C   0  0  0  0  0  0  0  0  0  0  0  0
  161.6274  142.4761  185.0508 C   0  0  0  0  0  0  0  0  0  0  0  0
  160.7987  141.7111  184.2961 C   0  0  0  0  0  0  0  0  0  0  0  0
  153.6632  142.7415  182.9580 C   0  0  0  0  0  0  0  0  0  0  0  0
  154.3979  143.1677  184.0333 O   0  0  0  0  0  0  0  0  0  0  0  0
  154.3033  144.1003  184.3012 H   0  0  0  0  0  0  0  0  0  0  0  0
  151.1533  138.0348  181.9916 C   0  0  0  0  0  0  0  0  0  0  0  0
  150.2524  137.7590  183.1744 C   0  0  0  0  0  0  0  0  0  0  0  0
  151.0697  136.7351  181.1587 C   0  0  0  0  0  0  0  0  0  0  0  0
  155.4218  138.1349  186.5742 C   0  0  0  0  0  0  0  0  0  0  0  0
  155.3132  138.0793  188.0155 O   0  0  0  0  0  0  0  0  0  0  0  0
  154.8186  137.2852  188.2925 H   0  0  0  0  0  0  0  0  0  0  0  0
  152.4149  134.9301  187.7374 C   0  0  0  0  0  0  0  0  0  0  0  0
  153.8356  133.8816  189.5150 C   0  0  0  0  0  0  0  0  0  0  0  0
  154.6679  133.3826  188.6486 O   0  0  0  0  0  0  0  0  0  0  0  0
  152.7320  134.6540  189.1040 N   0  0  0  0  0  0  0  0  0  0  0  0
  152.1314  135.0574  189.8712 H   0  0  0  0  0  0  0  0  0  0  0  0
  154.0900  133.5938  190.9473 C   0  0  0  0  0  0  0  0  0  0  0  0
  152.8524  135.0440  192.5856 C   0  0  0  0  0  0  0  0  0  0  0  0
  153.8840  135.6893  192.8135 O   0  0  0  0  0  0  0  0  0  0  0  0
  152.8634  133.9424  191.6620 N   0  0  0  0  0  0  0  0  0  0  0  0
  152.0132  133.3888  191.4752 H   0  0  0  0  0  0  0  0  0  0  0  0
  151.5614  135.3545  193.2342 C   0  0  0  0  0  0  0  0  0  0  0  0
  151.9373  135.3873  197.0297 C   0  0  0  0  0  0  0  0  0  0  0  0
  151.8097  134.8999  195.6742 C   0  0  0  0  0  0  0  0  0  0  0  0
  151.8035  133.6771  195.3958 O   0  0  0  0  0  0  0  0  0  0  0  0
  151.6831  135.8388  194.5758 N   0  0  0  0  0  0  0  0  0  0  0  0
  151.6857  136.8425  194.7737 H   0  0  0  0  0  0  0  0  0  0  0  0
  150.9842  136.5767  192.4379 C   0  0  0  0  0  0  0  0  0  0  0  0
  151.5612  136.6712  191.1833 O   0  0  0  0  0  0  0  0  0  0  0  0
  152.0819  137.4987  191.0787 H   0  0  0  0  0  0  0  0  0  0  0  0
  154.4171  132.1170  191.0834 C   0  0  0  0  0  0  0  0  0  0  0  0
  155.8368  131.9212  191.6289 C   0  0  0  0  0  0  0  0  0  0  0  0
  153.4351  131.4271  191.9816 C   0  0  0  0  0  0  0  0  0  0  0  0
  151.1877  134.3594  187.1550 C   0  0  0  0  0  0  0  0  0  0  0  0
  149.9679  134.6214  188.0201 C   0  0  0  0  0  0  0  0  0  0  0  0
  149.0065  135.5513  187.2552 C   0  0  0  0  0  0  0  0  0  0  0  0
  147.8157  135.7435  188.0838 N   0  0  0  0  0  0  0  0  0  0  0  0
  147.1576  136.8400  187.9851 C   0  0  0  0  0  0  0  0  0  0  0  0
  146.0097  137.0719  188.7610 N   0  0  0  0  0  0  0  0  0  0  0  0
  147.5883  137.8577  187.0661 N   0  0  0  0  0  0  0  0  0  0  0  0
  145.9583  136.8194  189.7703 H   0  0  0  0  0  0  0  0  0  0  0  0
  145.1707  137.5146  188.3208 H   0  0  0  0  0  0  0  0  0  0  0  0
  147.1045  138.0685  186.1881 H   0  0  0  0  0  0  0  0  0  0  0  0
  148.4377  138.3702  187.3574 H   0  0  0  0  0  0  0  0  0  0  0  0
 53 54  1  0  0  0
 54 55  2  0  0  0
 54 56  1  0  0  0
 56 52  1  0  0  0
 52 58  1  0  0  0
 58 59  1  0  0  0
 52 48  1  0  0  0
 48 49  2  0  0  0
 48 50  1  0  0  0
 50 47  1  0  0  0
 47 61  1  0  0  0
 61 62  1  0  0  0
 61 63  1  0  0  0
 47 43  1  0  0  0
 43 44  2  0  0  0
 43 45  1  0  0  0
 45 42  1  0  0  0
 42 64  1  0  0  0
 64 65  1  0  0  0
 65 66  1  0  0  0
 66 67  1  0  0  0
 67 68  2  0  0  0
 68 69  1  0  0  0
 68 70  1  0  0  0
 42  1  1  0  0  0
  1  2  2  0  0  0
  1  3  1  0  0  0
  3  5  1  0  0  0
  5 39  1  0  0  0
 39 40  1  0  0  0
  5  6  1  0  0  0
  6  7  2  0  0  0
  6  8  1  0  0  0
  8 10  1  0  0  0
 10 36  1  0  0  0
 36 37  1  0  0  0
 36 38  1  0  0  0
 10 11  1  0  0  0
 11 12  2  0  0  0
 11 13  1  0  0  0
 13 15  1  0  0  0
 15 33  1  0  0  0
 33 34  1  0  0  0
 15 16  1  0  0  0
 16 17  2  0  0  0
 16 18  1  0  0  0
 18 20  1  0  0  0
 20 26  1  0  0  0
 26 27  1  0  0  0
 27 28  2  0  0  0
 28 29  1  0  0  0
 29 30  2  0  0  0
 30 31  1  0  0  0
 31 32  2  0  0  0
 20 21  1  0  0  0
 21 22  1  0  0  0
 21 23  2  0  0  0
 32 27  1  0  0  0
 56 57  1  0  0  0
 59 60  1  0  0  0
 50 51  1  0  0  0
 45 46  1  0  0  0
 69 71  1  0  0  0
 69 72  1  0  0  0
 70 73  1  0  0  0
 70 74  1  0  0  0
  3  4  1  0  0  0
 40 41  1  0  0  0
  8  9  1  0  0  0
 13 14  1  0  0  0
 34 35  1  0  0  0
 18 19  1  0  0  0
 22 24  1  0  0  0
 22 25  1  0  0  0
M  END
> <minimizedAffinity>
-7.38012

> <CNNscore>
0.1168585122

> <CNNaffinity>
6.0676207542

> <CNN_VS>
0.7090531588

> <CNNaffinity_variance>
1.2083669901

$$$$
[H]c1nc(N([H])C(=O)c2c([H])c(O[C@@]([H])(C([H])([H])[H])C([H])([H])OC([H])([H])[H])c([H])c(O[C@@]([H])(C([H])([H])[H])C(C([H])([H])[H])(C([H])([H])[H])C([H])([H])[H])c2[H])sc1[H]


 28 29  0  0  0  0  0  0  0  0999 V2000
  154.7278  138.8848  184.4541 C   0  0  0  0  0  0  0  0  0  0  0  0
  155.6274  139.9063  184.1602 C   0  0  0  0  0  0  0  0  0  0  0  0
  155.4387  140.8188  183.1474 C   0  0  0  0  0  0  0  0  0  0  0  0
  154.3155  140.7139  182.3981 C   0  0  0  0  0  0  0  0  0  0  0  0
  153.3836  139.7150  182.6459 C   0  0  0  0  0  0  0  0  0  0  0  0
  153.6045  138.8073  183.6785 C   0  0  0  0  0  0  0  0  0  0  0  0
  152.1975  139.6466  181.8144 C   0  0  0  0  0  0  0  0  0  0  0  0
  152.0856  140.4543  180.8584 O   0  0  0  0  0  0  0  0  0  0  0  0
  151.1616  138.7043  182.0396 N   0  0  0  0  0  0  0  0  0  0  0  0
  151.1729  137.9972  182.8103 H   0  0  0  0  0  0  0  0  0  0  0  0
  150.0113  138.6783  181.1897 C   0  0  0  0  0  0  0  0  0  0  0  0
  149.9834  138.1336  179.9857 N   0  0  0  0  0  0  0  0  0  0  0  0
  148.8931  138.1599  179.2915 C   0  0  0  0  0  0  0  0  0  0  0  0
  147.7944  138.7624  179.8445 C   0  0  0  0  0  0  0  0  0  0  0  0
  148.4223  139.2630  181.3663 S   0  0  0  0  0  0  0  0  0  0  0  0
  155.0462  138.0539  185.4874 O   0  0  0  0  0  0  0  0  0  0  0  0
  154.9161  138.3643  186.8264 C   0  0  0  0  0  0  0  0  0  0  0  0
  153.4754  138.1390  187.2805 C   0  0  0  0  0  0  0  0  0  0  0  0
  155.8557  137.4396  187.5911 C   0  0  0  0  0  0  0  0  0  0  0  0
  156.6323  136.9692  189.6925 C   0  0  0  0  0  0  0  0  0  0  0  0
  156.2133  137.9263  188.8127 O   0  0  0  0  0  0  0  0  0  0  0  0
  156.4189  141.7773  182.9745 O   0  0  0  0  0  0  0  0  0  0  0  0
  156.6880  142.5089  181.8249 C   0  0  0  0  0  0  0  0  0  0  0  0
  156.5615  143.9934  182.1840 C   0  0  0  0  0  0  0  0  0  0  0  0
  158.1752  142.3047  181.5035 C   0  0  0  0  0  0  0  0  0  0  0  0
  158.6697  143.2954  180.5052 C   0  0  0  0  0  0  0  0  0  0  0  0
  158.4156  140.9029  180.9908 C   0  0  0  0  0  0  0  0  0  0  0  0
  158.9052  142.4204  182.8298 C   0  0  0  0  0  0  0  0  0  0  0  0
 20 21  1  0  0  0
 21 19  1  0  0  0
 19 17  1  0  0  0
 17 18  1  0  0  0
 17 16  1  0  0  0
 16  1  1  0  0  0
  1  2  2  0  0  0
  2  3  1  0  0  0
  3 22  1  0  0  0
 22 23  1  0  0  0
 23 24  1  0  0  0
 23 25  1  0  0  0
 25 26  1  0  0  0
 25 27  1  0  0  0
 25 28  1  0  0  0
  3  4  2  0  0  0
  4  5  1  0  0  0
  5  6  2  0  0  0
  5  7  1  0  0  0
  7  8  2  0  0  0
  7  9  1  0  0  0
  9 11  1  0  0  0
 11 12  2  0  0  0
 12 13  1  0  0  0
 13 14  2  0  0  0
 14 15  1  0  0  0
  6  1  1  0  0  0
 15 11  1  0  0  0
  9 10  1  0  0  0
M  END
> <minimizedAffinity>
-6.69081

> <CNNscore>
0.7692188621

> <CNNaffinity>
6.3602037430

> <CNN_VS>
4.8923888206

> <CNNaffinity_variance>
0.1260865629

$$$$
[H]c1nc(N([H])C(=O)c2c([H])c(O[C@@]([H])(C([H])([H])[H])C([H])([H])OC([H])([H])[H])c([H])c(O[C@@]([H])(C([H])([H])[H])C(C([H])([H])[H])(C([H])([H])[H])C([H])([H])[H])c2[H])sc1[H]


 28 29  0  0  0  0  0  0  0  0999 V2000
  156.3073  139.1512  185.5011 C   0  0  0  0  0  0  0  0  0  0  0  0
  157.3495  140.0463  185.2742 C   0  0  0  0  0  0  0  0  0  0  0  0
  157.3372  140.9916  184.2740 C   0  0  0  0  0  0  0  0  0  0  0  0
  156.2500  141.0509  183.4687 C   0  0  0  0  0  0  0  0  0  0  0  0
  155.1810  140.1833  183.6485 C   0  0  0  0  0  0  0  0  0  0  0  0
  155.2250  139.2382  184.6702 C   0  0  0  0  0  0  0  0  0  0  0  0
  154.0408  140.2886  182.7588 C   0  0  0  0  0  0  0  0  0  0  0  0
  153.6001  141.4314  182.4783 O   0  0  0  0  0  0  0  0  0  0  0  0
  153.4061  139.1524  182.1949 N   0  0  0  0  0  0  0  0  0  0  0  0
  153.7065  138.1666  182.3741 H   0  0  0  0  0  0  0  0  0  0  0  0
  152.2837  139.3106  181.3223 C   0  0  0  0  0  0  0  0  0  0  0  0
  152.3621  139.7332  180.0724 N   0  0  0  0  0  0  0  0  0  0  0  0
  151.2884  139.8436  179.3607 C   0  0  0  0  0  0  0  0  0  0  0  0
  150.0946  139.5117  179.9444 C   0  0  0  0  0  0  0  0  0  0  0  0
  150.6128  139.0511  181.5192 S   0  0  0  0  0  0  0  0  0  0  0  0
  156.4579  138.2690  186.5300 O   0  0  0  0  0  0  0  0  0  0  0  0
  155.4534  137.8707  187.3894 C   0  0  0  0  0  0  0  0  0  0  0  0
  155.0611  136.4226  187.1039 C   0  0  0  0  0  0  0  0  0  0  0  0
  156.0042  137.9935  188.8051 C   0  0  0  0  0  0  0  0  0  0  0  0
  155.2623  138.6110  190.8809 C   0  0  0  0  0  0  0  0  0  0  0  0
  155.0507  137.8481  189.7679 O   0  0  0  0  0  0  0  0  0  0  0  0
  158.4446  141.8114  184.1705 O   0  0  0  0  0  0  0  0  0  0  0  0
  159.7799  141.4292  184.1862 C   0  0  0  0  0  0  0  0  0  0  0  0
  160.2920  141.4865  182.7428 C   0  0  0  0  0  0  0  0  0  0  0  0
  160.5515  142.5323  184.9241 C   0  0  0  0  0  0  0  0  0  0  0  0
  160.2945  143.8786  184.3375 C   0  0  0  0  0  0  0  0  0  0  0  0
  162.0352  142.2426  184.9012 C   0  0  0  0  0  0  0  0  0  0  0  0
  160.1081  142.4491  186.3738 C   0  0  0  0  0  0  0  0  0  0  0  0
 20 21  1  0  0  0
 21 19  1  0  0  0
 19 17  1  0  0  0
 17 18  1  0  0  0
 17 16  1  0  0  0
 16  1  1  0  0  0
  1  2  2  0  0  0
  2  3  1  0  0  0
  3 22  1  0  0  0
 22 23  1  0  0  0
 23 24  1  0  0  0
 23 25  1  0  0  0
 25 26  1  0  0  0
 25 27  1  0  0  0
 25 28  1  0  0  0
  3  4  2  0  0  0
  4  5  1  0  0  0
  5  6  2  0  0  0
  5  7  1  0  0  0
  7  8  2  0  0  0
  7  9  1  0  0  0
  9 11  1  0  0  0
 11 12  2  0  0  0
 12 13  1  0  0  0
 13 14  2  0  0  0
 14 15  1  0  0  0
  6  1  1  0  0  0
 15 11  1  0  0  0
  9 10  1  0  0  0
M  END
> <minimizedAffinity>
-7.23244

> <CNNscore>
0.6911804080

> <CNNaffinity>
6.3664121628

> <CNN_VS>
4.4003391266

> <CNNaffinity_variance>
0.0314966664

$$$$
[H]c1nc(N([H])C(=O)c2c([H])c(O[C@@]([H])(C([H])([H])[H])C([H])([H])OC([H])([H])[H])c([H])c(O[C@@]([H])(C([H])([H])[H])C(C([H])([H])[H])(C([H])([H])[H])C([H])([H])[H])c2[H])sc1[H]


 28 29  0  0  0  0  0  0  0  0999 V2000
  155.7597  139.1932  185.1002 C   0  0  0  0  0  0  0  0  0  0  0  0
  156.8081  139.9378  184.5661 C   0  0  0  0  0  0  0  0  0  0  0  0
  156.7109  140.6618  183.3997 C   0  0  0  0  0  0  0  0  0  0  0  0
  155.5291  140.6463  182.7384 C   0  0  0  0  0  0  0  0  0  0  0  0
  154.4494  139.9212  183.2243 C   0  0  0  0  0  0  0  0  0  0  0  0
  154.5808  139.1992  184.4077 C   0  0  0  0  0  0  0  0  0  0  0  0
  153.2062  139.9381  182.4781 C   0  0  0  0  0  0  0  0  0  0  0  0
  152.8509  141.0090  181.9251 O   0  0  0  0  0  0  0  0  0  0  0  0
  152.3783  138.7935  182.3496 N   0  0  0  0  0  0  0  0  0  0  0  0
  152.5970  137.8638  182.7762 H   0  0  0  0  0  0  0  0  0  0  0  0
  151.1608  138.8628  181.6019 C   0  0  0  0  0  0  0  0  0  0  0  0
  149.9525  138.8472  182.1376 N   0  0  0  0  0  0  0  0  0  0  0  0
  148.9093  138.9148  181.3769 C   0  0  0  0  0  0  0  0  0  0  0  0
  149.1059  139.0009  180.0242 C   0  0  0  0  0  0  0  0  0  0  0  0
  150.8242  138.9784  179.9372 S   0  0  0  0  0  0  0  0  0  0  0  0
  156.0010  138.5253  186.2644 O   0  0  0  0  0  0  0  0  0  0  0  0
  155.1727  137.5704  186.8196 C   0  0  0  0  0  0  0  0  0  0  0  0
  155.9965  136.3821  187.3114 C   0  0  0  0  0  0  0  0  0  0  0  0
  154.4559  138.2301  187.9916 C   0  0  0  0  0  0  0  0  0  0  0  0
  152.3767  137.8572  187.1094 C   0  0  0  0  0  0  0  0  0  0  0  0
  153.2462  138.7590  187.6536 O   0  0  0  0  0  0  0  0  0  0  0  0
  157.8365  141.3524  182.9931 O   0  0  0  0  0  0  0  0  0  0  0  0
  158.2181  142.6349  183.3656 C   0  0  0  0  0  0  0  0  0  0  0  0
  159.7145  142.5927  183.6938 C   0  0  0  0  0  0  0  0  0  0  0  0
  158.1125  143.5142  182.1116 C   0  0  0  0  0  0  0  0  0  0  0  0
  158.4326  142.7533  180.8701 C   0  0  0  0  0  0  0  0  0  0  0  0
  159.0320  144.7088  182.2271 C   0  0  0  0  0  0  0  0  0  0  0  0
  156.6920  144.0504  182.1001 C   0  0  0  0  0  0  0  0  0  0  0  0
 20 21  1  0  0  0
 21 19  1  0  0  0
 19 17  1  0  0  0
 17 18  1  0  0  0
 17 16  1  0  0  0
 16  1  1  0  0  0
  1  2  2  0  0  0
  2  3  1  0  0  0
  3 22  1  0  0  0
 22 23  1  0  0  0
 23 24  1  0  0  0
 23 25  1  0  0  0
 25 26  1  0  0  0
 25 27  1  0  0  0
 25 28  1  0  0  0
  3  4  2  0  0  0
  4  5  1  0  0  0
  5  6  2  0  0  0
  5  7  1  0  0  0
  7  8  2  0  0  0
  7  9  1  0  0  0
  9 11  1  0  0  0
 11 12  2  0  0  0
 12 13  1  0  0  0
 13 14  2  0  0  0
 14 15  1  0  0  0
  6  1  1  0  0  0
 15 11  1  0  0  0
  9 10  1  0  0  0
M  END
> <minimizedAffinity>
-6.63684

> <CNNscore>
0.6635441780

> <CNNaffinity>
6.1938962936

> <CNN_VS>
4.1099238396

> <CNNaffinity_variance>
0.0142941847

$$$$
[H]c1nc(N([H])C(=O)c2c([H])c(O[C@@]([H])(C([H])([H])[H])C([H])([H])OC([H])([H])[H])c([H])c(O[C@@]([H])(C([H])([H])[H])C(C([H])([H])[H])(C([H])([H])[H])C([H])([H])[H])c2[H])sc1[H]


 28 29  0  0  0  0  0  0  0  0999 V2000
  157.0456  139.7265  184.7830 C   0  0  0  0  0  0  0  0  0  0  0  0
  156.6618  138.9624  185.8819 C   0  0  0  0  0  0  0  0  0  0  0  0
  155.3904  138.4651  186.0568 C   0  0  0  0  0  0  0  0  0  0  0  0
  154.4653  138.7362  185.1057 C   0  0  0  0  0  0  0  0  0  0  0  0
  154.7917  139.4932  183.9884 C   0  0  0  0  0  0  0  0  0  0  0  0
  156.0874  139.9816  183.8416 C   0  0  0  0  0  0  0  0  0  0  0  0
  153.7640  139.7547  182.9994 C   0  0  0  0  0  0  0  0  0  0  0  0
  153.6341  140.9253  182.5617 O   0  0  0  0  0  0  0  0  0  0  0  0
  152.9021  138.7406  182.5089 N   0  0  0  0  0  0  0  0  0  0  0  0
  152.9404  137.7419  182.8176 H   0  0  0  0  0  0  0  0  0  0  0  0
  151.9038  139.0509  181.5325 C   0  0  0  0  0  0  0  0  0  0  0  0
  150.6038  139.0654  181.7709 N   0  0  0  0  0  0  0  0  0  0  0  0
  149.7775  139.3590  180.8210 C   0  0  0  0  0  0  0  0  0  0  0  0
  150.2953  139.6475  179.5862 C   0  0  0  0  0  0  0  0  0  0  0  0
  151.9808  139.4718  179.8848 S   0  0  0  0  0  0  0  0  0  0  0  0
  158.3406  140.1518  184.7430 O   0  0  0  0  0  0  0  0  0  0  0  0
  158.7468  141.4701  184.8015 C   0  0  0  0  0  0  0  0  0  0  0  0
  159.2136  141.8139  186.2144 C   0  0  0  0  0  0  0  0  0  0  0  0
  159.9005  141.6244  183.8178 C   0  0  0  0  0  0  0  0  0  0  0  0
  158.5127  142.9249  182.5439 C   0  0  0  0  0  0  0  0  0  0  0  0
  159.4961  141.9773  182.5652 O   0  0  0  0  0  0  0  0  0  0  0  0
  155.1576  137.7227  187.1987 O   0  0  0  0  0  0  0  0  0  0  0  0
  154.6999  138.1859  188.4256 C   0  0  0  0  0  0  0  0  0  0  0  0
  153.2262  137.7834  188.5487 C   0  0  0  0  0  0  0  0  0  0  0  0
  155.4240  137.3732  189.5081 C   0  0  0  0  0  0  0  0  0  0  0  0
  156.6667  138.0515  189.9750 C   0  0  0  0  0  0  0  0  0  0  0  0
  155.7614  135.9925  188.9927 C   0  0  0  0  0  0  0  0  0  0  0  0
  154.4186  137.1912  190.6313 C   0  0  0  0  0  0  0  0  0  0  0  0
 20 21  1  0  0  0
 21 19  1  0  0  0
 19 17  1  0  0  0
 17 18  1  0  0  0
 17 16  1  0  0  0
 16  1  1  0  0  0
  1  2  2  0  0  0
  2  3  1  0  0  0
  3 22  1  0  0  0
 22 23  1  0  0  0
 23 24  1  0  0  0
 23 25  1  0  0  0
 25 26  1  0  0  0
 25 27  1  0  0  0
 25 28  1  0  0  0
  3  4  2  0  0  0
  4  5  1  0  0  0
  5  6  2  0  0  0
  5  7  1  0  0  0
  7  8  2  0  0  0
  7  9  1  0  0  0
  9 11  1  0  0  0
 11 12  2  0  0  0
 12 13  1  0  0  0
 13 14  2  0  0  0
 14 15  1  0  0  0
  6  1  1  0  0  0
 15 11  1  0  0  0
  9 10  1  0  0  0
M  END
> <minimizedAffinity>
-6.65561

> <CNNscore>
0.6135317087

> <CNNaffinity>
6.0366716385

> <CNN_VS>
3.7036895752

> <CNNaffinity_variance>
0.0173101369

$$$$
[H]c1nc(N([H])C(=O)c2c([H])c(O[C@@]([H])(C([H])([H])[H])C([H])([H])OC([H])([H])[H])c([H])c(O[C@@]([H])(C([H])([H])[H])C(C([H])([H])[H])(C([H])([H])[H])C([H])([H])[H])c2[H])sc1[H]


 28 29  0  0  0  0  0  0  0  0999 V2000
  154.4925  140.9770  182.7144 C   0  0  0  0  0  0  0  0  0  0  0  0
  153.5379  140.4520  181.8472 C   0  0  0  0  0  0  0  0  0  0  0  0
  152.7611  139.3553  182.1438 C   0  0  0  0  0  0  0  0  0  0  0  0
  152.9382  138.7570  183.3458 C   0  0  0  0  0  0  0  0  0  0  0  0
  153.8758  139.2373  184.2503 C   0  0  0  0  0  0  0  0  0  0  0  0
  154.6458  140.3493  183.9193 C   0  0  0  0  0  0  0  0  0  0  0  0
  154.0260  138.5603  185.5238 C   0  0  0  0  0  0  0  0  0  0  0  0
  154.9119  137.6762  185.6343 O   0  0  0  0  0  0  0  0  0  0  0  0
  153.2120  138.8584  186.6465 N   0  0  0  0  0  0  0  0  0  0  0  0
  152.4527  139.5779  186.6428 H   0  0  0  0  0  0  0  0  0  0  0  0
  153.4008  138.1612  187.8812 C   0  0  0  0  0  0  0  0  0  0  0  0
  154.2266  138.5464  188.8387 N   0  0  0  0  0  0  0  0  0  0  0  0
  154.3282  137.8479  189.9218 C   0  0  0  0  0  0  0  0  0  0  0  0
  153.5614  136.7183  190.0314 C   0  0  0  0  0  0  0  0  0  0  0  0
  152.7243  136.7393  188.5282 S   0  0  0  0  0  0  0  0  0  0  0  0
  155.1885  142.0686  182.2859 O   0  0  0  0  0  0  0  0  0  0  0  0
  156.5325  142.2926  182.5091 C   0  0  0  0  0  0  0  0  0  0  0  0
  157.3724  141.3940  181.6038 C   0  0  0  0  0  0  0  0  0  0  0  0
  156.7995  143.7575  182.1844 C   0  0  0  0  0  0  0  0  0  0  0  0
  158.8350  144.8049  182.1698 C   0  0  0  0  0  0  0  0  0  0  0  0
  157.9773  143.9571  181.5285 O   0  0  0  0  0  0  0  0  0  0  0  0
  151.8549  138.9487  181.1832 O   0  0  0  0  0  0  0  0  0  0  0  0
  150.7712  139.6647  180.6909 C   0  0  0  0  0  0  0  0  0  0  0  0
  151.0963  140.0554  179.2451 C   0  0  0  0  0  0  0  0  0  0  0  0
  149.5985  138.6802  180.5808 C   0  0  0  0  0  0  0  0  0  0  0  0
  149.9543  137.3303  181.1042 C   0  0  0  0  0  0  0  0  0  0  0  0
  149.1413  138.5642  179.1444 C   0  0  0  0  0  0  0  0  0  0  0  0
  148.4556  139.3088  181.3580 C   0  0  0  0  0  0  0  0  0  0  0  0
 20 21  1  0  0  0
 21 19  1  0  0  0
 19 17  1  0  0  0
 17 18  1  0  0  0
 17 16  1  0  0  0
 16  1  1  0  0  0
  1  2  2  0  0  0
  2  3  1  0  0  0
  3 22  1  0  0  0
 22 23  1  0  0  0
 23 24  1  0  0  0
 23 25  1  0  0  0
 25 26  1  0  0  0
 25 27  1  0  0  0
 25 28  1  0  0  0
  3  4  2  0  0  0
  4  5  1  0  0  0
  5  6  2  0  0  0
  5  7  1  0  0  0
  7  8  2  0  0  0
  7  9  1  0  0  0
  9 11  1  0  0  0
 11 12  2  0  0  0
 12 13  1  0  0  0
 13 14  2  0  0  0
 14 15  1  0  0  0
  6  1  1  0  0  0
 15 11  1  0  0  0
  9 10  1  0  0  0
M  END
> <minimizedAffinity>
-6.54157

> <CNNscore>
0.5412950516

> <CNNaffinity>
6.0247263908

> <CNN_VS>
3.2611546516

> <CNNaffinity_variance>
0.0420227982

$$$$
[H]c1nc(N([H])C(=O)c2c([H])c(O[C@@]([H])(C([H])([H])[H])C([H])([H])OC([H])([H])[H])c([H])c(O[C@@]([H])(C([H])([H])[H])C(C([H])([H])[H])(C([H])([H])[H])C([H])([H])[H])c2[H])sc1[H]


 28 29  0  0  0  0  0  0  0  0999 V2000
  154.9351  138.0642  185.8221 C   0  0  0  0  0  0  0  0  0  0  0  0
  155.7928  138.9491  185.1738 C   0  0  0  0  0  0  0  0  0  0  0  0
  155.4923  139.5633  183.9794 C   0  0  0  0  0  0  0  0  0  0  0  0
  154.2961  139.2890  183.4067 C   0  0  0  0  0  0  0  0  0  0  0  0
  153.4012  138.4144  184.0081 C   0  0  0  0  0  0  0  0  0  0  0  0
  153.7358  137.8094  185.2169 C   0  0  0  0  0  0  0  0  0  0  0  0
  152.1335  138.1550  183.3535 C   0  0  0  0  0  0  0  0  0  0  0  0
  151.3638  137.2959  183.8517 O   0  0  0  0  0  0  0  0  0  0  0  0
  151.7313  138.8332  182.1745 N   0  0  0  0  0  0  0  0  0  0  0  0
  152.3085  139.5613  181.6938 H   0  0  0  0  0  0  0  0  0  0  0  0
  150.4697  138.5403  181.5673 C   0  0  0  0  0  0  0  0  0  0  0  0
  149.4758  139.4042  181.4542 N   0  0  0  0  0  0  0  0  0  0  0  0
  148.3706  139.0448  180.8877 C   0  0  0  0  0  0  0  0  0  0  0  0
  148.2767  137.7606  180.4210 C   0  0  0  0  0  0  0  0  0  0  0  0
  149.8265  137.1417  180.8404 S   0  0  0  0  0  0  0  0  0  0  0  0
  155.3663  137.5311  187.0009 O   0  0  0  0  0  0  0  0  0  0  0  0
  155.2639  138.1424  188.2346 C   0  0  0  0  0  0  0  0  0  0  0  0
  153.8067  138.4935  188.5277 C   0  0  0  0  0  0  0  0  0  0  0  0
  155.7800  137.1484  189.2681 C   0  0  0  0  0  0  0  0  0  0  0  0
  156.3666  137.0233  191.4773 C   0  0  0  0  0  0  0  0  0  0  0  0
  155.4860  137.5040  190.5504 O   0  0  0  0  0  0  0  0  0  0  0  0
  156.4434  140.4178  183.4554 O   0  0  0  0  0  0  0  0  0  0  0  0
  156.7323  141.7118  183.8692 C   0  0  0  0  0  0  0  0  0  0  0  0
  158.0818  141.6725  184.5947 C   0  0  0  0  0  0  0  0  0  0  0  0
  156.9882  142.5393  182.6017 C   0  0  0  0  0  0  0  0  0  0  0  0
  157.0605  141.6830  181.3835 C   0  0  0  0  0  0  0  0  0  0  0  0
  158.2666  143.3343  182.7410 C   0  0  0  0  0  0  0  0  0  0  0  0
  155.8511  143.5425  182.5255 C   0  0  0  0  0  0  0  0  0  0  0  0
 20 21  1  0  0  0
 21 19  1  0  0  0
 19 17  1  0  0  0
 17 18  1  0  0  0
 17 16  1  0  0  0
 16  1  1  0  0  0
  1  2  2  0  0  0
  2  3  1  0  0  0
  3 22  1  0  0  0
 22 23  1  0  0  0
 23 24  1  0  0  0
 23 25  1  0  0  0
 25 26  1  0  0  0
 25 27  1  0  0  0
 25 28  1  0  0  0
  3  4  2  0  0  0
  4  5  1  0  0  0
  5  6  2  0  0  0
  5  7  1  0  0  0
  7  8  2  0  0  0
  7  9  1  0  0  0
  9 11  1  0  0  0
 11 12  2  0  0  0
 12 13  1  0  0  0
 13 14  2  0  0  0
 14 15  1  0  0  0
  6  1  1  0  0  0
 15 11  1  0  0  0
  9 10  1  0  0  0
M  END
> <minimizedAffinity>
-5.69226

> <CNNscore>
0.5384192467

> <CNNaffinity>
5.9934453964

> <CNN_VS>
3.2269864082

> <CNNaffinity_variance>
0.0793943480

$$$$
[H]c1nc(N([H])C(=O)c2c([H])c(O[C@@]([H])(C([H])([H])[H])C([H])([H])OC([H])([H])[H])c([H])c(O[C@@]([H])(C([H])([H])[H])C(C([H])([H])[H])(C([H])([H])[H])C([H])([H])[H])c2[H])sc1[H]


 28 29  0  0  0  0  0  0  0  0999 V2000
  153.4941  138.5842  183.5150 C   0  0  0  0  0  0  0  0  0  0  0  0
  154.5370  139.3566  183.0102 C   0  0  0  0  0  0  0  0  0  0  0  0
  155.6353  139.7300  183.7508 C   0  0  0  0  0  0  0  0  0  0  0  0
  155.7013  139.3218  185.0404 C   0  0  0  0  0  0  0  0  0  0  0  0
  154.6903  138.5498  185.5967 C   0  0  0  0  0  0  0  0  0  0  0  0
  153.5922  138.1890  184.8201 C   0  0  0  0  0  0  0  0  0  0  0  0
  154.8095  138.1388  186.9822 C   0  0  0  0  0  0  0  0  0  0  0  0
  153.8375  138.3353  187.7539 O   0  0  0  0  0  0  0  0  0  0  0  0
  155.9798  137.5248  187.4975 N   0  0  0  0  0  0  0  0  0  0  0  0
  156.8334  137.3242  186.9272 H   0  0  0  0  0  0  0  0  0  0  0  0
  156.0467  137.1379  188.8730 C   0  0  0  0  0  0  0  0  0  0  0  0
  155.7605  135.9290  189.3244 N   0  0  0  0  0  0  0  0  0  0  0  0
  155.8513  135.6749  190.5888 C   0  0  0  0  0  0  0  0  0  0  0  0
  156.2474  136.6886  191.4204 C   0  0  0  0  0  0  0  0  0  0  0  0
  156.4680  137.9722  190.2958 S   0  0  0  0  0  0  0  0  0  0  0  0
  152.4693  138.2909  182.6644 O   0  0  0  0  0  0  0  0  0  0  0  0
  151.7858  139.2118  181.8956 C   0  0  0  0  0  0  0  0  0  0  0  0
  152.1509  139.0408  180.4225 C   0  0  0  0  0  0  0  0  0  0  0  0
  150.2991  138.9459  182.0998 C   0  0  0  0  0  0  0  0  0  0  0  0
  148.6982  137.3963  182.6255 C   0  0  0  0  0  0  0  0  0  0  0  0
  150.0301  137.6700  182.4959 O   0  0  0  0  0  0  0  0  0  0  0  0
  156.5910  140.4983  183.1138 O   0  0  0  0  0  0  0  0  0  0  0  0
  156.3808  141.6296  182.3359 C   0  0  0  0  0  0  0  0  0  0  0  0
  155.9478  142.7603  183.2757 C   0  0  0  0  0  0  0  0  0  0  0  0
  157.7521  142.0639  181.7996 C   0  0  0  0  0  0  0  0  0  0  0  0
  158.2727  141.1174  180.7721 C   0  0  0  0  0  0  0  0  0  0  0  0
  158.7469  142.1827  182.9319 C   0  0  0  0  0  0  0  0  0  0  0  0
  157.5538  143.4607  181.2382 C   0  0  0  0  0  0  0  0  0  0  0  0
 20 21  1  0  0  0
 21 19  1  0  0  0
 19 17  1  0  0  0
 17 18  1  0  0  0
 17 16  1  0  0  0
 16  1  1  0  0  0
  1  2  2  0  0  0
  2  3  1  0  0  0
  3 22  1  0  0  0
 22 23  1  0  0  0
 23 24  1  0  0  0
 23 25  1  0  0  0
 25 26  1  0  0  0
 25 27  1  0  0  0
 25 28  1  0  0  0
  3  4  2  0  0  0
  4  5  1  0  0  0
  5  6  2  0  0  0
  5  7  1  0  0  0
  7  8  2  0  0  0
  7  9  1  0  0  0
  9 11  1  0  0  0
 11 12  2  0  0  0
 12 13  1  0  0  0
 13 14  2  0  0  0
 14 15  1  0  0  0
  6  1  1  0  0  0
 15 11  1  0  0  0
  9 10  1  0  0  0
M  END
> <minimizedAffinity>
-5.88738

> <CNNscore>
0.5276747942

> <CNNaffinity>
5.9670524597

> <CNN_VS>
3.1486632824

> <CNNaffinity_variance>
0.1439842284

$$$$
[H]c1nc(N([H])C(=O)c2c([H])c(O[C@@]([H])(C([H])([H])[H])C([H])([H])OC([H])([H])[H])c([H])c(O[C@@]([H])(C([H])([H])[H])C(C([H])([H])[H])(C([H])([H])[H])C([H])([H])[H])c2[H])sc1[H]


 28 29  0  0  0  0  0  0  0  0999 V2000
  153.3239  138.0248  184.4113 C   0  0  0  0  0  0  0  0  0  0  0  0
  153.7619  137.5598  185.6486 C   0  0  0  0  0  0  0  0  0  0  0  0
  154.9703  137.9074  186.2083 C   0  0  0  0  0  0  0  0  0  0  0  0
  155.7742  138.7477  185.5142 C   0  0  0  0  0  0  0  0  0  0  0  0
  155.3890  139.2427  184.2755 C   0  0  0  0  0  0  0  0  0  0  0  0
  154.1596  138.8714  183.7372 C   0  0  0  0  0  0  0  0  0  0  0  0
  156.2866  140.1395  183.5736 C   0  0  0  0  0  0  0  0  0  0  0  0
  157.3958  140.4119  184.0973 O   0  0  0  0  0  0  0  0  0  0  0  0
  155.9598  140.7192  182.3210 N   0  0  0  0  0  0  0  0  0  0  0  0
  155.0606  140.5474  181.8148 H   0  0  0  0  0  0  0  0  0  0  0  0
  156.8811  141.5983  181.6694 C   0  0  0  0  0  0  0  0  0  0  0  0
  157.6564  141.2517  180.6566 N   0  0  0  0  0  0  0  0  0  0  0  0
  158.4587  142.1196  180.1326 C   0  0  0  0  0  0  0  0  0  0  0  0
  158.4702  143.3835  180.6600 C   0  0  0  0  0  0  0  0  0  0  0  0
  157.2943  143.2325  181.9072 S   0  0  0  0  0  0  0  0  0  0  0  0
  152.1027  137.5957  183.9824 O   0  0  0  0  0  0  0  0  0  0  0  0
  151.7944  137.2448  182.6831 C   0  0  0  0  0  0  0  0  0  0  0  0
  151.0092  135.9350  182.6647 C   0  0  0  0  0  0  0  0  0  0  0  0
  150.9449  138.3715  182.1075 C   0  0  0  0  0  0  0  0  0  0  0  0
  151.9905  140.0004  180.8852 C   0  0  0  0  0  0  0  0  0  0  0  0
  151.3633  138.7870  180.8788 O   0  0  0  0  0  0  0  0  0  0  0  0
  155.2693  137.3663  187.4440 O   0  0  0  0  0  0  0  0  0  0  0  0
  155.5166  138.0523  188.6262 C   0  0  0  0  0  0  0  0  0  0  0  0
  154.1853  138.6438  189.1022 C   0  0  0  0  0  0  0  0  0  0  0  0
  155.8836  137.0017  189.6837 C   0  0  0  0  0  0  0  0  0  0  0  0
  154.7115  136.1629  190.0648 C   0  0  0  0  0  0  0  0  0  0  0  0
  156.4523  137.6700  190.9148 C   0  0  0  0  0  0  0  0  0  0  0  0
  157.0016  136.1742  189.0748 C   0  0  0  0  0  0  0  0  0  0  0  0
 20 21  1  0  0  0
 21 19  1  0  0  0
 19 17  1  0  0  0
 17 18  1  0  0  0
 17 16  1  0  0  0
 16  1  1  0  0  0
  1  2  2  0  0  0
  2  3  1  0  0  0
  3 22  1  0  0  0
 22 23  1  0  0  0
 23 24  1  0  0  0
 23 25  1  0  0  0
 25 26  1  0  0  0
 25 27  1  0  0  0
 25 28  1  0  0  0
  3  4  2  0  0  0
  4  5  1  0  0  0
  5  6  2  0  0  0
  5  7  1  0  0  0
  7  8  2  0  0  0
  7  9  1  0  0  0
  9 11  1  0  0  0
 11 12  2  0  0  0
 12 13  1  0  0  0
 13 14  2  0  0  0
 14 15  1  0  0  0
  6  1  1  0  0  0
 15 11  1  0  0  0
  9 10  1  0  0  0
M  END
> <minimizedAffinity>
-6.22846

> <CNNscore>
0.4879934490

> <CNNaffinity>
5.9162945747

> <CNN_VS>
2.8871130943

> <CNNaffinity_variance>
0.0471051559

$$$$
[H]c1nc(N([H])C(=O)c2c([H])c(O[C@@]([H])(C([H])([H])[H])C([H])([H])OC([H])([H])[H])c([H])c(O[C@@]([H])(C([H])([H])[H])C(C([H])([H])[H])(C([H])([H])[H])C([H])([H])[H])c2[H])sc1[H]


 28 29  0  0  0  0  0  0  0  0999 V2000
  153.8721  138.3283  184.6654 C   0  0  0  0  0  0  0  0  0  0  0  0
  152.6819  138.0712  183.9900 C   0  0  0  0  0  0  0  0  0  0  0  0
  152.3168  138.7034  182.8232 C   0  0  0  0  0  0  0  0  0  0  0  0
  153.1644  139.6251  182.3074 C   0  0  0  0  0  0  0  0  0  0  0  0
  154.3652  139.9219  182.9382 C   0  0  0  0  0  0  0  0  0  0  0  0
  154.7049  139.2641  184.1176 C   0  0  0  0  0  0  0  0  0  0  0  0
  155.2371  140.9167  182.3443 C   0  0  0  0  0  0  0  0  0  0  0  0
  154.7673  142.0544  182.0915 O   0  0  0  0  0  0  0  0  0  0  0  0
  156.5970  140.6540  182.0387 N   0  0  0  0  0  0  0  0  0  0  0  0
  157.0686  139.7371  182.2154 H   0  0  0  0  0  0  0  0  0  0  0  0
  157.4153  141.6705  181.4530 C   0  0  0  0  0  0  0  0  0  0  0  0
  157.7146  141.7410  180.1675 N   0  0  0  0  0  0  0  0  0  0  0  0
  158.4637  142.7003  179.7317 C   0  0  0  0  0  0  0  0  0  0  0  0
  158.9230  143.6185  180.6384 C   0  0  0  0  0  0  0  0  0  0  0  0
  158.2266  143.0226  182.0947 S   0  0  0  0  0  0  0  0  0  0  0  0
  154.1015  137.6251  185.8111 O   0  0  0  0  0  0  0  0  0  0  0  0
  154.7056  138.1288  186.9457 C   0  0  0  0  0  0  0  0  0  0  0  0
  153.6482  138.4997  187.9835 C   0  0  0  0  0  0  0  0  0  0  0  0
  155.6117  137.0319  187.4919 C   0  0  0  0  0  0  0  0  0  0  0  0
  156.6130  136.3679  189.4405 C   0  0  0  0  0  0  0  0  0  0  0  0
  156.2940  137.4051  188.6110 O   0  0  0  0  0  0  0  0  0  0  0  0
  151.1041  138.3441  182.2668 O   0  0  0  0  0  0  0  0  0  0  0  0
  150.8820  137.8119  181.0032 C   0  0  0  0  0  0  0  0  0  0  0  0
  150.0879  136.5136  181.1838 C   0  0  0  0  0  0  0  0  0  0  0  0
  149.9215  138.7660  180.2793 C   0  0  0  0  0  0  0  0  0  0  0  0
  149.0196  139.4753  181.2312 C   0  0  0  0  0  0  0  0  0  0  0  0
  149.0953  138.0106  179.2632 C   0  0  0  0  0  0  0  0  0  0  0  0
  150.8016  139.7298  179.5036 C   0  0  0  0  0  0  0  0  0  0  0  0
 20 21  1  0  0  0
 21 19  1  0  0  0
 19 17  1  0  0  0
 17 18  1  0  0  0
 17 16  1  0  0  0
 16  1  1  0  0  0
  1  2  2  0  0  0
  2  3  1  0  0  0
  3 22  1  0  0  0
 22 23  1  0  0  0
 23 24  1  0  0  0
 23 25  1  0  0  0
 25 26  1  0  0  0
 25 27  1  0  0  0
 25 28  1  0  0  0
  3  4  2  0  0  0
  4  5  1  0  0  0
  5  6  2  0  0  0
  5  7  1  0  0  0
  7  8  2  0  0  0
  7  9  1  0  0  0
  9 11  1  0  0  0
 11 12  2  0  0  0
 12 13  1  0  0  0
 13 14  2  0  0  0
 14 15  1  0  0  0
  6  1  1  0  0  0
 15 11  1  0  0  0
  9 10  1  0  0  0
M  END
> <minimizedAffinity>
-6.62733

> <CNNscore>
0.4877971709

> <CNNaffinity>
5.9497375488

> <CNN_VS>
2.9022650719

> <CNNaffinity_variance>
0.0756540447

$$$$
[H]c1c([H])c(Cl)c(-c2c([H])c3c([H])nc(N([H])c4c([H])c([H])c(N5C([H])([H])C([H])([H])N(C([H])([H])[H])C([H])([H])C5([H])[H])c([H])c4OC([H])([H])[H])nc3n(C([H])([H])[H])c2=O)c(Cl)c1[H]


 37 41  0  0  0  0  0  0  0  0999 V2000
  154.0632  136.8338  186.1400 C   0  0  0  0  0  0  0  0  0  0  0  0
  153.7163  137.6220  185.1309 N   0  0  0  0  0  0  0  0  0  0  0  0
  153.4329  137.2095  183.8865 C   0  0  0  0  0  0  0  0  0  0  0  0
  153.4976  135.8442  183.5909 C   0  0  0  0  0  0  0  0  0  0  0  0
  153.2196  135.3871  182.3316 C   0  0  0  0  0  0  0  0  0  0  0  0
  153.2984  134.0352  182.0781 C   0  0  0  0  0  0  0  0  0  0  0  0
  153.6570  133.2043  183.1187 C   0  0  0  0  0  0  0  0  0  0  0  0
  153.7251  131.9517  182.8672 O   0  0  0  0  0  0  0  0  0  0  0  0
  153.9195  133.6901  184.3302 N   0  0  0  0  0  0  0  0  0  0  0  0
  154.2878  132.7705  185.3808 C   0  0  0  0  0  0  0  0  0  0  0  0
  153.8511  135.0170  184.6105 C   0  0  0  0  0  0  0  0  0  0  0  0
  154.1198  135.4944  185.8258 N   0  0  0  0  0  0  0  0  0  0  0  0
  153.0254  133.4616  180.7695 C   0  0  0  0  0  0  0  0  0  0  0  0
  151.7824  133.0444  180.3536 C   0  0  0  0  0  0  0  0  0  0  0  0
  150.4422  133.2102  181.4667 Cl  0  0  0  0  0  0  0  0  0  0  0  0
  151.5909  132.5005  179.0759 C   0  0  0  0  0  0  0  0  0  0  0  0
  152.6510  132.3725  178.2043 C   0  0  0  0  0  0  0  0  0  0  0  0
  153.8908  132.7918  178.6268 C   0  0  0  0  0  0  0  0  0  0  0  0
  154.0755  133.3283  179.8906 C   0  0  0  0  0  0  0  0  0  0  0  0
  155.6750  133.8405  180.3617 Cl  0  0  0  0  0  0  0  0  0  0  0  0
  154.3779  137.2328  187.4655 N   0  0  0  0  0  0  0  0  0  0  0  0
  155.2194  137.9078  187.5561 H   0  0  0  0  0  0  0  0  0  0  0  0
  154.5728  136.7502  189.7862 C   0  0  0  0  0  0  0  0  0  0  0  0
  154.0252  136.3915  190.9883 C   0  0  0  0  0  0  0  0  0  0  0  0
  152.6801  136.1389  191.1304 C   0  0  0  0  0  0  0  0  0  0  0  0
  151.8582  136.2496  190.0296 C   0  0  0  0  0  0  0  0  0  0  0  0
  152.4068  136.6116  188.8119 C   0  0  0  0  0  0  0  0  0  0  0  0
  153.7455  136.8651  188.6631 C   0  0  0  0  0  0  0  0  0  0  0  0
  152.1396  135.7731  192.4097 N   0  0  0  0  0  0  0  0  0  0  0  0
  150.8106  136.1916  192.7183 C   0  0  0  0  0  0  0  0  0  0  0  0
  150.2956  135.7693  194.0484 C   0  0  0  0  0  0  0  0  0  0  0  0
  150.9654  134.6440  194.6190 N   0  0  0  0  0  0  0  0  0  0  0  0
  150.7133  133.4022  193.9422 C   0  0  0  0  0  0  0  0  0  0  0  0
  152.3779  134.9445  194.7221 C   0  0  0  0  0  0  0  0  0  0  0  0
  152.9375  135.0072  193.3332 C   0  0  0  0  0  0  0  0  0  0  0  0
  156.5673  137.9937  190.4697 C   0  0  0  0  0  0  0  0  0  0  0  0
  155.9443  136.9957  189.6972 O   0  0  0  0  0  0  0  0  0  0  0  0
 36 37  1  0  0  0
 37 23  1  0  0  0
 23 24  2  0  0  0
 24 25  1  0  0  0
 25 26  2  0  0  0
 26 27  1  0  0  0
 27 28  2  0  0  0
 28 21  1  0  0  0
 21  1  1  0  0  0
  1  2  2  0  0  0
  2  3  1  0  0  0
  3  4  2  0  0  0
  4  5  1  0  0  0
  5  6  2  0  0  0
  6 13  1  0  0  0
 13 14  2  0  0  0
 14 15  1  0  0  0
 14 16  1  0  0  0
 16 17  2  0  0  0
 17 18  1  0  0  0
 18 19  2  0  0  0
 19 20  1  0  0  0
  6  7  1  0  0  0
  7  8  2  0  0  0
  7  9  1  0  0  0
  9 10  1  0  0  0
  9 11  1  0  0  0
 11 12  2  0  0  0
 25 29  1  0  0  0
 29 30  1  0  0  0
 30 31  1  0  0  0
 31 32  1  0  0  0
 32 33  1  0  0  0
 32 34  1  0  0  0
 34 35  1  0  0  0
 28 23  1  0  0  0
 12  1  1  0  0  0
 35 29  1  0  0  0
 11  4  1  0  0  0
 19 13  1  0  0  0
 21 22  1  0  0  0
M  END
> <minimizedAffinity>
-5.66887

> <CNNscore>
0.2599077821

> <CNNaffinity>
5.8440008163

> <CNN_VS>
1.5189013481

> <CNNaffinity_variance>
0.0161223598

$$$$
[H]c1c([H])c(Cl)c(-c2c([H])c3c([H])nc(N([H])c4c([H])c([H])c(N5C([H])([H])C([H])([H])N(C([H])([H])[H])C([H])([H])C5([H])[H])c([H])c4OC([H])([H])[H])nc3n(C([H])([H])[H])c2=O)c(Cl)c1[H]


 37 41  0  0  0  0  0  0  0  0999 V2000
  154.0415  136.4981  185.7988 C   0  0  0  0  0  0  0  0  0  0  0  0
  153.6424  137.0333  184.6523 N   0  0  0  0  0  0  0  0  0  0  0  0
  153.6650  136.4189  183.4603 C   0  0  0  0  0  0  0  0  0  0  0  0
  154.1416  135.1066  183.3799 C   0  0  0  0  0  0  0  0  0  0  0  0
  154.1837  134.4498  182.1804 C   0  0  0  0  0  0  0  0  0  0  0  0
  154.6639  133.1590  182.1411 C   0  0  0  0  0  0  0  0  0  0  0  0
  155.0812  132.5903  183.3260 C   0  0  0  0  0  0  0  0  0  0  0  0
  155.5239  131.3911  183.2727 O   0  0  0  0  0  0  0  0  0  0  0  0
  155.0234  133.2645  184.4726 N   0  0  0  0  0  0  0  0  0  0  0  0
  155.4727  132.6155  185.6817 C   0  0  0  0  0  0  0  0  0  0  0  0
  154.5560  134.5376  184.5432 C   0  0  0  0  0  0  0  0  0  0  0  0
  154.5059  135.2061  185.6954 N   0  0  0  0  0  0  0  0  0  0  0  0
  154.7497  132.3873  180.9109 C   0  0  0  0  0  0  0  0  0  0  0  0
  153.7039  131.6742  180.3726 C   0  0  0  0  0  0  0  0  0  0  0  0
  152.1722  131.6916  181.2189 Cl  0  0  0  0  0  0  0  0  0  0  0  0
  153.8571  130.9520  179.1810 C   0  0  0  0  0  0  0  0  0  0  0  0
  155.0664  130.9423  178.5197 C   0  0  0  0  0  0  0  0  0  0  0  0
  156.1075  131.6577  179.0637 C   0  0  0  0  0  0  0  0  0  0  0  0
  155.9517  132.3696  180.2418 C   0  0  0  0  0  0  0  0  0  0  0  0
  157.3138  133.2556  180.8759 Cl  0  0  0  0  0  0  0  0  0  0  0  0
  154.0406  137.1179  187.0759 N   0  0  0  0  0  0  0  0  0  0  0  0
  154.4599  138.1155  187.1044 H   0  0  0  0  0  0  0  0  0  0  0  0
  152.1897  136.4149  188.3937 C   0  0  0  0  0  0  0  0  0  0  0  0
  151.6615  135.9221  189.5564 C   0  0  0  0  0  0  0  0  0  0  0  0
  152.4499  135.6064  190.6390 C   0  0  0  0  0  0  0  0  0  0  0  0
  153.8128  135.7919  190.5516 C   0  0  0  0  0  0  0  0  0  0  0  0
  154.3518  136.2901  189.3786 C   0  0  0  0  0  0  0  0  0  0  0  0
  153.5727  136.6063  188.2961 C   0  0  0  0  0  0  0  0  0  0  0  0
  151.8611  135.0832  191.8400 N   0  0  0  0  0  0  0  0  0  0  0  0
  152.6568  134.2233  192.6548 C   0  0  0  0  0  0  0  0  0  0  0  0
  152.0031  133.7259  193.8950 C   0  0  0  0  0  0  0  0  0  0  0  0
  150.9026  134.5157  194.3487 N   0  0  0  0  0  0  0  0  0  0  0  0
  151.2743  135.8045  194.8630 C   0  0  0  0  0  0  0  0  0  0  0  0
  149.9213  134.6021  193.2878 C   0  0  0  0  0  0  0  0  0  0  0  0
  150.5068  135.4325  192.1861 C   0  0  0  0  0  0  0  0  0  0  0  0
  150.2757  135.8762  186.9663 C   0  0  0  0  0  0  0  0  0  0  0  0
  151.3445  136.7188  187.3248 O   0  0  0  0  0  0  0  0  0  0  0  0
 36 37  1  0  0  0
 37 23  1  0  0  0
 23 24  2  0  0  0
 24 25  1  0  0  0
 25 26  2  0  0  0
 26 27  1  0  0  0
 27 28  2  0  0  0
 28 21  1  0  0  0
 21  1  1  0  0  0
  1  2  2  0  0  0
  2  3  1  0  0  0
  3  4  2  0  0  0
  4  5  1  0  0  0
  5  6  2  0  0  0
  6 13  1  0  0  0
 13 14  2  0  0  0
 14 15  1  0  0  0
 14 16  1  0  0  0
 16 17  2  0  0  0
 17 18  1  0  0  0
 18 19  2  0  0  0
 19 20  1  0  0  0
  6  7  1  0  0  0
  7  8  2  0  0  0
  7  9  1  0  0  0
  9 10  1  0  0  0
  9 11  1  0  0  0
 11 12  2  0  0  0
 25 29  1  0  0  0
 29 30  1  0  0  0
 30 31  1  0  0  0
 31 32  1  0  0  0
 32 33  1  0  0  0
 32 34  1  0  0  0
 34 35  1  0  0  0
 28 23  1  0  0  0
 12  1  1  0  0  0
 35 29  1  0  0  0
 11  4  1  0  0  0
 19 13  1  0  0  0
 21 22  1  0  0  0
M  END
> <minimizedAffinity>
-4.47537

> <CNNscore>
0.2380254418

> <CNNaffinity>
5.7573099136

> <CNN_VS>
1.3703862429

> <CNNaffinity_variance>
0.1052101105

$$$$
[H]c1c([H])c(Cl)c(-c2c([H])c3c([H])nc(N([H])c4c([H])c([H])c(N5C([H])([H])C([H])([H])N(C([H])([H])[H])C([H])([H])C5([H])[H])c([H])c4OC([H])([H])[H])nc3n(C([H])([H])[H])c2=O)c(Cl)c1[H]


 37 41  0  0  0  0  0  0  0  0999 V2000
  154.2486  135.9127  185.6847 C   0  0  0  0  0  0  0  0  0  0  0  0
  154.1257  136.7901  184.6973 N   0  0  0  0  0  0  0  0  0  0  0  0
  153.8324  136.4885  183.4237 C   0  0  0  0  0  0  0  0  0  0  0  0
  153.6329  135.1502  183.0699 C   0  0  0  0  0  0  0  0  0  0  0  0
  153.3366  134.8044  181.7797 C   0  0  0  0  0  0  0  0  0  0  0  0
  153.1513  133.4749  181.4693 C   0  0  0  0  0  0  0  0  0  0  0  0
  153.2752  132.5523  182.4867 C   0  0  0  0  0  0  0  0  0  0  0  0
  153.0997  131.3221  182.1822 O   0  0  0  0  0  0  0  0  0  0  0  0
  153.5648  132.9311  183.7298 N   0  0  0  0  0  0  0  0  0  0  0  0
  153.6795  131.9194  184.7537 C   0  0  0  0  0  0  0  0  0  0  0  0
  153.7537  134.2330  184.0664 C   0  0  0  0  0  0  0  0  0  0  0  0
  154.0474  134.6022  185.3131 N   0  0  0  0  0  0  0  0  0  0  0  0
  152.8389  133.0158  180.1248 C   0  0  0  0  0  0  0  0  0  0  0  0
  153.7835  132.6351  179.2002 C   0  0  0  0  0  0  0  0  0  0  0  0
  155.4689  132.7083  179.6656 Cl  0  0  0  0  0  0  0  0  0  0  0  0
  153.4107  132.2014  177.9204 C   0  0  0  0  0  0  0  0  0  0  0  0
  152.0814  132.1465  177.5603 C   0  0  0  0  0  0  0  0  0  0  0  0
  151.1425  132.5285  178.4898 C   0  0  0  0  0  0  0  0  0  0  0  0
  151.5155  132.9569  179.7533 C   0  0  0  0  0  0  0  0  0  0  0  0
  150.2727  133.4265  180.8835 Cl  0  0  0  0  0  0  0  0  0  0  0  0
  154.5653  136.1919  187.0400 N   0  0  0  0  0  0  0  0  0  0  0  0
  155.5378  136.6383  187.2035 H   0  0  0  0  0  0  0  0  0  0  0  0
  154.4345  135.3306  189.2531 C   0  0  0  0  0  0  0  0  0  0  0  0
  153.7364  135.0715  190.4016 C   0  0  0  0  0  0  0  0  0  0  0  0
  152.4112  135.4142  190.5423 C   0  0  0  0  0  0  0  0  0  0  0  0
  151.7659  136.0367  189.4956 C   0  0  0  0  0  0  0  0  0  0  0  0
  152.4670  136.3006  188.3322 C   0  0  0  0  0  0  0  0  0  0  0  0
  153.7872  135.9626  188.1852 C   0  0  0  0  0  0  0  0  0  0  0  0
  151.7132  135.1342  191.7658 N   0  0  0  0  0  0  0  0  0  0  0  0
  152.0383  133.9308  192.4605 C   0  0  0  0  0  0  0  0  0  0  0  0
  151.2985  133.7011  193.7304 C   0  0  0  0  0  0  0  0  0  0  0  0
  150.7466  134.8783  194.3221 N   0  0  0  0  0  0  0  0  0  0  0  0
  151.7251  135.7812  194.8618 C   0  0  0  0  0  0  0  0  0  0  0  0
  149.8705  135.5164  193.3623 C   0  0  0  0  0  0  0  0  0  0  0  0
  150.7202  136.0577  192.2527 C   0  0  0  0  0  0  0  0  0  0  0  0
  156.3888  134.1528  190.1391 C   0  0  0  0  0  0  0  0  0  0  0  0
  155.7782  134.9622  189.1629 O   0  0  0  0  0  0  0  0  0  0  0  0
 36 37  1  0  0  0
 37 23  1  0  0  0
 23 24  2  0  0  0
 24 25  1  0  0  0
 25 26  2  0  0  0
 26 27  1  0  0  0
 27 28  2  0  0  0
 28 21  1  0  0  0
 21  1  1  0  0  0
  1  2  2  0  0  0
  2  3  1  0  0  0
  3  4  2  0  0  0
  4  5  1  0  0  0
  5  6  2  0  0  0
  6 13  1  0  0  0
 13 14  2  0  0  0
 14 15  1  0  0  0
 14 16  1  0  0  0
 16 17  2  0  0  0
 17 18  1  0  0  0
 18 19  2  0  0  0
 19 20  1  0  0  0
  6  7  1  0  0  0
  7  8  2  0  0  0
  7  9  1  0  0  0
  9 10  1  0  0  0
  9 11  1  0  0  0
 11 12  2  0  0  0
 25 29  1  0  0  0
 29 30  1  0  0  0
 30 31  1  0  0  0
 31 32  1  0  0  0
 32 33  1  0  0  0
 32 34  1  0  0  0
 34 35  1  0  0  0
 28 23  1  0  0  0
 12  1  1  0  0  0
 35 29  1  0  0  0
 11  4  1  0  0  0
 19 13  1  0  0  0
 21 22  1  0  0  0
M  END
> <minimizedAffinity>
-4.69854

> <CNNscore>
0.2336546928

> <CNNaffinity>
5.7767548561

> <CNN_VS>
1.3497658968

> <CNNaffinity_variance>
0.1781878918

$$$$
[H]c1c([H])c(Cl)c(-c2c([H])c3c([H])nc(N([H])c4c([H])c([H])c(N5C([H])([H])C([H])([H])N(C([H])([H])[H])C([H])([H])C5([H])[H])c([H])c4OC([H])([H])[H])nc3n(C([H])([H])[H])c2=O)c(Cl)c1[H]


 37 41  0  0  0  0  0  0  0  0999 V2000
  154.4428  136.8777  186.2221 C   0  0  0  0  0  0  0  0  0  0  0  0
  155.5558  137.3828  186.7381 N   0  0  0  0  0  0  0  0  0  0  0  0
  156.2405  138.4220  186.2380 C   0  0  0  0  0  0  0  0  0  0  0  0
  155.7738  139.0500  185.0788 C   0  0  0  0  0  0  0  0  0  0  0  0
  156.4485  140.1101  184.5375 C   0  0  0  0  0  0  0  0  0  0  0  0
  155.9596  140.6997  183.3923 C   0  0  0  0  0  0  0  0  0  0  0  0
  154.8027  140.1851  182.8459 C   0  0  0  0  0  0  0  0  0  0  0  0
  154.3615  140.7440  181.7829 O   0  0  0  0  0  0  0  0  0  0  0  0
  154.1765  139.1515  183.4047 N   0  0  0  0  0  0  0  0  0  0  0  0
  152.9677  138.6577  182.7881 C   0  0  0  0  0  0  0  0  0  0  0  0
  154.6339  138.5491  184.5324 C   0  0  0  0  0  0  0  0  0  0  0  0
  154.0021  137.5120  185.0822 N   0  0  0  0  0  0  0  0  0  0  0  0
  156.6134  141.8267  182.7453 C   0  0  0  0  0  0  0  0  0  0  0  0
  156.1728  143.1270  182.8295 C   0  0  0  0  0  0  0  0  0  0  0  0
  154.7338  143.4503  183.7715 Cl  0  0  0  0  0  0  0  0  0  0  0  0
  156.8537  144.1660  182.1800 C   0  0  0  0  0  0  0  0  0  0  0  0
  157.9863  143.9042  181.4394 C   0  0  0  0  0  0  0  0  0  0  0  0
  158.4211  142.6019  181.3597 C   0  0  0  0  0  0  0  0  0  0  0  0
  157.7448  141.5782  182.0029 C   0  0  0  0  0  0  0  0  0  0  0  0
  158.3515  139.9490  181.8602 Cl  0  0  0  0  0  0  0  0  0  0  0  0
  153.6960  135.7765  186.7167 N   0  0  0  0  0  0  0  0  0  0  0  0
  153.9931  135.4201  187.6948 H   0  0  0  0  0  0  0  0  0  0  0  0
  151.3582  135.3493  186.6222 C   0  0  0  0  0  0  0  0  0  0  0  0
  150.2742  134.7165  186.0763 C   0  0  0  0  0  0  0  0  0  0  0  0
  150.3970  133.8330  185.0286 C   0  0  0  0  0  0  0  0  0  0  0  0
  151.6488  133.5763  184.5125 C   0  0  0  0  0  0  0  0  0  0  0  0
  152.7481  134.2131  185.0609 C   0  0  0  0  0  0  0  0  0  0  0  0
  152.6333  135.0946  186.1042 C   0  0  0  0  0  0  0  0  0  0  0  0
  149.2356  133.1941  184.4757 N   0  0  0  0  0  0  0  0  0  0  0  0
  149.4366  132.1414  183.5334 C   0  0  0  0  0  0  0  0  0  0  0  0
  148.1999  131.5035  183.0078 C   0  0  0  0  0  0  0  0  0  0  0  0
  147.0443  131.6722  183.8303 N   0  0  0  0  0  0  0  0  0  0  0  0
  147.0912  130.9462  185.0690 C   0  0  0  0  0  0  0  0  0  0  0  0
  146.8117  133.0880  184.0239 C   0  0  0  0  0  0  0  0  0  0  0  0
  147.9205  133.6237  184.8782 C   0  0  0  0  0  0  0  0  0  0  0  0
  150.6348  135.8173  188.9133 C   0  0  0  0  0  0  0  0  0  0  0  0
  151.1778  136.2371  187.6845 O   0  0  0  0  0  0  0  0  0  0  0  0
 36 37  1  0  0  0
 37 23  1  0  0  0
 23 24  2  0  0  0
 24 25  1  0  0  0
 25 26  2  0  0  0
 26 27  1  0  0  0
 27 28  2  0  0  0
 28 21  1  0  0  0
 21  1  1  0  0  0
  1  2  2  0  0  0
  2  3  1  0  0  0
  3  4  2  0  0  0
  4  5  1  0  0  0
  5  6  2  0  0  0
  6 13  1  0  0  0
 13 14  2  0  0  0
 14 15  1  0  0  0
 14 16  1  0  0  0
 16 17  2  0  0  0
 17 18  1  0  0  0
 18 19  2  0  0  0
 19 20  1  0  0  0
  6  7  1  0  0  0
  7  8  2  0  0  0
  7  9  1  0  0  0
  9 10  1  0  0  0
  9 11  1  0  0  0
 11 12  2  0  0  0
 25 29  1  0  0  0
 29 30  1  0  0  0
 30 31  1  0  0  0
 31 32  1  0  0  0
 32 33  1  0  0  0
 32 34  1  0  0  0
 34 35  1  0  0  0
 28 23  1  0  0  0
 12  1  1  0  0  0
 35 29  1  0  0  0
 11  4  1  0  0  0
 19 13  1  0  0  0
 21 22  1  0  0  0
M  END
> <minimizedAffinity>
-6.43195

> <CNNscore>
0.2246888280

> <CNNaffinity>
6.3178496361

> <CNN_VS>
1.4195501804

> <CNNaffinity_variance>
0.2159137279

$$$$
[H]c1c([H])c(Cl)c(-c2c([H])c3c([H])nc(N([H])c4c([H])c([H])c(N5C([H])([H])C([H])([H])N(C([H])([H])[H])C([H])([H])C5([H])[H])c([H])c4OC([H])([H])[H])nc3n(C([H])([H])[H])c2=O)c(Cl)c1[H]


 37 41  0  0  0  0  0  0  0  0999 V2000
  153.0497  137.7310  186.3390 C   0  0  0  0  0  0  0  0  0  0  0  0
  151.8957  137.1145  186.5587 N   0  0  0  0  0  0  0  0  0  0  0  0
  151.5274  136.5477  187.7171 C   0  0  0  0  0  0  0  0  0  0  0  0
  152.4053  136.5901  188.8049 C   0  0  0  0  0  0  0  0  0  0  0  0
  152.0655  136.0189  190.0009 C   0  0  0  0  0  0  0  0  0  0  0  0
  152.9590  136.0776  191.0480 C   0  0  0  0  0  0  0  0  0  0  0  0
  154.1622  136.7165  190.8335 C   0  0  0  0  0  0  0  0  0  0  0  0
  154.9806  136.7628  191.8158 O   0  0  0  0  0  0  0  0  0  0  0  0
  154.4538  137.2598  189.6535 N   0  0  0  0  0  0  0  0  0  0  0  0
  155.7287  137.9176  189.4894 C   0  0  0  0  0  0  0  0  0  0  0  0
  153.5946  137.2175  188.6028 C   0  0  0  0  0  0  0  0  0  0  0  0
  153.8973  137.7608  187.4237 N   0  0  0  0  0  0  0  0  0  0  0  0
  152.6845  135.4937  192.3518 C   0  0  0  0  0  0  0  0  0  0  0  0
  152.2343  136.2077  193.4379 C   0  0  0  0  0  0  0  0  0  0  0  0
  151.9764  137.9278  193.2442 Cl  0  0  0  0  0  0  0  0  0  0  0  0
  151.9891  135.5793  194.6667 C   0  0  0  0  0  0  0  0  0  0  0  0
  152.1947  134.2242  194.8123 C   0  0  0  0  0  0  0  0  0  0  0  0
  152.6448  133.5167  193.7222 C   0  0  0  0  0  0  0  0  0  0  0  0
  152.8862  134.1420  192.5098 C   0  0  0  0  0  0  0  0  0  0  0  0
  153.4556  133.1843  191.1678 Cl  0  0  0  0  0  0  0  0  0  0  0  0
  153.4779  138.3343  185.1275 N   0  0  0  0  0  0  0  0  0  0  0  0
  152.7835  138.2521  184.3011 H   0  0  0  0  0  0  0  0  0  0  0  0
  154.6316  139.9708  183.8440 C   0  0  0  0  0  0  0  0  0  0  0  0
  155.7650  140.6713  183.5307 C   0  0  0  0  0  0  0  0  0  0  0  0
  156.9548  140.4660  184.1907 C   0  0  0  0  0  0  0  0  0  0  0  0
  157.0083  139.5265  185.1977 C   0  0  0  0  0  0  0  0  0  0  0  0
  155.8654  138.8154  185.5182 C   0  0  0  0  0  0  0  0  0  0  0  0
  154.6768  139.0149  184.8653 C   0  0  0  0  0  0  0  0  0  0  0  0
  158.1218  141.2262  183.8403 N   0  0  0  0  0  0  0  0  0  0  0  0
  157.9307  142.5295  183.2915 C   0  0  0  0  0  0  0  0  0  0  0  0
  159.1736  143.2785  182.9645 C   0  0  0  0  0  0  0  0  0  0  0  0
  160.3403  142.8322  183.6574 N   0  0  0  0  0  0  0  0  0  0  0  0
  160.3377  143.1223  185.0643 C   0  0  0  0  0  0  0  0  0  0  0  0
  160.5383  141.4251  183.3800 C   0  0  0  0  0  0  0  0  0  0  0  0
  159.4326  140.6647  184.0474 C   0  0  0  0  0  0  0  0  0  0  0  0
  153.4209  141.0703  182.0228 C   0  0  0  0  0  0  0  0  0  0  0  0
  153.4499  140.2185  183.1429 O   0  0  0  0  0  0  0  0  0  0  0  0
 36 37  1  0  0  0
 37 23  1  0  0  0
 23 24  2  0  0  0
 24 25  1  0  0  0
 25 26  2  0  0  0
 26 27  1  0  0  0
 27 28  2  0  0  0
 28 21  1  0  0  0
 21  1  1  0  0  0
  1  2  2  0  0  0
  2  3  1  0  0  0
  3  4  2  0  0  0
  4  5  1  0  0  0
  5  6  2  0  0  0
  6 13  1  0  0  0
 13 14  2  0  0  0
 14 15  1  0  0  0
 14 16  1  0  0  0
 16 17  2  0  0  0
 17 18  1  0  0  0
 18 19  2  0  0  0
 19 20  1  0  0  0
  6  7  1  0  0  0
  7  8  2  0  0  0
  7  9  1  0  0  0
  9 10  1  0  0  0
  9 11  1  0  0  0
 11 12  2  0  0  0
 25 29  1  0  0  0
 29 30  1  0  0  0
 30 31  1  0  0  0
 31 32  1  0  0  0
 32 33  1  0  0  0
 32 34  1  0  0  0
 34 35  1  0  0  0
 28 23  1  0  0  0
 12  1  1  0  0  0
 35 29  1  0  0  0
 11  4  1  0  0  0
 19 13  1  0  0  0
 21 22  1  0  0  0
M  END
> <minimizedAffinity>
-8.77405

> <CNNscore>
0.2158824801

> <CNNaffinity>
6.4982323647

> <CNN_VS>
1.4028545618

> <CNNaffinity_variance>
0.0832906216

$$$$
[H]c1c([H])c(Cl)c(-c2c([H])c3c([H])nc(N([H])c4c([H])c([H])c(N5C([H])([H])C([H])([H])N(C([H])([H])[H])C([H])([H])C5([H])[H])c([H])c4OC([H])([H])[H])nc3n(C([H])([H])[H])c2=O)c(Cl)c1[H]


 37 41  0  0  0  0  0  0  0  0999 V2000
  153.1366  137.5181  185.9380 C   0  0  0  0  0  0  0  0  0  0  0  0
  153.6991  137.8869  184.7946 N   0  0  0  0  0  0  0  0  0  0  0  0
  153.0752  137.9530  183.6091 C   0  0  0  0  0  0  0  0  0  0  0  0
  151.7208  137.6128  183.5330 C   0  0  0  0  0  0  0  0  0  0  0  0
  151.0526  137.6639  182.3402 C   0  0  0  0  0  0  0  0  0  0  0  0
  149.7197  137.3170  182.3048 C   0  0  0  0  0  0  0  0  0  0  0  0
  149.1223  136.9325  183.4867 C   0  0  0  0  0  0  0  0  0  0  0  0
  147.8841  136.6141  183.4371 O   0  0  0  0  0  0  0  0  0  0  0  0
  149.8089  136.8965  184.6268 N   0  0  0  0  0  0  0  0  0  0  0  0
  149.1285  136.4877  185.8331 C   0  0  0  0  0  0  0  0  0  0  0  0
  151.1231  137.2317  184.6934 C   0  0  0  0  0  0  0  0  0  0  0  0
  151.8034  137.1884  185.8390 N   0  0  0  0  0  0  0  0  0  0  0  0
  148.9326  137.3369  181.0816 C   0  0  0  0  0  0  0  0  0  0  0  0
  148.1872  138.4137  180.6608 C   0  0  0  0  0  0  0  0  0  0  0  0
  148.1808  139.8519  181.6579 Cl  0  0  0  0  0  0  0  0  0  0  0  0
  147.4517  138.3639  179.4685 C   0  0  0  0  0  0  0  0  0  0  0  0
  147.4610  137.2278  178.6882 C   0  0  0  0  0  0  0  0  0  0  0  0
  148.2084  136.1551  179.1150 C   0  0  0  0  0  0  0  0  0  0  0  0
  148.9335  136.2086  180.2942 C   0  0  0  0  0  0  0  0  0  0  0  0
  149.8604  134.8119  180.7762 Cl  0  0  0  0  0  0  0  0  0  0  0  0
  153.7644  137.4280  187.2080 N   0  0  0  0  0  0  0  0  0  0  0  0
  154.8073  137.7176  187.2282 H   0  0  0  0  0  0  0  0  0  0  0  0
  153.8437  137.4878  189.5843 C   0  0  0  0  0  0  0  0  0  0  0  0
  153.3615  137.1205  190.8116 C   0  0  0  0  0  0  0  0  0  0  0  0
  152.2695  136.2945  190.9485 C   0  0  0  0  0  0  0  0  0  0  0  0
  151.6417  135.8216  189.8164 C   0  0  0  0  0  0  0  0  0  0  0  0
  152.1253  136.1897  188.5733 C   0  0  0  0  0  0  0  0  0  0  0  0
  153.2121  137.0124  188.4294 C   0  0  0  0  0  0  0  0  0  0  0  0
  151.7865  135.9372  192.2530 N   0  0  0  0  0  0  0  0  0  0  0  0
  150.3743  135.8784  192.4499 C   0  0  0  0  0  0  0  0  0  0  0  0
  149.9308  135.4855  193.8143 C   0  0  0  0  0  0  0  0  0  0  0  0
  150.9061  134.7744  194.5783 N   0  0  0  0  0  0  0  0  0  0  0  0
  151.1737  133.4457  194.1024 C   0  0  0  0  0  0  0  0  0  0  0  0
  152.1034  135.5824  194.6746 C   0  0  0  0  0  0  0  0  0  0  0  0
  152.7220  135.6526  193.3112 C   0  0  0  0  0  0  0  0  0  0  0  0
  156.2056  137.9531  190.0268 C   0  0  0  0  0  0  0  0  0  0  0  0
  154.9550  138.3288  189.5017 O   0  0  0  0  0  0  0  0  0  0  0  0
 36 37  1  0  0  0
 37 23  1  0  0  0
 23 24  2  0  0  0
 24 25  1  0  0  0
 25 26  2  0  0  0
 26 27  1  0  0  0
 27 28  2  0  0  0
 28 21  1  0  0  0
 21  1  1  0  0  0
  1  2  2  0  0  0
  2  3  1  0  0  0
  3  4  2  0  0  0
  4  5  1  0  0  0
  5  6  2  0  0  0
  6 13  1  0  0  0
 13 14  2  0  0  0
 14 15  1  0  0  0
 14 16  1  0  0  0
 16 17  2  0  0  0
 17 18  1  0  0  0
 18 19  2  0  0  0
 19 20  1  0  0  0
  6  7  1  0  0  0
  7  8  2  0  0  0
  7  9  1  0  0  0
  9 10  1  0  0  0
  9 11  1  0  0  0
 11 12  2  0  0  0
 25 29  1  0  0  0
 29 30  1  0  0  0
 30 31  1  0  0  0
 31 32  1  0  0  0
 32 33  1  0  0  0
 32 34  1  0  0  0
 34 35  1  0  0  0
 28 23  1  0  0  0
 12  1  1  0  0  0
 35 29  1  0  0  0
 11  4  1  0  0  0
 19 13  1  0  0  0
 21 22  1  0  0  0
M  END
> <minimizedAffinity>
-6.41223

> <CNNscore>
0.2140320241

> <CNNaffinity>
5.9688692093

> <CNN_VS>
1.2775291204

> <CNNaffinity_variance>
0.0309152305

$$$$
[H]c1c([H])c(Cl)c(-c2c([H])c3c([H])nc(N([H])c4c([H])c([H])c(N5C([H])([H])C([H])([H])N(C([H])([H])[H])C([H])([H])C5([H])[H])c([H])c4OC([H])([H])[H])nc3n(C([H])([H])[H])c2=O)c(Cl)c1[H]


 37 41  0  0  0  0  0  0  0  0999 V2000
  154.1298  137.4291  185.2597 C   0  0  0  0  0  0  0  0  0  0  0  0
  154.2747  138.3835  184.3497 N   0  0  0  0  0  0  0  0  0  0  0  0
  153.3574  138.7272  183.4335 C   0  0  0  0  0  0  0  0  0  0  0  0
  152.1363  138.0461  183.4043 C   0  0  0  0  0  0  0  0  0  0  0  0
  151.1786  138.3663  182.4810 C   0  0  0  0  0  0  0  0  0  0  0  0
  149.9900  137.6696  182.4812 C   0  0  0  0  0  0  0  0  0  0  0  0
  149.8259  136.6754  183.4226 C   0  0  0  0  0  0  0  0  0  0  0  0
  148.7164  136.0383  183.4099 O   0  0  0  0  0  0  0  0  0  0  0  0
  150.7836  136.3953  184.3041 N   0  0  0  0  0  0  0  0  0  0  0  0
  150.5532  135.3447  185.2675 C   0  0  0  0  0  0  0  0  0  0  0  0
  151.9655  137.0635  184.3284 C   0  0  0  0  0  0  0  0  0  0  0  0
  152.9202  136.7730  185.2123 N   0  0  0  0  0  0  0  0  0  0  0  0
  148.9190  137.9383  181.5341 C   0  0  0  0  0  0  0  0  0  0  0  0
  147.9616  138.9106  181.7071 C   0  0  0  0  0  0  0  0  0  0  0  0
  148.0310  139.8870  183.1578 Cl  0  0  0  0  0  0  0  0  0  0  0  0
  146.9568  139.1159  180.7515 C   0  0  0  0  0  0  0  0  0  0  0  0
  146.9078  138.3430  179.6113 C   0  0  0  0  0  0  0  0  0  0  0  0
  147.8683  137.3729  179.4449 C   0  0  0  0  0  0  0  0  0  0  0  0
  148.8593  137.1733  180.3922 C   0  0  0  0  0  0  0  0  0  0  0  0
  150.0467  135.9254  180.1176 Cl  0  0  0  0  0  0  0  0  0  0  0  0
  155.0784  137.0318  186.2382 N   0  0  0  0  0  0  0  0  0  0  0  0
  156.0027  137.5952  186.2395 H   0  0  0  0  0  0  0  0  0  0  0  0
  154.4039  136.3685  188.4203 C   0  0  0  0  0  0  0  0  0  0  0  0
  154.2731  135.4230  189.4014 C   0  0  0  0  0  0  0  0  0  0  0  0
  154.6853  134.1227  189.2204 C   0  0  0  0  0  0  0  0  0  0  0  0
  155.2475  133.7602  188.0154 C   0  0  0  0  0  0  0  0  0  0  0  0
  155.3823  134.7123  187.0204 C   0  0  0  0  0  0  0  0  0  0  0  0
  154.9736  136.0091  187.1935 C   0  0  0  0  0  0  0  0  0  0  0  0
  154.5241  133.1555  190.2698 N   0  0  0  0  0  0  0  0  0  0  0  0
  154.0114  133.6076  191.5225 C   0  0  0  0  0  0  0  0  0  0  0  0
  153.8478  132.5605  192.5663 C   0  0  0  0  0  0  0  0  0  0  0  0
  153.7580  131.2258  192.0653 N   0  0  0  0  0  0  0  0  0  0  0  0
  152.5415  130.9431  191.3553 C   0  0  0  0  0  0  0  0  0  0  0  0
  154.9398  130.9420  191.2787 C   0  0  0  0  0  0  0  0  0  0  0  0
  154.8775  131.7783  190.0366 C   0  0  0  0  0  0  0  0  0  0  0  0
  154.6101  138.5084  189.5906 C   0  0  0  0  0  0  0  0  0  0  0  0
  153.9688  137.6740  188.6561 O   0  0  0  0  0  0  0  0  0  0  0  0
 36 37  1  0  0  0
 37 23  1  0  0  0
 23 24  2  0  0  0
 24 25  1  0  0  0
 25 26  2  0  0  0
 26 27  1  0  0  0
 27 28  2  0  0  0
 28 21  1  0  0  0
 21  1  1  0  0  0
  1  2  2  0  0  0
  2  3  1  0  0  0
  3  4  2  0  0  0
  4  5  1  0  0  0
  5  6  2  0  0  0
  6 13  1  0  0  0
 13 14  2  0  0  0
 14 15  1  0  0  0
 14 16  1  0  0  0
 16 17  2  0  0  0
 17 18  1  0  0  0
 18 19  2  0  0  0
 19 20  1  0  0  0
  6  7  1  0  0  0
  7  8  2  0  0  0
  7  9  1  0  0  0
  9 10  1  0  0  0
  9 11  1  0  0  0
 11 12  2  0  0  0
 25 29  1  0  0  0
 29 30  1  0  0  0
 30 31  1  0  0  0
 31 32  1  0  0  0
 32 33  1  0  0  0
 32 34  1  0  0  0
 34 35  1  0  0  0
 28 23  1  0  0  0
 12  1  1  0  0  0
 35 29  1  0  0  0
 11  4  1  0  0  0
 19 13  1  0  0  0
 21 22  1  0  0  0
M  END
> <minimizedAffinity>
-4.51005

> <CNNscore>
0.2105982304

> <CNNaffinity>
5.8637914658

> <CNN_VS>
1.2349040508

> <CNNaffinity_variance>
0.1730719358

$$$$
[H]c1c([H])c(Cl)c(-c2c([H])c3c([H])nc(N([H])c4c([H])c([H])c(N5C([H])([H])C([H])([H])N(C([H])([H])[H])C([H])([H])C5([H])[H])c([H])c4OC([H])([H])[H])nc3n(C([H])([H])[H])c2=O)c(Cl)c1[H]


 37 41  0  0  0  0  0  0  0  0999 V2000
  152.6024  136.9150  184.6834 C   0  0  0  0  0  0  0  0  0  0  0  0
  152.1534  137.4630  183.5617 N   0  0  0  0  0  0  0  0  0  0  0  0
  152.7330  138.4822  182.9104 C   0  0  0  0  0  0  0  0  0  0  0  0
  153.9079  139.0389  183.4255 C   0  0  0  0  0  0  0  0  0  0  0  0
  154.5246  140.0823  182.7907 C   0  0  0  0  0  0  0  0  0  0  0  0
  155.6782  140.6066  183.3316 C   0  0  0  0  0  0  0  0  0  0  0  0
  156.1564  140.0457  184.4971 C   0  0  0  0  0  0  0  0  0  0  0  0
  157.2287  140.5435  184.9861 O   0  0  0  0  0  0  0  0  0  0  0  0
  155.5255  139.0303  185.0832 N   0  0  0  0  0  0  0  0  0  0  0  0
  156.0754  138.4828  186.3011 C   0  0  0  0  0  0  0  0  0  0  0  0
  154.3868  138.4927  184.5750 C   0  0  0  0  0  0  0  0  0  0  0  0
  153.7599  137.4787  185.1714 N   0  0  0  0  0  0  0  0  0  0  0  0
  156.3969  141.7182  182.7283 C   0  0  0  0  0  0  0  0  0  0  0  0
  156.0031  143.0329  182.8203 C   0  0  0  0  0  0  0  0  0  0  0  0
  154.5446  143.3957  183.7169 Cl  0  0  0  0  0  0  0  0  0  0  0  0
  156.7455  144.0556  182.2137 C   0  0  0  0  0  0  0  0  0  0  0  0
  157.8931  143.7627  181.5087 C   0  0  0  0  0  0  0  0  0  0  0  0
  158.2809  142.4462  181.4209 C   0  0  0  0  0  0  0  0  0  0  0  0
  157.5439  141.4387  182.0217 C   0  0  0  0  0  0  0  0  0  0  0  0
  158.0932  139.7900  181.8711 Cl  0  0  0  0  0  0  0  0  0  0  0  0
  152.0138  135.8434  185.4048 N   0  0  0  0  0  0  0  0  0  0  0  0
  151.5786  135.0616  184.7955 H   0  0  0  0  0  0  0  0  0  0  0  0
  150.6823  135.9687  187.3715 C   0  0  0  0  0  0  0  0  0  0  0  0
  150.5205  135.8269  188.7233 C   0  0  0  0  0  0  0  0  0  0  0  0
  151.5424  135.3980  189.5388 C   0  0  0  0  0  0  0  0  0  0  0  0
  152.7666  135.1025  188.9790 C   0  0  0  0  0  0  0  0  0  0  0  0
  152.9356  135.2445  187.6130 C   0  0  0  0  0  0  0  0  0  0  0  0
  151.9221  135.6707  186.7945 C   0  0  0  0  0  0  0  0  0  0  0  0
  151.3331  135.2528  190.9522 N   0  0  0  0  0  0  0  0  0  0  0  0
  152.2486  134.4380  191.6833 C   0  0  0  0  0  0  0  0  0  0  0  0
  151.9949  134.3381  193.1456 C   0  0  0  0  0  0  0  0  0  0  0  0
  151.2117  135.4013  193.6904 N   0  0  0  0  0  0  0  0  0  0  0  0
  151.8836  136.6705  193.7254 C   0  0  0  0  0  0  0  0  0  0  0  0
  149.9489  135.4597  192.9849 C   0  0  0  0  0  0  0  0  0  0  0  0
  150.2246  135.9206  191.5857 C   0  0  0  0  0  0  0  0  0  0  0  0
  148.3490  135.7895  186.6538 C   0  0  0  0  0  0  0  0  0  0  0  0
  149.6120  136.4072  186.5895 O   0  0  0  0  0  0  0  0  0  0  0  0
 36 37  1  0  0  0
 37 23  1  0  0  0
 23 24  2  0  0  0
 24 25  1  0  0  0
 25 26  2  0  0  0
 26 27  1  0  0  0
 27 28  2  0  0  0
 28 21  1  0  0  0
 21  1  1  0  0  0
  1  2  2  0  0  0
  2  3  1  0  0  0
  3  4  2  0  0  0
  4  5  1  0  0  0
  5  6  2  0  0  0
  6 13  1  0  0  0
 13 14  2  0  0  0
 14 15  1  0  0  0
 14 16  1  0  0  0
 16 17  2  0  0  0
 17 18  1  0  0  0
 18 19  2  0  0  0
 19 20  1  0  0  0
  6  7  1  0  0  0
  7  8  2  0  0  0
  7  9  1  0  0  0
  9 10  1  0  0  0
  9 11  1  0  0  0
 11 12  2  0  0  0
 25 29  1  0  0  0
 29 30  1  0  0  0
 30 31  1  0  0  0
 31 32  1  0  0  0
 32 33  1  0  0  0
 32 34  1  0  0  0
 34 35  1  0  0  0
 28 23  1  0  0  0
 12  1  1  0  0  0
 35 29  1  0  0  0
 11  4  1  0  0  0
 19 13  1  0  0  0
 21 22  1  0  0  0
M  END
> <minimizedAffinity>
-7.69791

> <CNNscore>
0.1996808946

> <CNNaffinity>
6.2133111954

> <CNN_VS>
1.2406795025

> <CNNaffinity_variance>
0.1400663704

$$$$
[H]c1c([H])c(Cl)c(-c2c([H])c3c([H])nc(N([H])c4c([H])c([H])c(N5C([H])([H])C([H])([H])N(C([H])([H])[H])C([H])([H])C5([H])[H])c([H])c4OC([H])([H])[H])nc3n(C([H])([H])[H])c2=O)c(Cl)c1[H]


 37 41  0  0  0  0  0  0  0  0999 V2000
  152.8811  137.5703  186.2564 C   0  0  0  0  0  0  0  0  0  0  0  0
  151.7566  136.9068  186.4913 N   0  0  0  0  0  0  0  0  0  0  0  0
  151.4268  136.3272  187.6551 C   0  0  0  0  0  0  0  0  0  0  0  0
  152.3158  136.4079  188.7316 C   0  0  0  0  0  0  0  0  0  0  0  0
  152.0151  135.8251  189.9324 C   0  0  0  0  0  0  0  0  0  0  0  0
  152.9185  135.9227  190.9681 C   0  0  0  0  0  0  0  0  0  0  0  0
  154.0912  136.6106  190.7377 C   0  0  0  0  0  0  0  0  0  0  0  0
  154.9193  136.6926  191.7095 O   0  0  0  0  0  0  0  0  0  0  0  0
  154.3452  137.1635  189.5534 N   0  0  0  0  0  0  0  0  0  0  0  0
  155.5895  137.8735  189.3725 C   0  0  0  0  0  0  0  0  0  0  0  0
  153.4753  137.0838  188.5137 C   0  0  0  0  0  0  0  0  0  0  0  0
  153.7403  137.6372  187.3303 N   0  0  0  0  0  0  0  0  0  0  0  0
  152.6849  135.3301  192.2760 C   0  0  0  0  0  0  0  0  0  0  0  0
  152.9566  134.0185  192.5887 C   0  0  0  0  0  0  0  0  0  0  0  0
  153.6235  132.9936  191.3367 Cl  0  0  0  0  0  0  0  0  0  0  0  0
  152.7070  133.5133  193.8723 C   0  0  0  0  0  0  0  0  0  0  0  0
  152.1813  134.3260  194.8536 C   0  0  0  0  0  0  0  0  0  0  0  0
  151.9122  135.6362  194.5337 C   0  0  0  0  0  0  0  0  0  0  0  0
  152.1601  136.1311  193.2638 C   0  0  0  0  0  0  0  0  0  0  0  0
  151.7957  137.8032  192.9264 Cl  0  0  0  0  0  0  0  0  0  0  0  0
  153.2686  138.1888  185.0388 N   0  0  0  0  0  0  0  0  0  0  0  0
  152.5552  138.1003  184.2295 H   0  0  0  0  0  0  0  0  0  0  0  0
  154.3942  139.7678  183.6617 C   0  0  0  0  0  0  0  0  0  0  0  0
  155.5097  140.4841  183.3207 C   0  0  0  0  0  0  0  0  0  0  0  0
  156.6903  140.3708  184.0183 C   0  0  0  0  0  0  0  0  0  0  0  0
  156.7531  139.5101  185.0928 C   0  0  0  0  0  0  0  0  0  0  0  0
  155.6284  138.7833  185.4416 C   0  0  0  0  0  0  0  0  0  0  0  0
  154.4490  138.8914  184.7516 C   0  0  0  0  0  0  0  0  0  0  0  0
  157.8381  141.1451  183.6366 N   0  0  0  0  0  0  0  0  0  0  0  0
  157.6349  142.5134  183.2859 C   0  0  0  0  0  0  0  0  0  0  0  0
  158.8602  143.2719  182.9171 C   0  0  0  0  0  0  0  0  0  0  0  0
  160.0797  142.7127  183.4076 N   0  0  0  0  0  0  0  0  0  0  0  0
  160.2445  142.8144  184.8310 C   0  0  0  0  0  0  0  0  0  0  0  0
  160.1939  141.3506  182.9304 C   0  0  0  0  0  0  0  0  0  0  0  0
  159.1423  140.5329  183.6172 C   0  0  0  0  0  0  0  0  0  0  0  0
  153.1858  140.6959  181.7461 C   0  0  0  0  0  0  0  0  0  0  0  0
  153.2212  139.9206  182.9202 O   0  0  0  0  0  0  0  0  0  0  0  0
 36 37  1  0  0  0
 37 23  1  0  0  0
 23 24  2  0  0  0
 24 25  1  0  0  0
 25 26  2  0  0  0
 26 27  1  0  0  0
 27 28  2  0  0  0
 28 21  1  0  0  0
 21  1  1  0  0  0
  1  2  2  0  0  0
  2  3  1  0  0  0
  3  4  2  0  0  0
  4  5  1  0  0  0
  5  6  2  0  0  0
  6 13  1  0  0  0
 13 14  2  0  0  0
 14 15  1  0  0  0
 14 16  1  0  0  0
 16 17  2  0  0  0
 17 18  1  0  0  0
 18 19  2  0  0  0
 19 20  1  0  0  0
  6  7  1  0  0  0
  7  8  2  0  0  0
  7  9  1  0  0  0
  9 10  1  0  0  0
  9 11  1  0  0  0
 11 12  2  0  0  0
 25 29  1  0  0  0
 29 30  1  0  0  0
 30 31  1  0  0  0
 31 32  1  0  0  0
 32 33  1  0  0  0
 32 34  1  0  0  0
 34 35  1  0  0  0
 28 23  1  0  0  0
 12  1  1  0  0  0
 35 29  1  0  0  0
 11  4  1  0  0  0
 19 13  1  0  0  0
 21 22  1  0  0  0
M  END
> <minimizedAffinity>
-8.54257

> <CNNscore>
0.1981042176

> <CNNaffinity>
6.4723815918

> <CNN_VS>
1.2822060585

> <CNNaffinity_variance>
0.0618779734

$$$$
[H]c1c([H])c(Cl)c(-c2c([H])c3c([H])nc(N([H])c4c([H])c([H])c(N5C([H])([H])C([H])([H])N(C([H])([H])[H])C([H])([H])C5([H])[H])c([H])c4[H])nc3n(C([H])([H])[H])c2=O)c(Cl)c1[H]


 35 39  0  0  0  0  0  0  0  0999 V2000
  152.5636  137.1480  184.8368 C   0  0  0  0  0  0  0  0  0  0  0  0
  152.1374  137.7269  183.6660 N   0  0  0  0  0  0  0  0  0  0  0  0
  152.8268  138.6671  183.0205 C   0  0  0  0  0  0  0  0  0  0  0  0
  154.0210  139.1133  183.5021 C   0  0  0  0  0  0  0  0  0  0  0  0
  154.7664  140.0947  182.8529 C   0  0  0  0  0  0  0  0  0  0  0  0
  155.9693  140.5194  183.3724 C   0  0  0  0  0  0  0  0  0  0  0  0
  156.3752  139.9252  184.5451 C   0  0  0  0  0  0  0  0  0  0  0  0
  157.4731  140.2987  185.0381 O   0  0  0  0  0  0  0  0  0  0  0  0
  155.6532  138.9783  185.1689 N   0  0  0  0  0  0  0  0  0  0  0  0
  156.1102  138.3642  186.4143 C   0  0  0  0  0  0  0  0  0  0  0  0
  154.4730  138.5480  184.6777 C   0  0  0  0  0  0  0  0  0  0  0  0
  153.7360  137.6121  185.2742 N   0  0  0  0  0  0  0  0  0  0  0  0
  156.7371  141.5475  182.6813 C   0  0  0  0  0  0  0  0  0  0  0  0
  156.3155  142.8598  182.7160 C   0  0  0  0  0  0  0  0  0  0  0  0
  154.8666  143.3365  183.5762 Cl  0  0  0  0  0  0  0  0  0  0  0  0
  157.0271  143.8590  182.0668 C   0  0  0  0  0  0  0  0  0  0  0  0
  158.1902  143.5661  181.3596 C   0  0  0  0  0  0  0  0  0  0  0  0
  158.6128  142.2490  181.3251 C   0  0  0  0  0  0  0  0  0  0  0  0
  157.8863  141.2804  181.9784 C   0  0  0  0  0  0  0  0  0  0  0  0
  158.4604  139.6302  181.9060 Cl  0  0  0  0  0  0  0  0  0  0  0  0
  151.7634  136.1666  185.4629 N   0  0  0  0  0  0  0  0  0  0  0  0
  150.7878  136.0596  185.0373 H   0  0  0  0  0  0  0  0  0  0  0  0
  152.9135  133.5638  188.6150 C   0  0  0  0  0  0  0  0  0  0  0  0
  153.4577  133.5033  187.3523 C   0  0  0  0  0  0  0  0  0  0  0  0
  153.0726  134.3507  186.3388 C   0  0  0  0  0  0  0  0  0  0  0  0
  152.0908  135.3338  186.5455 C   0  0  0  0  0  0  0  0  0  0  0  0
  151.5613  135.3789  187.8083 C   0  0  0  0  0  0  0  0  0  0  0  0
  151.9569  134.5123  188.8398 C   0  0  0  0  0  0  0  0  0  0  0  0
  153.7766  130.8721  193.0402 C   0  0  0  0  0  0  0  0  0  0  0  0
  154.2981  130.8918  191.6740 N   0  0  0  0  0  0  0  0  0  0  0  0
  154.8038  132.2323  191.4519 C   0  0  0  0  0  0  0  0  0  0  0  0
  153.6613  133.1190  190.9992 C   0  0  0  0  0  0  0  0  0  0  0  0
  153.2922  132.7014  189.6631 N   0  0  0  0  0  0  0  0  0  0  0  0
  153.3325  131.2492  189.4471 C   0  0  0  0  0  0  0  0  0  0  0  0
  153.2043  130.5702  190.7932 C   0  0  0  0  0  0  0  0  0  0  0  0
 29 30  1  0  0  0
 30 31  1  0  0  0
 31 32  1  0  0  0
 32 33  1  0  0  0
 33 34  1  0  0  0
 34 35  1  0  0  0
 33 23  1  0  0  0
 23 24  2  0  0  0
 24 25  1  0  0  0
 25 26  2  0  0  0
 26 21  1  0  0  0
 21  1  1  0  0  0
  1  2  2  0  0  0
  2  3  1  0  0  0
  3  4  2  0  0  0
  4  5  1  0  0  0
  5  6  2  0  0  0
  6 13  1  0  0  0
 13 14  2  0  0  0
 14 15  1  0  0  0
 14 16  1  0  0  0
 16 17  2  0  0  0
 17 18  1  0  0  0
 18 19  2  0  0  0
 19 20  1  0  0  0
  6  7  1  0  0  0
  7  8  2  0  0  0
  7  9  1  0  0  0
  9 10  1  0  0  0
  9 11  1  0  0  0
 11 12  2  0  0  0
 26 27  1  0  0  0
 27 28  2  0  0  0
 35 30  1  0  0  0
 28 23  1  0  0  0
 12  1  1  0  0  0
 11  4  1  0  0  0
 19 13  1  0  0  0
 21 22  1  0  0  0
M  END
> <minimizedAffinity>
-6.69492

> <CNNscore>
0.3153697848

> <CNNaffinity>
6.1314649582

> <CNN_VS>
1.9336787462

> <CNNaffinity_variance>
0.1516762078

$$$$
[H]c1c([H])c(Cl)c(-c2c([H])c3c([H])nc(N([H])c4c([H])c([H])c(N5C([H])([H])C([H])([H])N(C([H])([H])[H])C([H])([H])C5([H])[H])c([H])c4[H])nc3n(C([H])([H])[H])c2=O)c(Cl)c1[H]


 35 39  0  0  0  0  0  0  0  0999 V2000
  154.3571  138.8380  184.2609 C   0  0  0  0  0  0  0  0  0  0  0  0
  155.6171  139.2190  184.6545 N   0  0  0  0  0  0  0  0  0  0  0  0
  156.1962  138.7879  185.7746 C   0  0  0  0  0  0  0  0  0  0  0  0
  155.5505  137.9244  186.6080 C   0  0  0  0  0  0  0  0  0  0  0  0
  156.1265  137.4550  187.7862 C   0  0  0  0  0  0  0  0  0  0  0  0
  155.4408  136.5828  188.6026 C   0  0  0  0  0  0  0  0  0  0  0  0
  154.1813  136.2156  188.1875 C   0  0  0  0  0  0  0  0  0  0  0  0
  153.5360  135.4182  188.9194 O   0  0  0  0  0  0  0  0  0  0  0  0
  153.6286  136.6707  187.0498 N   0  0  0  0  0  0  0  0  0  0  0  0
  152.2879  136.2626  186.6340 C   0  0  0  0  0  0  0  0  0  0  0  0
  154.2824  137.5250  186.2362 C   0  0  0  0  0  0  0  0  0  0  0  0
  153.7597  137.9927  185.1035 N   0  0  0  0  0  0  0  0  0  0  0  0
  156.0571  136.1012  189.8322 C   0  0  0  0  0  0  0  0  0  0  0  0
  155.9681  136.8519  190.9854 C   0  0  0  0  0  0  0  0  0  0  0  0
  155.1261  138.3869  191.0191 Cl  0  0  0  0  0  0  0  0  0  0  0  0
  156.5456  136.4175  192.1702 C   0  0  0  0  0  0  0  0  0  0  0  0
  157.2337  135.2084  192.2305 C   0  0  0  0  0  0  0  0  0  0  0  0
  157.3228  134.4556  191.0731 C   0  0  0  0  0  0  0  0  0  0  0  0
  156.7399  134.9124  189.9136 C   0  0  0  0  0  0  0  0  0  0  0  0
  156.8793  133.9255  188.4767 Cl  0  0  0  0  0  0  0  0  0  0  0  0
  153.8131  139.3539  183.0637 N   0  0  0  0  0  0  0  0  0  0  0  0
  154.3420  140.1958  182.6689 H   0  0  0  0  0  0  0  0  0  0  0  0
  150.4663  138.1384  180.7496 C   0  0  0  0  0  0  0  0  0  0  0  0
  151.2103  139.2609  180.4655 C   0  0  0  0  0  0  0  0  0  0  0  0
  152.2903  139.6454  181.2266 C   0  0  0  0  0  0  0  0  0  0  0  0
  152.6932  138.9006  182.3474 C   0  0  0  0  0  0  0  0  0  0  0  0
  151.9410  137.7869  182.6139 C   0  0  0  0  0  0  0  0  0  0  0  0
  150.8395  137.3980  181.8349 C   0  0  0  0  0  0  0  0  0  0  0  0
  146.8392  136.8585  177.1749 C   0  0  0  0  0  0  0  0  0  0  0  0
  146.9243  136.9636  178.6311 N   0  0  0  0  0  0  0  0  0  0  0  0
  147.3040  138.3331  178.9177 C   0  0  0  0  0  0  0  0  0  0  0  0
  148.8134  138.4487  178.8488 C   0  0  0  0  0  0  0  0  0  0  0  0
  149.3548  137.7325  179.9844 N   0  0  0  0  0  0  0  0  0  0  0  0
  148.6462  136.4886  180.3130 C   0  0  0  0  0  0  0  0  0  0  0  0
  147.9197  136.0197  179.0713 C   0  0  0  0  0  0  0  0  0  0  0  0
 29 30  1  0  0  0
 30 31  1  0  0  0
 31 32  1  0  0  0
 32 33  1  0  0  0
 33 34  1  0  0  0
 34 35  1  0  0  0
 33 23  1  0  0  0
 23 24  2  0  0  0
 24 25  1  0  0  0
 25 26  2  0  0  0
 26 21  1  0  0  0
 21  1  1  0  0  0
  1  2  2  0  0  0
  2  3  1  0  0  0
  3  4  2  0  0  0
  4  5  1  0  0  0
  5  6  2  0  0  0
  6 13  1  0  0  0
 13 14  2  0  0  0
 14 15  1  0  0  0
 14 16  1  0  0  0
 16 17  2  0  0  0
 17 18  1  0  0  0
 18 19  2  0  0  0
 19 20  1  0  0  0
  6  7  1  0  0  0
  7  8  2  0  0  0
  7  9  1  0  0  0
  9 10  1  0  0  0
  9 11  1  0  0  0
 11 12  2  0  0  0
 26 27  1  0  0  0
 27 28  2  0  0  0
 35 30  1  0  0  0
 28 23  1  0  0  0
 12  1  1  0  0  0
 11  4  1  0  0  0
 19 13  1  0  0  0
 21 22  1  0  0  0
M  END
> <minimizedAffinity>
-7.23739

> <CNNscore>
0.3009493351

> <CNNaffinity>
5.8500285149

> <CNN_VS>
1.7605621815

> <CNNaffinity_variance>
0.1102990881

$$$$
[H]c1c([H])c(Cl)c(-c2c([H])c3c([H])nc(N([H])c4c([H])c([H])c(N5C([H])([H])C([H])([H])N(C([H])([H])[H])C([H])([H])C5([H])[H])c([H])c4[H])nc3n(C([H])([H])[H])c2=O)c(Cl)c1[H]


 35 39  0  0  0  0  0  0  0  0999 V2000
  152.6445  137.1345  185.0043 C   0  0  0  0  0  0  0  0  0  0  0  0
  152.1980  137.6583  183.8152 N   0  0  0  0  0  0  0  0  0  0  0  0
  152.8666  138.5811  183.1244 C   0  0  0  0  0  0  0  0  0  0  0  0
  154.0586  139.0644  183.5747 C   0  0  0  0  0  0  0  0  0  0  0  0
  154.7825  140.0291  182.8780 C   0  0  0  0  0  0  0  0  0  0  0  0
  155.9839  140.4926  183.3669 C   0  0  0  0  0  0  0  0  0  0  0  0
  156.4104  139.9533  184.5588 C   0  0  0  0  0  0  0  0  0  0  0  0
  157.5072  140.3630  185.0245 O   0  0  0  0  0  0  0  0  0  0  0  0
  155.7090  139.0224  185.2285 N   0  0  0  0  0  0  0  0  0  0  0  0
  156.1875  138.4670  186.4932 C   0  0  0  0  0  0  0  0  0  0  0  0
  154.5307  138.5548  184.7678 C   0  0  0  0  0  0  0  0  0  0  0  0
  153.8140  137.6335  185.4099 N   0  0  0  0  0  0  0  0  0  0  0  0
  156.7291  141.5025  182.6262 C   0  0  0  0  0  0  0  0  0  0  0  0
  156.3127  142.8168  182.6472 C   0  0  0  0  0  0  0  0  0  0  0  0
  154.8971  143.3175  183.5483 Cl  0  0  0  0  0  0  0  0  0  0  0  0
  157.0032  143.7990  181.9510 C   0  0  0  0  0  0  0  0  0  0  0  0
  158.1393  143.4865  181.2089 C   0  0  0  0  0  0  0  0  0  0  0  0
  158.5566  142.1675  181.1882 C   0  0  0  0  0  0  0  0  0  0  0  0
  157.8515  141.2161  181.8884 C   0  0  0  0  0  0  0  0  0  0  0  0
  158.4180  139.5626  181.8318 Cl  0  0  0  0  0  0  0  0  0  0  0  0
  151.8655  136.1680  185.6785 N   0  0  0  0  0  0  0  0  0  0  0  0
  151.4274  135.4327  185.0368 H   0  0  0  0  0  0  0  0  0  0  0  0
  150.9023  135.7419  189.7924 C   0  0  0  0  0  0  0  0  0  0  0  0
  150.0233  135.4379  188.7780 C   0  0  0  0  0  0  0  0  0  0  0  0
  150.3473  135.5847  187.4487 C   0  0  0  0  0  0  0  0  0  0  0  0
  151.6097  136.0588  187.0552 C   0  0  0  0  0  0  0  0  0  0  0  0
  152.4710  136.3554  188.0786 C   0  0  0  0  0  0  0  0  0  0  0  0
  152.1364  136.2044  189.4338 C   0  0  0  0  0  0  0  0  0  0  0  0
  150.2209  134.4520  194.8366 C   0  0  0  0  0  0  0  0  0  0  0  0
  149.7136  135.4596  193.9059 N   0  0  0  0  0  0  0  0  0  0  0  0
  149.1005  134.7305  192.8130 C   0  0  0  0  0  0  0  0  0  0  0  0
  150.1698  134.3734  191.8003 C   0  0  0  0  0  0  0  0  0  0  0  0
  150.5860  135.6024  191.1584 N   0  0  0  0  0  0  0  0  0  0  0  0
  150.6689  136.7604  192.0581 C   0  0  0  0  0  0  0  0  0  0  0  0
  150.8393  136.2465  193.4710 C   0  0  0  0  0  0  0  0  0  0  0  0
 29 30  1  0  0  0
 30 31  1  0  0  0
 31 32  1  0  0  0
 32 33  1  0  0  0
 33 34  1  0  0  0
 34 35  1  0  0  0
 33 23  1  0  0  0
 23 24  2  0  0  0
 24 25  1  0  0  0
 25 26  2  0  0  0
 26 21  1  0  0  0
 21  1  1  0  0  0
  1  2  2  0  0  0
  2  3  1  0  0  0
  3  4  2  0  0  0
  4  5  1  0  0  0
  5  6  2  0  0  0
  6 13  1  0  0  0
 13 14  2  0  0  0
 14 15  1  0  0  0
 14 16  1  0  0  0
 16 17  2  0  0  0
 17 18  1  0  0  0
 18 19  2  0  0  0
 19 20  1  0  0  0
  6  7  1  0  0  0
  7  8  2  0  0  0
  7  9  1  0  0  0
  9 10  1  0  0  0
  9 11  1  0  0  0
 11 12  2  0  0  0
 26 27  1  0  0  0
 27 28  2  0  0  0
 35 30  1  0  0  0
 28 23  1  0  0  0
 12  1  1  0  0  0
 11  4  1  0  0  0
 19 13  1  0  0  0
 21 22  1  0  0  0
M  END
> <minimizedAffinity>
-8.58628

> <CNNscore>
0.2873249650

> <CNNaffinity>
6.1554765701

> <CNN_VS>
1.7686220407

> <CNNaffinity_variance>
0.1097885147

$$$$
[H]c1c([H])c(Cl)c(-c2c([H])c3c([H])nc(N([H])c4c([H])c([H])c(N5C([H])([H])C([H])([H])N(C([H])([H])[H])C([H])([H])C5([H])[H])c([H])c4[H])nc3n(C([H])([H])[H])c2=O)c(Cl)c1[H]


 35 39  0  0  0  0  0  0  0  0999 V2000
  152.6459  137.1131  185.0280 C   0  0  0  0  0  0  0  0  0  0  0  0
  152.1924  137.6334  183.8400 N   0  0  0  0  0  0  0  0  0  0  0  0
  152.8531  138.5599  183.1465 C   0  0  0  0  0  0  0  0  0  0  0  0
  154.0434  139.0509  183.5928 C   0  0  0  0  0  0  0  0  0  0  0  0
  154.7592  140.0196  182.8932 C   0  0  0  0  0  0  0  0  0  0  0  0
  155.9593  140.4909  183.3781 C   0  0  0  0  0  0  0  0  0  0  0  0
  156.3928  139.9549  184.5689 C   0  0  0  0  0  0  0  0  0  0  0  0
  157.4886  140.3717  185.0308 O   0  0  0  0  0  0  0  0  0  0  0  0
  155.6993  139.0201  185.2414 N   0  0  0  0  0  0  0  0  0  0  0  0
  156.1853  138.4684  186.5049 C   0  0  0  0  0  0  0  0  0  0  0  0
  154.5225  138.5450  184.7847 C   0  0  0  0  0  0  0  0  0  0  0  0
  153.8135  137.6196  185.4296 N   0  0  0  0  0  0  0  0  0  0  0  0
  156.6959  141.5049  182.6344 C   0  0  0  0  0  0  0  0  0  0  0  0
  157.8187  141.1506  181.9168 C   0  0  0  0  0  0  0  0  0  0  0  0
  158.3954  139.4978  181.8705 Cl  0  0  0  0  0  0  0  0  0  0  0  0
  158.5392  142.0956  181.1998 C   0  0  0  0  0  0  0  0  0  0  0  0
  158.1495  143.4323  181.1832 C   0  0  0  0  0  0  0  0  0  0  0  0
  157.0227  143.7871  181.9035 C   0  0  0  0  0  0  0  0  0  0  0  0
  156.3290  142.8280  182.6046 C   0  0  0  0  0  0  0  0  0  0  0  0
  154.9113  143.3252  183.4996 Cl  0  0  0  0  0  0  0  0  0  0  0  0
  151.8750  136.1422  185.7052 N   0  0  0  0  0  0  0  0  0  0  0  0
  151.4469  135.3986  185.0663 H   0  0  0  0  0  0  0  0  0  0  0  0
  150.9062  135.7232  189.8185 C   0  0  0  0  0  0  0  0  0  0  0  0
  150.0468  135.3706  188.8029 C   0  0  0  0  0  0  0  0  0  0  0  0
  150.3723  135.5157  187.4738 C   0  0  0  0  0  0  0  0  0  0  0  0
  151.6158  136.0382  187.0816 C   0  0  0  0  0  0  0  0  0  0  0  0
  152.4577  136.3828  188.1062 C   0  0  0  0  0  0  0  0  0  0  0  0
  152.1217  136.2335  189.4613 C   0  0  0  0  0  0  0  0  0  0  0  0
  150.2115  134.4390  194.8623 C   0  0  0  0  0  0  0  0  0  0  0  0
  149.7125  135.4503  193.9312 N   0  0  0  0  0  0  0  0  0  0  0  0
  149.0947  134.7258  192.8379 C   0  0  0  0  0  0  0  0  0  0  0  0
  150.1618  134.3605  191.8260 C   0  0  0  0  0  0  0  0  0  0  0  0
  150.5879  135.5862  191.1843 N   0  0  0  0  0  0  0  0  0  0  0  0
  150.6790  136.7437  192.0839 C   0  0  0  0  0  0  0  0  0  0  0  0
  150.8445  136.2286  193.4970 C   0  0  0  0  0  0  0  0  0  0  0  0
 29 30  1  0  0  0
 30 31  1  0  0  0
 31 32  1  0  0  0
 32 33  1  0  0  0
 33 34  1  0  0  0
 34 35  1  0  0  0
 33 23  1  0  0  0
 23 24  2  0  0  0
 24 25  1  0  0  0
 25 26  2  0  0  0
 26 21  1  0  0  0
 21  1  1  0  0  0
  1  2  2  0  0  0
  2  3  1  0  0  0
  3  4  2  0  0  0
  4  5  1  0  0  0
  5  6  2  0  0  0
  6 13  1  0  0  0
 13 14  2  0  0  0
 14 15  1  0  0  0
 14 16  1  0  0  0
 16 17  2  0  0  0
 17 18  1  0  0  0
 18 19  2  0  0  0
 19 20  1  0  0  0
  6  7  1  0  0  0
  7  8  2  0  0  0
  7  9  1  0  0  0
  9 10  1  0  0  0
  9 11  1  0  0  0
 11 12  2  0  0  0
 26 27  1  0  0  0
 27 28  2  0  0  0
 35 30  1  0  0  0
 28 23  1  0  0  0
 12  1  1  0  0  0
 11  4  1  0  0  0
 19 13  1  0  0  0
 21 22  1  0  0  0
M  END
> <minimizedAffinity>
-8.54803

> <CNNscore>
0.2822794020

> <CNNaffinity>
6.1485319138

> <CNN_VS>
1.7356039286

> <CNNaffinity_variance>
0.1087170392

$$$$
[H]c1c([H])c(Cl)c(-c2c([H])c3c([H])nc(N([H])c4c([H])c([H])c(N5C([H])([H])C([H])([H])N(C([H])([H])[H])C([H])([H])C5([H])[H])c([H])c4[H])nc3n(C([H])([H])[H])c2=O)c(Cl)c1[H]


 35 39  0  0  0  0  0  0  0  0999 V2000
  153.0116  137.6355  186.2757 C   0  0  0  0  0  0  0  0  0  0  0  0
  151.8165  137.0179  186.5553 N   0  0  0  0  0  0  0  0  0  0  0  0
  151.5240  136.4928  187.7446 C   0  0  0  0  0  0  0  0  0  0  0  0
  152.4194  136.5435  188.7707 C   0  0  0  0  0  0  0  0  0  0  0  0
  152.1459  136.0042  190.0256 C   0  0  0  0  0  0  0  0  0  0  0  0
  153.0780  136.0753  191.0372 C   0  0  0  0  0  0  0  0  0  0  0  0
  154.2667  136.6984  190.7337 C   0  0  0  0  0  0  0  0  0  0  0  0
  155.1338  136.7748  191.6447 O   0  0  0  0  0  0  0  0  0  0  0  0
  154.5271  137.2177  189.5214 N   0  0  0  0  0  0  0  0  0  0  0  0
  155.7997  137.8746  189.2279 C   0  0  0  0  0  0  0  0  0  0  0  0
  153.6289  137.1590  188.5170 C   0  0  0  0  0  0  0  0  0  0  0  0
  153.8595  137.6642  187.3060 N   0  0  0  0  0  0  0  0  0  0  0  0
  152.7768  135.5059  192.3445 C   0  0  0  0  0  0  0  0  0  0  0  0
  153.0024  134.1659  192.5788 C   0  0  0  0  0  0  0  0  0  0  0  0
  153.6483  133.1125  191.3380 Cl  0  0  0  0  0  0  0  0  0  0  0  0
  152.7245  133.5972  193.8140 C   0  0  0  0  0  0  0  0  0  0  0  0
  152.2086  134.3638  194.8557 C   0  0  0  0  0  0  0  0  0  0  0  0
  151.9825  135.7083  194.6199 C   0  0  0  0  0  0  0  0  0  0  0  0
  152.2678  136.2435  193.3851 C   0  0  0  0  0  0  0  0  0  0  0  0
  151.9651  137.9477  193.1354 Cl  0  0  0  0  0  0  0  0  0  0  0  0
  153.2446  138.1539  184.9826 N   0  0  0  0  0  0  0  0  0  0  0  0
  152.5486  137.8170  184.2432 H   0  0  0  0  0  0  0  0  0  0  0  0
  156.1370  140.9486  183.6198 C   0  0  0  0  0  0  0  0  0  0  0  0
  154.8194  140.9749  183.2231 C   0  0  0  0  0  0  0  0  0  0  0  0
  153.8934  140.0602  183.6696 C   0  0  0  0  0  0  0  0  0  0  0  0
  154.2518  139.0395  184.5656 C   0  0  0  0  0  0  0  0  0  0  0  0
  155.5671  139.0298  184.9494 C   0  0  0  0  0  0  0  0  0  0  0  0
  156.5090  139.9649  184.4912 C   0  0  0  0  0  0  0  0  0  0  0  0
  159.1735  145.0286  182.3139 C   0  0  0  0  0  0  0  0  0  0  0  0
  159.1331  143.5903  182.0520 N   0  0  0  0  0  0  0  0  0  0  0  0
  157.8508  143.3271  181.4290 C   0  0  0  0  0  0  0  0  0  0  0  0
  156.8097  143.1310  182.5126 C   0  0  0  0  0  0  0  0  0  0  0  0
  157.0996  141.8738  183.1692 N   0  0  0  0  0  0  0  0  0  0  0  0
  158.5308  141.6001  183.3540 C   0  0  0  0  0  0  0  0  0  0  0  0
  159.2697  142.9200  183.3199 C   0  0  0  0  0  0  0  0  0  0  0  0
 29 30  1  0  0  0
 30 31  1  0  0  0
 31 32  1  0  0  0
 32 33  1  0  0  0
 33 34  1  0  0  0
 34 35  1  0  0  0
 33 23  1  0  0  0
 23 24  2  0  0  0
 24 25  1  0  0  0
 25 26  2  0  0  0
 26 21  1  0  0  0
 21  1  1  0  0  0
  1  2  2  0  0  0
  2  3  1  0  0  0
  3  4  2  0  0  0
  4  5  1  0  0  0
  5  6  2  0  0  0
  6 13  1  0  0  0
 13 14  2  0  0  0
 14 15  1  0  0  0
 14 16  1  0  0  0
 16 17  2  0  0  0
 17 18  1  0  0  0
 18 19  2  0  0  0
 19 20  1  0  0  0
  6  7  1  0  0  0
  7  8  2  0  0  0
  7  9  1  0  0  0
  9 10  1  0  0  0
  9 11  1  0  0  0
 11 12  2  0  0  0
 26 27  1  0  0  0
 27 28  2  0  0  0
 35 30  1  0  0  0
 28 23  1  0  0  0
 12  1  1  0  0  0
 11  4  1  0  0  0
 19 13  1  0  0  0
 21 22  1  0  0  0
M  END
> <minimizedAffinity>
-8.81066

> <CNNscore>
0.2822510898

> <CNNaffinity>
6.3223161697

> <CNN_VS>
1.7844805717

> <CNNaffinity_variance>
0.0465821289

$$$$
[H]c1c([H])c(Cl)c(-c2c([H])c3c([H])nc(N([H])c4c([H])c([H])c(N5C([H])([H])C([H])([H])N(C([H])([H])[H])C([H])([H])C5([H])[H])c([H])c4[H])nc3n(C([H])([H])[H])c2=O)c(Cl)c1[H]


 35 39  0  0  0  0  0  0  0  0999 V2000
  151.9983  137.3389  183.8746 C   0  0  0  0  0  0  0  0  0  0  0  0
  151.7133  138.0087  182.7093 N   0  0  0  0  0  0  0  0  0  0  0  0
  152.4758  138.9865  182.2212 C   0  0  0  0  0  0  0  0  0  0  0  0
  153.6068  139.3817  182.8707 C   0  0  0  0  0  0  0  0  0  0  0  0
  154.4255  140.4003  182.3885 C   0  0  0  0  0  0  0  0  0  0  0  0
  155.5608  140.7711  183.0749 C   0  0  0  0  0  0  0  0  0  0  0  0
  155.8254  140.0861  184.2385 C   0  0  0  0  0  0  0  0  0  0  0  0
  156.8592  140.4091  184.8825 O   0  0  0  0  0  0  0  0  0  0  0  0
  155.0330  139.1036  184.7008 N   0  0  0  0  0  0  0  0  0  0  0  0
  155.3398  138.3929  185.9408 C   0  0  0  0  0  0  0  0  0  0  0  0
  153.9170  138.7249  184.0447 C   0  0  0  0  0  0  0  0  0  0  0  0
  153.1129  137.7555  184.4790 N   0  0  0  0  0  0  0  0  0  0  0  0
  156.4067  141.8390  182.5574 C   0  0  0  0  0  0  0  0  0  0  0  0
  156.0078  143.1531  182.6817 C   0  0  0  0  0  0  0  0  0  0  0  0
  154.4958  143.5848  183.4525 Cl  0  0  0  0  0  0  0  0  0  0  0  0
  156.7934  144.1898  182.1981 C   0  0  0  0  0  0  0  0  0  0  0  0
  158.0104  143.9342  181.5714 C   0  0  0  0  0  0  0  0  0  0  0  0
  158.4101  142.6154  181.4470 C   0  0  0  0  0  0  0  0  0  0  0  0
  157.6098  141.6091  181.9364 C   0  0  0  0  0  0  0  0  0  0  0  0
  158.1579  139.9583  181.7554 Cl  0  0  0  0  0  0  0  0  0  0  0  0
  151.1279  136.3227  184.3274 N   0  0  0  0  0  0  0  0  0  0  0  0
  150.6787  135.7490  183.5441 H   0  0  0  0  0  0  0  0  0  0  0  0
  150.3196  135.1998  188.3423 C   0  0  0  0  0  0  0  0  0  0  0  0
  151.4421  134.7923  187.6580 C   0  0  0  0  0  0  0  0  0  0  0  0
  151.6894  135.1606  186.3554 C   0  0  0  0  0  0  0  0  0  0  0  0
  150.7959  135.9827  185.6491 C   0  0  0  0  0  0  0  0  0  0  0  0
  149.6851  136.3784  186.3467 C   0  0  0  0  0  0  0  0  0  0  0  0
  149.4362  136.0003  187.6758 C   0  0  0  0  0  0  0  0  0  0  0  0
  149.6241  132.9927  193.0559 C   0  0  0  0  0  0  0  0  0  0  0  0
  149.3002  134.2609  192.4035 N   0  0  0  0  0  0  0  0  0  0  0  0
  148.4922  133.9275  191.2467 C   0  0  0  0  0  0  0  0  0  0  0  0
  149.4092  133.5966  190.0865 C   0  0  0  0  0  0  0  0  0  0  0  0
  150.0478  134.8287  189.6742 N   0  0  0  0  0  0  0  0  0  0  0  0
  150.4212  135.7198  190.7804 C   0  0  0  0  0  0  0  0  0  0  0  0
  150.5460  134.8839  192.0355 C   0  0  0  0  0  0  0  0  0  0  0  0
 29 30  1  0  0  0
 30 31  1  0  0  0
 31 32  1  0  0  0
 32 33  1  0  0  0
 33 34  1  0  0  0
 34 35  1  0  0  0
 33 23  1  0  0  0
 23 24  2  0  0  0
 24 25  1  0  0  0
 25 26  2  0  0  0
 26 21  1  0  0  0
 21  1  1  0  0  0
  1  2  2  0  0  0
  2  3  1  0  0  0
  3  4  2  0  0  0
  4  5  1  0  0  0
  5  6  2  0  0  0
  6 13  1  0  0  0
 13 14  2  0  0  0
 14 15  1  0  0  0
 14 16  1  0  0  0
 16 17  2  0  0  0
 17 18  1  0  0  0
 18 19  2  0  0  0
 19 20  1  0  0  0
  6  7  1  0  0  0
  7  8  2  0  0  0
  7  9  1  0  0  0
  9 10  1  0  0  0
  9 11  1  0  0  0
 11 12  2  0  0  0
 26 27  1  0  0  0
 27 28  2  0  0  0
 35 30  1  0  0  0
 28 23  1  0  0  0
 12  1  1  0  0  0
 11  4  1  0  0  0
 19 13  1  0  0  0
 21 22  1  0  0  0
M  END
> <minimizedAffinity>
-7.52680

> <CNNscore>
0.2586956918

> <CNNaffinity>
5.9823484421

> <CNN_VS>
1.5476077795

> <CNNaffinity_variance>
0.1305679083

$$$$
[H]c1c([H])c(Cl)c(-c2c([H])c3c([H])nc(N([H])c4c([H])c([H])c(N5C([H])([H])C([H])([H])N(C([H])([H])[H])C([H])([H])C5([H])[H])c([H])c4[H])nc3n(C([H])([H])[H])c2=O)c(Cl)c1[H]


 35 39  0  0  0  0  0  0  0  0999 V2000
  153.7153  141.0734  181.8139 C   0  0  0  0  0  0  0  0  0  0  0  0
  153.7469  141.2260  183.1790 N   0  0  0  0  0  0  0  0  0  0  0  0
  154.8485  141.5516  183.8543 C   0  0  0  0  0  0  0  0  0  0  0  0
  156.0307  141.7552  183.2076 C   0  0  0  0  0  0  0  0  0  0  0  0
  157.2003  142.0959  183.8829 C   0  0  0  0  0  0  0  0  0  0  0  0
  158.3760  142.2929  183.1927 C   0  0  0  0  0  0  0  0  0  0  0  0
  158.3197  142.1348  181.8271 C   0  0  0  0  0  0  0  0  0  0  0  0
  159.3839  142.3104  181.1757 O   0  0  0  0  0  0  0  0  0  0  0  0
  157.1889  141.8059  181.1787 N   0  0  0  0  0  0  0  0  0  0  0  0
  157.1592  141.6450  179.7261 C   0  0  0  0  0  0  0  0  0  0  0  0
  156.0272  141.6084  181.8349 C   0  0  0  0  0  0  0  0  0  0  0  0
  154.8919  141.2814  181.2191 N   0  0  0  0  0  0  0  0  0  0  0  0
  159.5914  142.6485  183.9140 C   0  0  0  0  0  0  0  0  0  0  0  0
  160.3266  141.6686  184.5469 C   0  0  0  0  0  0  0  0  0  0  0  0
  159.8389  139.9871  184.5107 Cl  0  0  0  0  0  0  0  0  0  0  0  0
  161.4877  141.9789  185.2409 C   0  0  0  0  0  0  0  0  0  0  0  0
  161.9462  143.2913  185.3194 C   0  0  0  0  0  0  0  0  0  0  0  0
  161.2081  144.2742  184.6841 C   0  0  0  0  0  0  0  0  0  0  0  0
  160.0612  143.9359  184.0038 C   0  0  0  0  0  0  0  0  0  0  0  0
  159.1624  145.2131  183.2170 Cl  0  0  0  0  0  0  0  0  0  0  0  0
  152.5061  140.7135  181.1786 N   0  0  0  0  0  0  0  0  0  0  0  0
  152.0607  141.4998  180.6061 H   0  0  0  0  0  0  0  0  0  0  0  0
  150.3380  137.0624  181.1340 C   0  0  0  0  0  0  0  0  0  0  0  0
  149.8521  138.2331  180.5978 C   0  0  0  0  0  0  0  0  0  0  0  0
  150.5640  139.4104  180.6229 C   0  0  0  0  0  0  0  0  0  0  0  0
  151.8406  139.4770  181.2051 C   0  0  0  0  0  0  0  0  0  0  0  0
  152.3074  138.3019  181.7330 C   0  0  0  0  0  0  0  0  0  0  0  0
  151.5778  137.1027  181.7056 C   0  0  0  0  0  0  0  0  0  0  0  0
  147.8420  132.5407  180.1869 C   0  0  0  0  0  0  0  0  0  0  0  0
  148.0198  133.4558  181.3138 N   0  0  0  0  0  0  0  0  0  0  0  0
  147.5188  134.7433  180.8741 C   0  0  0  0  0  0  0  0  0  0  0  0
  148.6243  135.4757  180.1407 C   0  0  0  0  0  0  0  0  0  0  0  0
  149.6212  135.8493  181.1216 N   0  0  0  0  0  0  0  0  0  0  0  0
  149.8616  134.8384  182.1597 C   0  0  0  0  0  0  0  0  0  0  0  0
  149.4278  133.4945  181.6162 C   0  0  0  0  0  0  0  0  0  0  0  0
 29 30  1  0  0  0
 30 31  1  0  0  0
 31 32  1  0  0  0
 32 33  1  0  0  0
 33 34  1  0  0  0
 34 35  1  0  0  0
 33 23  1  0  0  0
 23 24  2  0  0  0
 24 25  1  0  0  0
 25 26  2  0  0  0
 26 21  1  0  0  0
 21  1  1  0  0  0
  1  2  2  0  0  0
  2  3  1  0  0  0
  3  4  2  0  0  0
  4  5  1  0  0  0
  5  6  2  0  0  0
  6 13  1  0  0  0
 13 14  2  0  0  0
 14 15  1  0  0  0
 14 16  1  0  0  0
 16 17  2  0  0  0
 17 18  1  0  0  0
 18 19  2  0  0  0
 19 20  1  0  0  0
  6  7  1  0  0  0
  7  8  2  0  0  0
  7  9  1  0  0  0
  9 10  1  0  0  0
  9 11  1  0  0  0
 11 12  2  0  0  0
 26 27  1  0  0  0
 27 28  2  0  0  0
 35 30  1  0  0  0
 28 23  1  0  0  0
 12  1  1  0  0  0
 11  4  1  0  0  0
 19 13  1  0  0  0
 21 22  1  0  0  0
M  END
> <minimizedAffinity>
-7.13778

> <CNNscore>
0.2502477765

> <CNNaffinity>
6.4801750183

> <CNN_VS>
1.6216493845

> <CNNaffinity_variance>
0.0587275103

$$$$
[H]c1c([H])c(Cl)c(-c2c([H])c3c([H])nc(N([H])c4c([H])c([H])c(N5C([H])([H])C([H])([H])N(C([H])([H])[H])C([H])([H])C5([H])[H])c([H])c4[H])nc3n(C([H])([H])[H])c2=O)c(Cl)c1[H]


 35 39  0  0  0  0  0  0  0  0999 V2000
  153.5173  136.9765  185.6471 C   0  0  0  0  0  0  0  0  0  0  0  0
  154.6283  137.4438  186.3067 N   0  0  0  0  0  0  0  0  0  0  0  0
  155.3631  138.4662  185.8703 C   0  0  0  0  0  0  0  0  0  0  0  0
  155.0410  139.1169  184.7170 C   0  0  0  0  0  0  0  0  0  0  0  0
  155.7877  140.1882  184.2325 C   0  0  0  0  0  0  0  0  0  0  0  0
  155.4295  140.8197  183.0618 C   0  0  0  0  0  0  0  0  0  0  0  0
  154.3138  140.3342  182.4194 C   0  0  0  0  0  0  0  0  0  0  0  0
  153.9679  140.8972  181.3465 O   0  0  0  0  0  0  0  0  0  0  0  0
  153.5955  139.2999  182.8901 N   0  0  0  0  0  0  0  0  0  0  0  0
  152.4137  138.8057  182.1857 C   0  0  0  0  0  0  0  0  0  0  0  0
  153.9286  138.6675  184.0339 C   0  0  0  0  0  0  0  0  0  0  0  0
  153.2363  137.6401  184.5238 N   0  0  0  0  0  0  0  0  0  0  0  0
  156.2215  141.9389  182.5679 C   0  0  0  0  0  0  0  0  0  0  0  0
  155.7567  143.2285  182.7174 C   0  0  0  0  0  0  0  0  0  0  0  0
  154.2236  143.5681  183.4926 Cl  0  0  0  0  0  0  0  0  0  0  0  0
  156.4900  144.3129  182.2565 C   0  0  0  0  0  0  0  0  0  0  0  0
  157.7193  144.1314  181.6281 C   0  0  0  0  0  0  0  0  0  0  0  0
  158.1851  142.8372  181.4784 C   0  0  0  0  0  0  0  0  0  0  0  0
  157.4356  141.7823  181.9456 C   0  0  0  0  0  0  0  0  0  0  0  0
  158.0663  140.1651  181.7333 Cl  0  0  0  0  0  0  0  0  0  0  0  0
  152.8026  135.8777  186.1737 N   0  0  0  0  0  0  0  0  0  0  0  0
  152.4366  135.1975  185.4336 H   0  0  0  0  0  0  0  0  0  0  0  0
  151.7738  135.0587  190.2116 C   0  0  0  0  0  0  0  0  0  0  0  0
  150.9679  135.7805  189.3609 C   0  0  0  0  0  0  0  0  0  0  0  0
  151.3158  136.0420  188.0555 C   0  0  0  0  0  0  0  0  0  0  0  0
  152.5281  135.5784  187.5182 C   0  0  0  0  0  0  0  0  0  0  0  0
  153.3164  134.8617  188.3797 C   0  0  0  0  0  0  0  0  0  0  0  0
  152.9580  134.5972  189.7112 C   0  0  0  0  0  0  0  0  0  0  0  0
  149.7212  133.7376  194.8606 C   0  0  0  0  0  0  0  0  0  0  0  0
  150.9140  134.4254  194.3677 N   0  0  0  0  0  0  0  0  0  0  0  0
  150.4397  135.5492  193.5840 C   0  0  0  0  0  0  0  0  0  0  0  0
  150.1606  135.0789  192.1707 C   0  0  0  0  0  0  0  0  0  0  0  0
  151.4361  134.7856  191.5521 N   0  0  0  0  0  0  0  0  0  0  0  0
  152.4131  134.1493  192.4453 C   0  0  0  0  0  0  0  0  0  0  0  0
  151.6548  133.4809  193.5712 C   0  0  0  0  0  0  0  0  0  0  0  0
 29 30  1  0  0  0
 30 31  1  0  0  0
 31 32  1  0  0  0
 32 33  1  0  0  0
 33 34  1  0  0  0
 34 35  1  0  0  0
 33 23  1  0  0  0
 23 24  2  0  0  0
 24 25  1  0  0  0
 25 26  2  0  0  0
 26 21  1  0  0  0
 21  1  1  0  0  0
  1  2  2  0  0  0
  2  3  1  0  0  0
  3  4  2  0  0  0
  4  5  1  0  0  0
  5  6  2  0  0  0
  6 13  1  0  0  0
 13 14  2  0  0  0
 14 15  1  0  0  0
 14 16  1  0  0  0
 16 17  2  0  0  0
 17 18  1  0  0  0
 18 19  2  0  0  0
 19 20  1  0  0  0
  6  7  1  0  0  0
  7  8  2  0  0  0
  7  9  1  0  0  0
  9 10  1  0  0  0
  9 11  1  0  0  0
 11 12  2  0  0  0
 26 27  1  0  0  0
 27 28  2  0  0  0
 35 30  1  0  0  0
 28 23  1  0  0  0
 12  1  1  0  0  0
 11  4  1  0  0  0
 19 13  1  0  0  0
 21 22  1  0  0  0
M  END
> <minimizedAffinity>
-8.11843

> <CNNscore>
0.2234550267

> <CNNaffinity>
6.0030879974

> <CNN_VS>
1.3414201736

> <CNNaffinity_variance>
0.1542374790

$$$$
[H]c1c([H])c(Cl)c(-c2c([H])c3c([H])nc(N([H])c4c([H])c([H])c(N5C([H])([H])C([H])([H])N(C([H])([H])[H])C([H])([H])C5([H])[H])c([H])c4[H])nc3n(C([H])([H])[H])c2=O)c(Cl)c1[H]


 35 39  0  0  0  0  0  0  0  0999 V2000
  152.7656  137.3890  184.4584 C   0  0  0  0  0  0  0  0  0  0  0  0
  152.3483  138.0326  183.3185 N   0  0  0  0  0  0  0  0  0  0  0  0
  153.0442  139.0046  182.7297 C   0  0  0  0  0  0  0  0  0  0  0  0
  154.2365  139.4203  183.2423 C   0  0  0  0  0  0  0  0  0  0  0  0
  154.9885  140.4335  182.6524 C   0  0  0  0  0  0  0  0  0  0  0  0
  156.1893  140.8256  183.2017 C   0  0  0  0  0  0  0  0  0  0  0  0
  156.5863  140.1667  184.3426 C   0  0  0  0  0  0  0  0  0  0  0  0
  157.6820  140.5094  184.8619 O   0  0  0  0  0  0  0  0  0  0  0  0
  155.8579  139.1892  184.9091 N   0  0  0  0  0  0  0  0  0  0  0  0
  156.3055  138.5064  186.1217 C   0  0  0  0  0  0  0  0  0  0  0  0
  154.6797  138.7900  184.3879 C   0  0  0  0  0  0  0  0  0  0  0  0
  153.9365  137.8250  184.9277 N   0  0  0  0  0  0  0  0  0  0  0  0
  156.9641  141.8876  182.5727 C   0  0  0  0  0  0  0  0  0  0  0  0
  158.0628  141.5724  181.8015 C   0  0  0  0  0  0  0  0  0  0  0  0
  158.5633  139.9131  181.5508 Cl  0  0  0  0  0  0  0  0  0  0  0  0
  158.8186  142.5634  181.1910 C   0  0  0  0  0  0  0  0  0  0  0  0
  158.4898  143.9084  181.3391 C   0  0  0  0  0  0  0  0  0  0  0  0
  157.3873  144.2241  182.1130 C   0  0  0  0  0  0  0  0  0  0  0  0
  156.6574  143.2197  182.7056 C   0  0  0  0  0  0  0  0  0  0  0  0
  155.2724  143.6685  183.6743 Cl  0  0  0  0  0  0  0  0  0  0  0  0
  151.9590  136.3772  185.0248 N   0  0  0  0  0  0  0  0  0  0  0  0
  151.0662  136.1684  184.4737 H   0  0  0  0  0  0  0  0  0  0  0  0
  152.4586  134.0176  188.5199 C   0  0  0  0  0  0  0  0  0  0  0  0
  151.3012  134.0243  187.7752 C   0  0  0  0  0  0  0  0  0  0  0  0
  151.1515  134.7972  186.6466 C   0  0  0  0  0  0  0  0  0  0  0  0
  152.1874  135.6297  186.1917 C   0  0  0  0  0  0  0  0  0  0  0  0
  153.3314  135.6092  186.9455 C   0  0  0  0  0  0  0  0  0  0  0  0
  153.4802  134.8193  188.0966 C   0  0  0  0  0  0  0  0  0  0  0  0
  153.6952  130.6358  192.3418 C   0  0  0  0  0  0  0  0  0  0  0  0
  152.7206  131.7043  192.1247 N   0  0  0  0  0  0  0  0  0  0  0  0
  151.9594  131.3269  190.9499 C   0  0  0  0  0  0  0  0  0  0  0  0
  152.7026  131.7911  189.7135 C   0  0  0  0  0  0  0  0  0  0  0  0
  152.6278  133.2365  189.6805 N   0  0  0  0  0  0  0  0  0  0  0  0
  152.7475  133.8818  190.9945 C   0  0  0  0  0  0  0  0  0  0  0  0
  153.4600  132.9245  191.9248 C   0  0  0  0  0  0  0  0  0  0  0  0
 29 30  1  0  0  0
 30 31  1  0  0  0
 31 32  1  0  0  0
 32 33  1  0  0  0
 33 34  1  0  0  0
 34 35  1  0  0  0
 33 23  1  0  0  0
 23 24  2  0  0  0
 24 25  1  0  0  0
 25 26  2  0  0  0
 26 21  1  0  0  0
 21  1  1  0  0  0
  1  2  2  0  0  0
  2  3  1  0  0  0
  3  4  2  0  0  0
  4  5  1  0  0  0
  5  6  2  0  0  0
  6 13  1  0  0  0
 13 14  2  0  0  0
 14 15  1  0  0  0
 14 16  1  0  0  0
 16 17  2  0  0  0
 17 18  1  0  0  0
 18 19  2  0  0  0
 19 20  1  0  0  0
  6  7  1  0  0  0
  7  8  2  0  0  0
  7  9  1  0  0  0
  9 10  1  0  0  0
  9 11  1  0  0  0
 11 12  2  0  0  0
 26 27  1  0  0  0
 27 28  2  0  0  0
 35 30  1  0  0  0
 28 23  1  0  0  0
 12  1  1  0  0  0
 11  4  1  0  0  0
 19 13  1  0  0  0
 21 22  1  0  0  0
M  END
> <minimizedAffinity>
-6.31437

> <CNNscore>
0.1852662563

> <CNNaffinity>
6.0143175125

> <CNN_VS>
1.1142500639

> <CNNaffinity_variance>
0.1142581850

$$$$
[H]c1c(F)c([H])c2c(C(=O)OC3([H])C([H])([H])C4([H])N(C([H])([H])[H])C([H])(C([H])([H])C4([H])[H])C3([H])[H])c([H])n([H])c2c1[H]


 23 26  0  0  0  0  0  0  0  0999 V2000
  154.0899  141.3868  182.1241 C   0  0  0  0  0  0  0  0  0  0  0  0
  153.5598  142.4478  182.5377 O   0  0  0  0  0  0  0  0  0  0  0  0
  153.3657  140.1419  182.3400 C   0  0  0  0  0  0  0  0  0  0  0  0
  153.5282  139.2543  183.3782 C   0  0  0  0  0  0  0  0  0  0  0  0
  152.6721  138.2448  183.2030 N   0  0  0  0  0  0  0  0  0  0  0  0
  151.9572  138.4579  182.0732 C   0  0  0  0  0  0  0  0  0  0  0  0
  150.9684  137.6869  181.5031 C   0  0  0  0  0  0  0  0  0  0  0  0
  150.3722  138.1069  180.3352 C   0  0  0  0  0  0  0  0  0  0  0  0
  150.7871  139.2934  179.7708 C   0  0  0  0  0  0  0  0  0  0  0  0
  150.2435  139.7687  178.6200 F   0  0  0  0  0  0  0  0  0  0  0  0
  151.7931  140.0685  180.3595 C   0  0  0  0  0  0  0  0  0  0  0  0
  152.3796  139.6469  181.5163 C   0  0  0  0  0  0  0  0  0  0  0  0
  152.5495  137.4017  183.8284 H   0  0  0  0  0  0  0  0  0  0  0  0
  155.3011  141.4762  181.5046 O   0  0  0  0  0  0  0  0  0  0  0  0
  159.5385  143.7200  179.8952 C   0  0  0  0  0  0  0  0  0  0  0  0
  158.5078  143.0731  180.6118 N   0  0  0  0  0  0  0  0  0  0  0  0
  157.9196  143.8863  181.6380 C   0  0  0  0  0  0  0  0  0  0  0  0
  159.0163  143.8580  182.7092 C   0  0  0  0  0  0  0  0  0  0  0  0
  159.4412  142.4133  182.6621 C   0  0  0  0  0  0  0  0  0  0  0  0
  158.9097  141.8991  181.3460 C   0  0  0  0  0  0  0  0  0  0  0  0
  157.6401  141.0910  181.5312 C   0  0  0  0  0  0  0  0  0  0  0  0
  156.5201  141.8513  182.1516 C   0  0  0  0  0  0  0  0  0  0  0  0
  156.6910  143.3206  182.2447 C   0  0  0  0  0  0  0  0  0  0  0  0
 15 16  1  0  0  0
 16 17  1  0  0  0
 17 18  1  0  0  0
 18 19  1  0  0  0
 19 20  1  0  0  0
 20 21  1  0  0  0
 21 22  1  0  0  0
 22 23  1  0  0  0
 22 14  1  0  0  0
 14  1  1  0  0  0
  1  2  2  0  0  0
  1  3  1  0  0  0
  3  4  2  0  0  0
  4  5  1  0  0  0
  5  6  1  0  0  0
  6  7  2  0  0  0
  7  8  1  0  0  0
  8  9  2  0  0  0
  9 10  1  0  0  0
  9 11  1  0  0  0
 11 12  2  0  0  0
 20 16  1  0  0  0
 12  3  1  0  0  0
 23 17  1  0  0  0
 12  6  1  0  0  0
  5 13  1  0  0  0
M  END
> <minimizedAffinity>
-8.10717

> <CNNscore>
0.5267702341

> <CNNaffinity>
5.7178711891

> <CNN_VS>
3.0120043755

> <CNNaffinity_variance>
0.0480141193

$$$$
[H]c1c(F)c([H])c2c(C(=O)OC3([H])C([H])([H])C4([H])N(C([H])([H])[H])C([H])(C([H])([H])C4([H])[H])C3([H])[H])c([H])n([H])c2c1[H]


 23 26  0  0  0  0  0  0  0  0999 V2000
  153.8888  140.3118  182.6693 C   0  0  0  0  0  0  0  0  0  0  0  0
  154.2396  139.2019  183.1413 O   0  0  0  0  0  0  0  0  0  0  0  0
  154.8746  141.3837  182.6609 C   0  0  0  0  0  0  0  0  0  0  0  0
  154.6415  142.7269  182.4778 C   0  0  0  0  0  0  0  0  0  0  0  0
  155.8117  143.3668  182.5412 N   0  0  0  0  0  0  0  0  0  0  0  0
  156.7996  142.4677  182.7615 C   0  0  0  0  0  0  0  0  0  0  0  0
  158.1552  142.6707  182.8972 C   0  0  0  0  0  0  0  0  0  0  0  0
  158.9816  141.5920  183.1194 C   0  0  0  0  0  0  0  0  0  0  0  0
  158.4217  140.3357  183.1992 C   0  0  0  0  0  0  0  0  0  0  0  0
  159.1762  139.2269  183.4164 F   0  0  0  0  0  0  0  0  0  0  0  0
  157.0425  140.1418  183.0596 C   0  0  0  0  0  0  0  0  0  0  0  0
  156.2293  141.2143  182.8397 C   0  0  0  0  0  0  0  0  0  0  0  0
  155.9721  144.4064  182.4395 H   0  0  0  0  0  0  0  0  0  0  0  0
  152.6144  140.4332  182.2000 O   0  0  0  0  0  0  0  0  0  0  0  0
  147.7488  139.3729  181.3159 C   0  0  0  0  0  0  0  0  0  0  0  0
  149.1585  139.4252  181.3812 N   0  0  0  0  0  0  0  0  0  0  0  0
  149.7809  139.7908  180.1405 C   0  0  0  0  0  0  0  0  0  0  0  0
  149.6218  138.4976  179.3321 C   0  0  0  0  0  0  0  0  0  0  0  0
  149.9406  137.4553  180.3722 C   0  0  0  0  0  0  0  0  0  0  0  0
  149.8084  138.1761  181.6920 C   0  0  0  0  0  0  0  0  0  0  0  0
  151.1612  138.5612  182.2587 C   0  0  0  0  0  0  0  0  0  0  0  0
  151.9537  139.4654  181.3802 C   0  0  0  0  0  0  0  0  0  0  0  0
  151.2319  140.0774  180.2395 C   0  0  0  0  0  0  0  0  0  0  0  0
 15 16  1  0  0  0
 16 17  1  0  0  0
 17 18  1  0  0  0
 18 19  1  0  0  0
 19 20  1  0  0  0
 20 21  1  0  0  0
 21 22  1  0  0  0
 22 23  1  0  0  0
 22 14  1  0  0  0
 14  1  1  0  0  0
  1  2  2  0  0  0
  1  3  1  0  0  0
  3  4  2  0  0  0
  4  5  1  0  0  0
  5  6  1  0  0  0
  6  7  2  0  0  0
  7  8  1  0  0  0
  8  9  2  0  0  0
  9 10  1  0  0  0
  9 11  1  0  0  0
 11 12  2  0  0  0
 20 16  1  0  0  0
 12  3  1  0  0  0
 23 17  1  0  0  0
 12  6  1  0  0  0
  5 13  1  0  0  0
M  END
> <minimizedAffinity>
-7.04403

> <CNNscore>
0.4964520633

> <CNNaffinity>
5.4694833755

> <CNN_VS>
2.7153363228

> <CNNaffinity_variance>
0.0470553264

$$$$
[H]c1c(F)c([H])c2c(C(=O)OC3([H])C([H])([H])C4([H])N(C([H])([H])[H])C([H])(C([H])([H])C4([H])[H])C3([H])[H])c([H])n([H])c2c1[H]


 23 26  0  0  0  0  0  0  0  0999 V2000
  154.2237  142.6074  182.8739 C   0  0  0  0  0  0  0  0  0  0  0  0
  153.2587  143.3565  182.5820 O   0  0  0  0  0  0  0  0  0  0  0  0
  153.9442  141.1915  183.0686 C   0  0  0  0  0  0  0  0  0  0  0  0
  154.3399  140.4028  184.1238 C   0  0  0  0  0  0  0  0  0  0  0  0
  153.8775  139.1671  183.9187 N   0  0  0  0  0  0  0  0  0  0  0  0
  153.1900  139.1366  182.7528 C   0  0  0  0  0  0  0  0  0  0  0  0
  152.5432  138.0840  182.1439 C   0  0  0  0  0  0  0  0  0  0  0  0
  151.9006  138.2883  180.9434 C   0  0  0  0  0  0  0  0  0  0  0  0
  151.9257  139.5481  180.3862 C   0  0  0  0  0  0  0  0  0  0  0  0
  151.3135  139.8219  179.2047 F   0  0  0  0  0  0  0  0  0  0  0  0
  152.5864  140.6103  181.0144 C   0  0  0  0  0  0  0  0  0  0  0  0
  153.2209  140.4014  182.2034 C   0  0  0  0  0  0  0  0  0  0  0  0
  154.0106  138.3280  184.5471 H   0  0  0  0  0  0  0  0  0  0  0  0
  155.4598  143.1715  182.9872 O   0  0  0  0  0  0  0  0  0  0  0  0
  160.2464  141.5549  182.7525 C   0  0  0  0  0  0  0  0  0  0  0  0
  158.9655  142.1073  182.5321 N   0  0  0  0  0  0  0  0  0  0  0  0
  158.1951  141.4039  181.5462 C   0  0  0  0  0  0  0  0  0  0  0  0
  158.8814  141.8546  180.2512 C   0  0  0  0  0  0  0  0  0  0  0  0
  159.1041  143.3190  180.5264 C   0  0  0  0  0  0  0  0  0  0  0  0
  158.9547  143.4560  182.0224 C   0  0  0  0  0  0  0  0  0  0  0  0
  157.5968  144.0142  182.4015 C   0  0  0  0  0  0  0  0  0  0  0  0
  156.4488  143.1780  181.9541 C   0  0  0  0  0  0  0  0  0  0  0  0
  156.7741  141.8178  181.4635 C   0  0  0  0  0  0  0  0  0  0  0  0
 15 16  1  0  0  0
 16 17  1  0  0  0
 17 18  1  0  0  0
 18 19  1  0  0  0
 19 20  1  0  0  0
 20 21  1  0  0  0
 21 22  1  0  0  0
 22 23  1  0  0  0
 22 14  1  0  0  0
 14  1  1  0  0  0
  1  2  2  0  0  0
  1  3  1  0  0  0
  3  4  2  0  0  0
  4  5  1  0  0  0
  5  6  1  0  0  0
  6  7  2  0  0  0
  7  8  1  0  0  0
  8  9  2  0  0  0
  9 10  1  0  0  0
  9 11  1  0  0  0
 11 12  2  0  0  0
 20 16  1  0  0  0
 12  3  1  0  0  0
 23 17  1  0  0  0
 12  6  1  0  0  0
  5 13  1  0  0  0
M  END
> <minimizedAffinity>
-8.02385

> <CNNscore>
0.4455240369

> <CNNaffinity>
5.8191418648

> <CNN_VS>
2.5925676823

> <CNNaffinity_variance>
0.0801455602

$$$$
[H]c1c(F)c([H])c2c(C(=O)OC3([H])C([H])([H])C4([H])N(C([H])([H])[H])C([H])(C([H])([H])C4([H])[H])C3([H])[H])c([H])n([H])c2c1[H]


 23 26  0  0  0  0  0  0  0  0999 V2000
  155.3387  138.7549  184.4095 C   0  0  0  0  0  0  0  0  0  0  0  0
  155.6884  139.0248  185.5854 O   0  0  0  0  0  0  0  0  0  0  0  0
  154.0380  138.1280  184.2192 C   0  0  0  0  0  0  0  0  0  0  0  0
  153.5297  137.0444  184.8971 C   0  0  0  0  0  0  0  0  0  0  0  0
  152.3090  136.7882  184.4205 N   0  0  0  0  0  0  0  0  0  0  0  0
  152.0140  137.6823  183.4476 C   0  0  0  0  0  0  0  0  0  0  0  0
  150.8750  137.8008  182.6822 C   0  0  0  0  0  0  0  0  0  0  0  0
  150.7950  138.8006  181.7390 C   0  0  0  0  0  0  0  0  0  0  0  0
  151.8646  139.6563  181.5903 C   0  0  0  0  0  0  0  0  0  0  0  0
  151.8550  140.6648  180.6801 F   0  0  0  0  0  0  0  0  0  0  0  0
  153.0171  139.5260  182.3742 C   0  0  0  0  0  0  0  0  0  0  0  0
  153.0900  138.5336  183.3067 C   0  0  0  0  0  0  0  0  0  0  0  0
  151.6553  136.0187  184.7325 H   0  0  0  0  0  0  0  0  0  0  0  0
  156.1989  139.0672  183.3988 O   0  0  0  0  0  0  0  0  0  0  0  0
  158.0825  141.8602  179.6264 C   0  0  0  0  0  0  0  0  0  0  0  0
  157.7177  141.2733  180.8580 N   0  0  0  0  0  0  0  0  0  0  0  0
  156.8712  142.1048  181.6657 C   0  0  0  0  0  0  0  0  0  0  0  0
  157.8735  143.1456  182.1787 C   0  0  0  0  0  0  0  0  0  0  0  0
  159.0655  142.2803  182.4951 C   0  0  0  0  0  0  0  0  0  0  0  0
  158.8112  140.9898  181.7541 C   0  0  0  0  0  0  0  0  0  0  0  0
  158.2969  139.9039  182.6791 C   0  0  0  0  0  0  0  0  0  0  0  0
  157.0155  140.2405  183.3590 C   0  0  0  0  0  0  0  0  0  0  0  0
  156.2891  141.4274  182.8488 C   0  0  0  0  0  0  0  0  0  0  0  0
 15 16  1  0  0  0
 16 17  1  0  0  0
 17 18  1  0  0  0
 18 19  1  0  0  0
 19 20  1  0  0  0
 20 21  1  0  0  0
 21 22  1  0  0  0
 22 23  1  0  0  0
 22 14  1  0  0  0
 14  1  1  0  0  0
  1  2  2  0  0  0
  1  3  1  0  0  0
  3  4  2  0  0  0
  4  5  1  0  0  0
  5  6  1  0  0  0
  6  7  2  0  0  0
  7  8  1  0  0  0
  8  9  2  0  0  0
  9 10  1  0  0  0
  9 11  1  0  0  0
 11 12  2  0  0  0
 20 16  1  0  0  0
 12  3  1  0  0  0
 23 17  1  0  0  0
 12  6  1  0  0  0
  5 13  1  0  0  0
M  END
> <minimizedAffinity>
-6.75885

> <CNNscore>
0.4291427135

> <CNNaffinity>
5.4158468246

> <CNN_VS>
2.3241713047

> <CNNaffinity_variance>
0.0691258237

$$$$
[H]c1c(F)c([H])c2c(C(=O)OC3([H])C([H])([H])C4([H])N(C([H])([H])[H])C([H])(C([H])([H])C4([H])[H])C3([H])[H])c([H])n([H])c2c1[H]


 23 26  0  0  0  0  0  0  0  0999 V2000
  154.1086  141.3139  182.1918 C   0  0  0  0  0  0  0  0  0  0  0  0
  153.4475  142.3543  182.4330 O   0  0  0  0  0  0  0  0  0  0  0  0
  153.5431  140.0410  182.6169 C   0  0  0  0  0  0  0  0  0  0  0  0
  152.4789  139.3745  182.0553 C   0  0  0  0  0  0  0  0  0  0  0  0
  152.2821  138.2468  182.7425 N   0  0  0  0  0  0  0  0  0  0  0  0
  153.1957  138.1669  183.7384 C   0  0  0  0  0  0  0  0  0  0  0  0
  153.3715  137.1867  184.6900 C   0  0  0  0  0  0  0  0  0  0  0  0
  154.3808  137.3177  185.6173 C   0  0  0  0  0  0  0  0  0  0  0  0
  155.1879  138.4330  185.5630 C   0  0  0  0  0  0  0  0  0  0  0  0
  156.2023  138.6277  186.4453 F   0  0  0  0  0  0  0  0  0  0  0  0
  154.9995  139.4227  184.5911 C   0  0  0  0  0  0  0  0  0  0  0  0
  153.9980  139.2870  183.6753 C   0  0  0  0  0  0  0  0  0  0  0  0
  151.5409  137.5155  182.5619 H   0  0  0  0  0  0  0  0  0  0  0  0
  155.3045  141.4502  181.5511 O   0  0  0  0  0  0  0  0  0  0  0  0
  159.5205  143.6838  179.8730 C   0  0  0  0  0  0  0  0  0  0  0  0
  158.4975  143.0454  180.6081 N   0  0  0  0  0  0  0  0  0  0  0  0
  157.9122  143.8746  181.6230 C   0  0  0  0  0  0  0  0  0  0  0  0
  159.0160  143.8712  182.6873 C   0  0  0  0  0  0  0  0  0  0  0  0
  159.4474  142.4279  182.6640 C   0  0  0  0  0  0  0  0  0  0  0  0
  158.9099  141.8870  181.3611 C   0  0  0  0  0  0  0  0  0  0  0  0
  157.6454  141.0765  181.5694 C   0  0  0  0  0  0  0  0  0  0  0  0
  156.5258  141.8428  182.1832 C   0  0  0  0  0  0  0  0  0  0  0  0
  156.6903  143.3144  182.2481 C   0  0  0  0  0  0  0  0  0  0  0  0
 15 16  1  0  0  0
 16 17  1  0  0  0
 17 18  1  0  0  0
 18 19  1  0  0  0
 19 20  1  0  0  0
 20 21  1  0  0  0
 21 22  1  0  0  0
 22 23  1  0  0  0
 22 14  1  0  0  0
 14  1  1  0  0  0
  1  2  2  0  0  0
  1  3  1  0  0  0
  3  4  2  0  0  0
  4  5  1  0  0  0
  5  6  1  0  0  0
  6  7  2  0  0  0
  7  8  1  0  0  0
  8  9  2  0  0  0
  9 10  1  0  0  0
  9 11  1  0  0  0
 11 12  2  0  0  0
 20 16  1  0  0  0
 12  3  1  0  0  0
 23 17  1  0  0  0
 12  6  1  0  0  0
  5 13  1  0  0  0
M  END
> <minimizedAffinity>
-7.63116

> <CNNscore>
0.4095328450

> <CNNaffinity>
5.5956935883

> <CNN_VS>
2.2916202545

> <CNNaffinity_variance>
0.0401678272

$$$$
[H]c1c(F)c([H])c2c(C(=O)OC3([H])C([H])([H])C4([H])N(C([H])([H])[H])C([H])(C([H])([H])C4([H])[H])C3([H])[H])c([H])n([H])c2c1[H]


 23 26  0  0  0  0  0  0  0  0999 V2000
  155.1457  138.6003  185.2208 C   0  0  0  0  0  0  0  0  0  0  0  0
  154.7939  138.1279  184.1114 O   0  0  0  0  0  0  0  0  0  0  0  0
  154.3212  138.2872  186.3797 C   0  0  0  0  0  0  0  0  0  0  0  0
  152.9622  138.0755  186.4011 C   0  0  0  0  0  0  0  0  0  0  0  0
  152.5991  137.8170  187.6597 N   0  0  0  0  0  0  0  0  0  0  0  0
  153.6933  137.8563  188.4560 C   0  0  0  0  0  0  0  0  0  0  0  0
  153.7965  137.6532  189.8144 C   0  0  0  0  0  0  0  0  0  0  0  0
  155.0297  137.7445  190.4201 C   0  0  0  0  0  0  0  0  0  0  0  0
  156.1282  138.0383  189.6421 C   0  0  0  0  0  0  0  0  0  0  0  0
  157.3746  138.1438  190.1721 F   0  0  0  0  0  0  0  0  0  0  0  0
  156.0109  138.2427  188.2623 C   0  0  0  0  0  0  0  0  0  0  0  0
  154.7866  138.1508  187.6683 C   0  0  0  0  0  0  0  0  0  0  0  0
  151.6230  137.6112  188.0083 H   0  0  0  0  0  0  0  0  0  0  0  0
  156.2706  139.3697  185.2606 O   0  0  0  0  0  0  0  0  0  0  0  0
  160.0172  142.7147  184.6655 C   0  0  0  0  0  0  0  0  0  0  0  0
  158.9589  141.7904  184.5238 N   0  0  0  0  0  0  0  0  0  0  0  0
  159.3539  140.5479  183.9234 C   0  0  0  0  0  0  0  0  0  0  0  0
  159.5149  140.9613  182.4557 C   0  0  0  0  0  0  0  0  0  0  0  0
  158.3194  141.8584  182.2662 C   0  0  0  0  0  0  0  0  0  0  0  0
  157.8803  142.2144  183.6660 C   0  0  0  0  0  0  0  0  0  0  0  0
  156.6798  141.3970  184.1020 C   0  0  0  0  0  0  0  0  0  0  0  0
  156.9162  139.9268  184.1125 C   0  0  0  0  0  0  0  0  0  0  0  0
  158.3237  139.4832  183.9748 C   0  0  0  0  0  0  0  0  0  0  0  0
 15 16  1  0  0  0
 16 17  1  0  0  0
 17 18  1  0  0  0
 18 19  1  0  0  0
 19 20  1  0  0  0
 20 21  1  0  0  0
 21 22  1  0  0  0
 22 23  1  0  0  0
 22 14  1  0  0  0
 14  1  1  0  0  0
  1  2  2  0  0  0
  1  3  1  0  0  0
  3  4  2  0  0  0
  4  5  1  0  0  0
  5  6  1  0  0  0
  6  7  2  0  0  0
  7  8  1  0  0  0
  8  9  2  0  0  0
  9 10  1  0  0  0
  9 11  1  0  0  0
 11 12  2  0  0  0
 20 16  1  0  0  0
 12  3  1  0  0  0
 23 17  1  0  0  0
 12  6  1  0  0  0
  5 13  1  0  0  0
M  END
> <minimizedAffinity>
-7.01692

> <CNNscore>
0.4049842060

> <CNNaffinity>
5.3458700180

> <CNN_VS>
2.1649928093

> <CNNaffinity_variance>
0.0321134143

$$$$
[H]c1c(F)c([H])c2c(C(=O)OC3([H])C([H])([H])C4([H])N(C([H])([H])[H])C([H])(C([H])([H])C4([H])[H])C3([H])[H])c([H])n([H])c2c1[H]


 23 26  0  0  0  0  0  0  0  0999 V2000
  155.7029  139.0740  184.8386 C   0  0  0  0  0  0  0  0  0  0  0  0
  156.5713  139.0994  185.7458 O   0  0  0  0  0  0  0  0  0  0  0  0
  154.4361  138.4197  185.1350 C   0  0  0  0  0  0  0  0  0  0  0  0
  153.4789  138.0134  184.2345 C   0  0  0  0  0  0  0  0  0  0  0  0
  152.4730  137.4589  184.9152 N   0  0  0  0  0  0  0  0  0  0  0  0
  152.7565  137.4966  186.2385 C   0  0  0  0  0  0  0  0  0  0  0  0
  152.0149  137.0434  187.3070 C   0  0  0  0  0  0  0  0  0  0  0  0
  152.5091  137.1895  188.5838 C   0  0  0  0  0  0  0  0  0  0  0  0
  153.7383  137.7887  188.7523 C   0  0  0  0  0  0  0  0  0  0  0  0
  154.2871  137.9657  189.9824 F   0  0  0  0  0  0  0  0  0  0  0  0
  154.4830  138.2454  187.6586 C   0  0  0  0  0  0  0  0  0  0  0  0
  153.9879  138.0976  186.3964 C   0  0  0  0  0  0  0  0  0  0  0  0
  151.5859  137.0485  184.5135 H   0  0  0  0  0  0  0  0  0  0  0  0
  156.0074  139.6591  183.6453 O   0  0  0  0  0  0  0  0  0  0  0  0
  157.9095  141.8870  179.5224 C   0  0  0  0  0  0  0  0  0  0  0  0
  157.6248  141.3876  180.8123 N   0  0  0  0  0  0  0  0  0  0  0  0
  157.2668  142.4051  181.7594 C   0  0  0  0  0  0  0  0  0  0  0  0
  158.6307  143.0462  182.0415 C   0  0  0  0  0  0  0  0  0  0  0  0
  159.5186  141.8320  182.1263 C   0  0  0  0  0  0  0  0  0  0  0  0
  158.7225  140.7274  181.4744 C   0  0  0  0  0  0  0  0  0  0  0  0
  158.0785  139.8182  182.5029 C   0  0  0  0  0  0  0  0  0  0  0  0
  157.1335  140.5117  183.4212 C   0  0  0  0  0  0  0  0  0  0  0  0
  156.7421  141.8915  183.0473 C   0  0  0  0  0  0  0  0  0  0  0  0
 15 16  1  0  0  0
 16 17  1  0  0  0
 17 18  1  0  0  0
 18 19  1  0  0  0
 19 20  1  0  0  0
 20 21  1  0  0  0
 21 22  1  0  0  0
 22 23  1  0  0  0
 22 14  1  0  0  0
 14  1  1  0  0  0
  1  2  2  0  0  0
  1  3  1  0  0  0
  3  4  2  0  0  0
  4  5  1  0  0  0
  5  6  1  0  0  0
  6  7  2  0  0  0
  7  8  1  0  0  0
  8  9  2  0  0  0
  9 10  1  0  0  0
  9 11  1  0  0  0
 11 12  2  0  0  0
 20 16  1  0  0  0
 12  3  1  0  0  0
 23 17  1  0  0  0
 12  6  1  0  0  0
  5 13  1  0  0  0
M  END
> <minimizedAffinity>
-6.87359

> <CNNscore>
0.3866140246

> <CNNaffinity>
5.2264566422

> <CNN_VS>
2.0206215382

> <CNNaffinity_variance>
0.0205874033

$$$$
[H]c1c(F)c([H])c2c(C(=O)OC3([H])C([H])([H])C4([H])N(C([H])([H])[H])C([H])(C([H])([H])C4([H])[H])C3([H])[H])c([H])n([H])c2c1[H]


 23 26  0  0  0  0  0  0  0  0999 V2000
  154.2953  138.9059  184.0296 C   0  0  0  0  0  0  0  0  0  0  0  0
  153.2713  138.8712  183.3031 O   0  0  0  0  0  0  0  0  0  0  0  0
  155.3435  139.8522  183.6738 C   0  0  0  0  0  0  0  0  0  0  0  0
  156.6995  139.6220  183.6511 C   0  0  0  0  0  0  0  0  0  0  0  0
  157.3084  140.7479  183.2711 N   0  0  0  0  0  0  0  0  0  0  0  0
  156.3768  141.7042  183.0466 C   0  0  0  0  0  0  0  0  0  0  0  0
  156.5415  143.0106  182.6425 C   0  0  0  0  0  0  0  0  0  0  0  0
  155.4342  143.8119  182.4765 C   0  0  0  0  0  0  0  0  0  0  0  0
  154.1884  143.2771  182.7219 C   0  0  0  0  0  0  0  0  0  0  0  0
  153.0529  144.0091  182.5787 F   0  0  0  0  0  0  0  0  0  0  0  0
  154.0334  141.9478  183.1323 C   0  0  0  0  0  0  0  0  0  0  0  0
  155.1343  141.1593  183.2948 C   0  0  0  0  0  0  0  0  0  0  0  0
  158.3480  140.8983  183.1554 H   0  0  0  0  0  0  0  0  0  0  0  0
  154.3521  138.0580  185.0958 O   0  0  0  0  0  0  0  0  0  0  0  0
  154.5374  135.5639  189.4919 C   0  0  0  0  0  0  0  0  0  0  0  0
  154.5320  136.5082  188.4417 N   0  0  0  0  0  0  0  0  0  0  0  0
  155.8105  137.1163  188.2053 C   0  0  0  0  0  0  0  0  0  0  0  0
  155.9113  138.0765  189.3964 C   0  0  0  0  0  0  0  0  0  0  0  0
  154.5094  138.6250  189.4560 C   0  0  0  0  0  0  0  0  0  0  0  0
  153.6823  137.6548  188.6476 C   0  0  0  0  0  0  0  0  0  0  0  0
  153.3903  138.1886  187.2586 C   0  0  0  0  0  0  0  0  0  0  0  0
  154.6064  138.4621  186.4439 C   0  0  0  0  0  0  0  0  0  0  0  0
  155.8866  137.9314  186.9695 C   0  0  0  0  0  0  0  0  0  0  0  0
 15 16  1  0  0  0
 16 17  1  0  0  0
 17 18  1  0  0  0
 18 19  1  0  0  0
 19 20  1  0  0  0
 20 21  1  0  0  0
 21 22  1  0  0  0
 22 23  1  0  0  0
 22 14  1  0  0  0
 14  1  1  0  0  0
  1  2  2  0  0  0
  1  3  1  0  0  0
  3  4  2  0  0  0
  4  5  1  0  0  0
  5  6  1  0  0  0
  6  7  2  0  0  0
  7  8  1  0  0  0
  8  9  2  0  0  0
  9 10  1  0  0  0
  9 11  1  0  0  0
 11 12  2  0  0  0
 20 16  1  0  0  0
 12  3  1  0  0  0
 23 17  1  0  0  0
 12  6  1  0  0  0
  5 13  1  0  0  0
M  END
> <minimizedAffinity>
-7.34413

> <CNNscore>
0.3778608143

> <CNNaffinity>
5.1622614861

> <CNN_VS>
1.9506163597

> <CNNaffinity_variance>
0.0553463176

$$$$
[H]c1c(F)c([H])c2c(C(=O)OC3([H])C([H])([H])C4([H])N(C([H])([H])[H])C([H])(C([H])([H])C4([H])[H])C3([H])[H])c([H])n([H])c2c1[H]


 23 26  0  0  0  0  0  0  0  0999 V2000
  153.8962  137.5389  185.0049 C   0  0  0  0  0  0  0  0  0  0  0  0
  154.3559  136.4682  184.5357 O   0  0  0  0  0  0  0  0  0  0  0  0
  153.9162  138.7154  184.1467 C   0  0  0  0  0  0  0  0  0  0  0  0
  154.7125  139.8290  184.2802 C   0  0  0  0  0  0  0  0  0  0  0  0
  154.4190  140.6741  183.2890 N   0  0  0  0  0  0  0  0  0  0  0  0
  153.4490  140.1330  182.5149 C   0  0  0  0  0  0  0  0  0  0  0  0
  152.8389  140.6428  181.3901 C   0  0  0  0  0  0  0  0  0  0  0  0
  151.8638  139.9055  180.7567 C   0  0  0  0  0  0  0  0  0  0  0  0
  151.5275  138.6728  181.2722 C   0  0  0  0  0  0  0  0  0  0  0  0
  150.5751  137.8916  180.6994 F   0  0  0  0  0  0  0  0  0  0  0  0
  152.1546  138.1651  182.4161 C   0  0  0  0  0  0  0  0  0  0  0  0
  153.1198  138.9003  183.0389 C   0  0  0  0  0  0  0  0  0  0  0  0
  154.8563  141.6197  183.1118 H   0  0  0  0  0  0  0  0  0  0  0  0
  153.4130  137.5231  186.2797 O   0  0  0  0  0  0  0  0  0  0  0  0
  155.4590  135.5190  190.4483 C   0  0  0  0  0  0  0  0  0  0  0  0
  154.9648  136.3465  189.4161 N   0  0  0  0  0  0  0  0  0  0  0  0
  155.9912  137.0366  188.6878 C   0  0  0  0  0  0  0  0  0  0  0  0
  156.3978  138.1191  189.6947 C   0  0  0  0  0  0  0  0  0  0  0  0
  155.0562  138.5460  190.2309 C   0  0  0  0  0  0  0  0  0  0  0  0
  154.1157  137.4294  189.8467 C   0  0  0  0  0  0  0  0  0  0  0  0
  153.2833  137.7902  188.6317 C   0  0  0  0  0  0  0  0  0  0  0  0
  154.0842  138.0841  187.4111 C   0  0  0  0  0  0  0  0  0  0  0  0
  155.5211  137.7242  187.4615 C   0  0  0  0  0  0  0  0  0  0  0  0
 15 16  1  0  0  0
 16 17  1  0  0  0
 17 18  1  0  0  0
 18 19  1  0  0  0
 19 20  1  0  0  0
 20 21  1  0  0  0
 21 22  1  0  0  0
 22 23  1  0  0  0
 22 14  1  0  0  0
 14  1  1  0  0  0
  1  2  2  0  0  0
  1  3  1  0  0  0
  3  4  2  0  0  0
  4  5  1  0  0  0
  5  6  1  0  0  0
  6  7  2  0  0  0
  7  8  1  0  0  0
  8  9  2  0  0  0
  9 10  1  0  0  0
  9 11  1  0  0  0
 11 12  2  0  0  0
 20 16  1  0  0  0
 12  3  1  0  0  0
 23 17  1  0  0  0
 12  6  1  0  0  0
  5 13  1  0  0  0
M  END
> <minimizedAffinity>
-6.56439

> <CNNscore>
0.3692924678

> <CNNaffinity>
4.9278278351

> <CNN_VS>
1.8198096752

> <CNNaffinity_variance>
0.0157708284

$$$$
[H]OC(=O)C([H])([H])[C@@]([H])(C(=O)N([H])[C@]([H])(C(=O)N([H])[C@]([H])(C(=O)N([H])[H])C([H])([H])C([H])(C([H])([H])[H])C([H])([H])[H])C([H])([H])C(=O)O[H])N([H])C(=O)[C@@]([H])(N([H])C(=O)[C@@]([H])(N([H])C(=O)[C@@]([H])(N([H])C(=O)C([H])([H])[H])C([H])([H])c1c([H])nc([H])n1[H])C([H])([H])c1c([H])c([H])c(O[H])c([H])c1[H])C([H])([H])c1c([H])c([H])c([H])c([H])c1[H]


 73 75  0  0  0  0  0  0  0  0999 V2000
  153.3230  136.9138  187.4271 C   0  0  0  0  0  0  0  0  0  0  0  0
  153.3420  137.6019  186.1730 N   0  0  0  0  0  0  0  0  0  0  0  0
  154.4199  138.3078  185.6669 C   0  0  0  0  0  0  0  0  0  0  0  0
  155.5293  138.4669  186.2371 O   0  0  0  0  0  0  0  0  0  0  0  0
  152.4556  137.5533  185.6064 H   0  0  0  0  0  0  0  0  0  0  0  0
  154.3145  138.9857  184.2883 C   0  0  0  0  0  0  0  0  0  0  0  0
  155.7010  139.1799  183.8339 N   0  0  0  0  0  0  0  0  0  0  0  0
  156.2426  140.4491  183.6711 C   0  0  0  0  0  0  0  0  0  0  0  0
  155.3906  141.4185  183.9286 O   0  0  0  0  0  0  0  0  0  0  0  0
  156.2176  138.3079  183.6670 H   0  0  0  0  0  0  0  0  0  0  0  0
  157.5809  140.8401  183.2806 C   0  0  0  0  0  0  0  0  0  0  0  0
  157.6965  142.2940  183.1104 N   0  0  0  0  0  0  0  0  0  0  0  0
  158.2140  142.9317  181.9725 C   0  0  0  0  0  0  0  0  0  0  0  0
  158.2719  144.4045  181.9198 C   0  0  0  0  0  0  0  0  0  0  0  0
  158.6297  142.2714  180.9937 O   0  0  0  0  0  0  0  0  0  0  0  0
  157.3599  142.8530  183.9284 H   0  0  0  0  0  0  0  0  0  0  0  0
  158.7357  140.3491  184.0497 C   0  0  0  0  0  0  0  0  0  0  0  0
  159.4016  141.3086  184.9592 C   0  0  0  0  0  0  0  0  0  0  0  0
  160.6045  141.9395  184.6553 C   0  0  0  0  0  0  0  0  0  0  0  0
  160.9447  142.6639  185.7101 N   0  0  0  0  0  0  0  0  0  0  0  0
  160.0016  142.5206  186.6855 C   0  0  0  0  0  0  0  0  0  0  0  0
  159.0847  141.6950  186.1918 N   0  0  0  0  0  0  0  0  0  0  0  0
  158.2242  141.3717  186.6817 H   0  0  0  0  0  0  0  0  0  0  0  0
  153.4861  138.1180  183.4194 C   0  0  0  0  0  0  0  0  0  0  0  0
  152.8483  138.7336  182.2436 C   0  0  0  0  0  0  0  0  0  0  0  0
  152.1944  137.9098  181.3119 C   0  0  0  0  0  0  0  0  0  0  0  0
  151.6251  138.4419  180.2012 C   0  0  0  0  0  0  0  0  0  0  0  0
  151.6374  139.7900  179.9003 C   0  0  0  0  0  0  0  0  0  0  0  0
  151.0574  140.3129  178.7695 O   0  0  0  0  0  0  0  0  0  0  0  0
  152.2920  140.5961  180.8365 C   0  0  0  0  0  0  0  0  0  0  0  0
  152.8734  140.0692  181.9651 C   0  0  0  0  0  0  0  0  0  0  0  0
  151.5441  140.4255  177.8961 H   0  0  0  0  0  0  0  0  0  0  0  0
  152.1586  134.6554  187.7756 N   0  0  0  0  0  0  0  0  0  0  0  0
  152.1456  136.0647  187.6034 C   0  0  0  0  0  0  0  0  0  0  0  0
  151.0140  136.6511  187.5990 O   0  0  0  0  0  0  0  0  0  0  0  0
  153.0509  134.1099  187.7682 H   0  0  0  0  0  0  0  0  0  0  0  0
  150.8774  133.9844  187.9639 C   0  0  0  0  0  0  0  0  0  0  0  0
  151.8105  132.5277  189.7548 N   0  0  0  0  0  0  0  0  0  0  0  0
  150.7365  133.2890  189.2374 C   0  0  0  0  0  0  0  0  0  0  0  0
  149.6618  133.3631  189.8696 O   0  0  0  0  0  0  0  0  0  0  0  0
  152.6957  132.4837  189.1850 H   0  0  0  0  0  0  0  0  0  0  0  0
  151.8025  131.8046  191.0029 C   0  0  0  0  0  0  0  0  0  0  0  0
  151.0964  133.4269  192.8224 N   0  0  0  0  0  0  0  0  0  0  0  0
  152.0808  132.6631  192.1368 C   0  0  0  0  0  0  0  0  0  0  0  0
  153.2725  132.7706  192.5917 O   0  0  0  0  0  0  0  0  0  0  0  0
  150.1222  133.3654  192.4573 H   0  0  0  0  0  0  0  0  0  0  0  0
  151.4380  134.2671  194.0076 C   0  0  0  0  0  0  0  0  0  0  0  0
  150.8292  133.6815  195.1952 C   0  0  0  0  0  0  0  0  0  0  0  0
  151.5025  133.4711  196.4223 N   0  0  0  0  0  0  0  0  0  0  0  0
  149.6214  133.3286  195.1453 O   0  0  0  0  0  0  0  0  0  0  0  0
  151.0988  132.8909  197.2018 H   0  0  0  0  0  0  0  0  0  0  0  0
  152.4605  133.8786  196.6447 H   0  0  0  0  0  0  0  0  0  0  0  0
  151.0730  135.6366  193.6287 C   0  0  0  0  0  0  0  0  0  0  0  0
  151.3997  136.4327  191.2392 C   0  0  0  0  0  0  0  0  0  0  0  0
  151.8611  136.4235  192.6746 C   0  0  0  0  0  0  0  0  0  0  0  0
  152.2009  137.8242  193.1547 C   0  0  0  0  0  0  0  0  0  0  0  0
  152.8919  130.7192  190.8427 C   0  0  0  0  0  0  0  0  0  0  0  0
  153.6865  130.8932  189.6384 C   0  0  0  0  0  0  0  0  0  0  0  0
  153.3667  130.2321  188.4695 O   0  0  0  0  0  0  0  0  0  0  0  0
  154.6988  131.6497  189.6045 O   0  0  0  0  0  0  0  0  0  0  0  0
  152.8718  129.3399  188.4583 H   0  0  0  0  0  0  0  0  0  0  0  0
  150.7094  133.0075  186.7837 C   0  0  0  0  0  0  0  0  0  0  0  0
  150.0007  133.6028  185.6598 C   0  0  0  0  0  0  0  0  0  0  0  0
  149.9418  132.8839  184.4554 O   0  0  0  0  0  0  0  0  0  0  0  0
  149.4536  134.7033  185.7176 O   0  0  0  0  0  0  0  0  0  0  0  0
  149.1557  132.9382  183.8179 H   0  0  0  0  0  0  0  0  0  0  0  0
  153.2930  137.9671  188.5730 C   0  0  0  0  0  0  0  0  0  0  0  0
  154.3599  137.7643  189.5458 C   0  0  0  0  0  0  0  0  0  0  0  0
  154.8141  138.7066  190.4346 C   0  0  0  0  0  0  0  0  0  0  0  0
  155.8378  138.4426  191.3183 C   0  0  0  0  0  0  0  0  0  0  0  0
  156.4660  137.2067  191.3578 C   0  0  0  0  0  0  0  0  0  0  0  0
  156.0296  136.2579  190.4849 C   0  0  0  0  0  0  0  0  0  0  0  0
  154.9948  136.5199  189.5903 C   0  0  0  0  0  0  0  0  0  0  0  0
 54 55  1  0  0  0
 55 56  1  0  0  0
 55 53  1  0  0  0
 53 47  1  0  0  0
 47 43  1  0  0  0
 43 44  1  0  0  0
 44 45  2  0  0  0
 44 42  1  0  0  0
 42 57  1  0  0  0
 57 58  1  0  0  0
 58 59  1  0  0  0
 58 60  2  0  0  0
 42 38  1  0  0  0
 38 39  1  0  0  0
 39 40  2  0  0  0
 39 37  1  0  0  0
 37 62  1  0  0  0
 62 63  1  0  0  0
 63 64  1  0  0  0
 63 65  2  0  0  0
 37 33  1  0  0  0
 33 34  1  0  0  0
 34 35  2  0  0  0
 34  1  1  0  0  0
  1 67  1  0  0  0
 67 68  1  0  0  0
 68 69  2  0  0  0
 69 70  1  0  0  0
 70 71  2  0  0  0
 71 72  1  0  0  0
 72 73  2  0  0  0
  1  2  1  0  0  0
  2  3  1  0  0  0
  3  4  2  0  0  0
  3  6  1  0  0  0
  6 24  1  0  0  0
 24 25  1  0  0  0
 25 26  2  0  0  0
 26 27  1  0  0  0
 27 28  2  0  0  0
 28 29  1  0  0  0
 28 30  1  0  0  0
 30 31  2  0  0  0
  6  7  1  0  0  0
  7  8  1  0  0  0
  8  9  2  0  0  0
  8 11  1  0  0  0
 11 17  1  0  0  0
 17 18  1  0  0  0
 18 19  2  0  0  0
 19 20  1  0  0  0
 20 21  2  0  0  0
 21 22  1  0  0  0
 11 12  1  0  0  0
 12 13  1  0  0  0
 13 14  1  0  0  0
 13 15  2  0  0  0
 47 48  1  0  0  0
 48 49  1  0  0  0
 48 50  2  0  0  0
 73 68  1  0  0  0
 31 25  1  0  0  0
 22 18  1  0  0  0
 43 46  1  0  0  0
 59 61  1  0  0  0
 38 41  1  0  0  0
 64 66  1  0  0  0
 33 36  1  0  0  0
  2  5  1  0  0  0
 29 32  1  0  0  0
  7 10  1  0  0  0
 22 23  1  0  0  0
 12 16  1  0  0  0
 49 51  1  0  0  0
 49 52  1  0  0  0
M  END
> <minimizedAffinity>
-7.16534

> <CNNscore>
0.2816366553

> <CNNaffinity>
6.9450922012

> <CNN_VS>
1.9559925795

> <CNNaffinity_variance>
0.3638451099

$$$$
[H]OC(=O)C([H])([H])[C@@]([H])(C(=O)N([H])[C@]([H])(C(=O)N([H])[C@]([H])(C(=O)N([H])[H])C([H])([H])C([H])(C([H])([H])[H])C([H])([H])[H])C([H])([H])C(=O)O[H])N([H])C(=O)[C@@]([H])(N([H])C(=O)[C@@]([H])(N([H])C(=O)[C@@]([H])(N([H])C(=O)C([H])([H])[H])C([H])([H])c1c([H])nc([H])n1[H])C([H])([H])c1c([H])c([H])c(O[H])c([H])c1[H])C([H])([H])c1c([H])c([H])c([H])c([H])c1[H]


 73 75  0  0  0  0  0  0  0  0999 V2000
  153.1393  137.1227  187.1024 C   0  0  0  0  0  0  0  0  0  0  0  0
  153.0132  137.7722  185.8340 N   0  0  0  0  0  0  0  0  0  0  0  0
  154.0280  138.4501  185.1808 C   0  0  0  0  0  0  0  0  0  0  0  0
  155.1989  138.6140  185.6090 O   0  0  0  0  0  0  0  0  0  0  0  0
  152.0649  137.7164  185.3792 H   0  0  0  0  0  0  0  0  0  0  0  0
  153.7632  139.0871  183.8040 C   0  0  0  0  0  0  0  0  0  0  0  0
  155.0680  139.5855  183.3393 N   0  0  0  0  0  0  0  0  0  0  0  0
  155.3614  140.9435  183.3138 C   0  0  0  0  0  0  0  0  0  0  0  0
  154.3606  141.7024  183.7067 O   0  0  0  0  0  0  0  0  0  0  0  0
  155.7259  138.8491  183.0567 H   0  0  0  0  0  0  0  0  0  0  0  0
  156.5860  141.6179  182.9370 C   0  0  0  0  0  0  0  0  0  0  0  0
  157.3949  141.9749  184.1093 N   0  0  0  0  0  0  0  0  0  0  0  0
  158.1073  141.0625  184.9026 C   0  0  0  0  0  0  0  0  0  0  0  0
  158.8905  141.5475  186.0544 C   0  0  0  0  0  0  0  0  0  0  0  0
  158.0924  139.8366  184.6504 O   0  0  0  0  0  0  0  0  0  0  0  0
  157.4047  142.9971  184.3325 H   0  0  0  0  0  0  0  0  0  0  0  0
  157.4571  141.0239  181.9100 C   0  0  0  0  0  0  0  0  0  0  0  0
  158.0754  141.9454  180.9304 C   0  0  0  0  0  0  0  0  0  0  0  0
  157.9944  141.7618  179.5530 C   0  0  0  0  0  0  0  0  0  0  0  0
  158.7136  142.7184  178.9869 N   0  0  0  0  0  0  0  0  0  0  0  0
  159.2574  143.5131  179.9534 C   0  0  0  0  0  0  0  0  0  0  0  0
  158.8463  143.0136  181.1143 N   0  0  0  0  0  0  0  0  0  0  0  0
  159.0825  143.3842  182.0587 H   0  0  0  0  0  0  0  0  0  0  0  0
  153.1424  138.0564  182.9403 C   0  0  0  0  0  0  0  0  0  0  0  0
  152.3270  138.5149  181.8031 C   0  0  0  0  0  0  0  0  0  0  0  0
  151.1942  137.7714  181.4314 C   0  0  0  0  0  0  0  0  0  0  0  0
  150.4404  138.1485  180.3682 C   0  0  0  0  0  0  0  0  0  0  0  0
  150.7100  139.2554  179.5871 C   0  0  0  0  0  0  0  0  0  0  0  0
  149.9373  139.6228  178.5118 O   0  0  0  0  0  0  0  0  0  0  0  0
  151.8404  139.9843  179.9694 C   0  0  0  0  0  0  0  0  0  0  0  0
  152.6126  139.6122  181.0438 C   0  0  0  0  0  0  0  0  0  0  0  0
  150.1014  139.3003  177.5729 H   0  0  0  0  0  0  0  0  0  0  0  0
  150.8272  136.1113  186.6449 N   0  0  0  0  0  0  0  0  0  0  0  0
  152.0014  136.2641  187.4285 C   0  0  0  0  0  0  0  0  0  0  0  0
  152.0804  135.6006  188.5138 O   0  0  0  0  0  0  0  0  0  0  0  0
  150.6890  136.6419  185.7542 H   0  0  0  0  0  0  0  0  0  0  0  0
  149.8089  135.1840  187.1246 C   0  0  0  0  0  0  0  0  0  0  0  0
  149.6212  134.6818  189.5562 N   0  0  0  0  0  0  0  0  0  0  0  0
  149.2808  135.4922  188.4480 C   0  0  0  0  0  0  0  0  0  0  0  0
  148.5218  136.4724  188.6007 O   0  0  0  0  0  0  0  0  0  0  0  0
  150.2562  133.8594  189.3818 H   0  0  0  0  0  0  0  0  0  0  0  0
  149.1762  134.8851  190.9132 C   0  0  0  0  0  0  0  0  0  0  0  0
  151.3513  134.7673  192.2154 N   0  0  0  0  0  0  0  0  0  0  0  0
  150.2067  135.4698  191.7474 C   0  0  0  0  0  0  0  0  0  0  0  0
  150.1304  136.6954  192.1091 O   0  0  0  0  0  0  0  0  0  0  0  0
  151.4238  133.7635  191.9450 H   0  0  0  0  0  0  0  0  0  0  0  0
  152.3983  135.4338  193.0441 C   0  0  0  0  0  0  0  0  0  0  0  0
  153.6536  135.4438  192.3037 C   0  0  0  0  0  0  0  0  0  0  0  0
  153.7840  135.0915  190.9391 N   0  0  0  0  0  0  0  0  0  0  0  0
  154.7076  135.7838  192.9031 O   0  0  0  0  0  0  0  0  0  0  0  0
  154.7167  134.9369  190.4769 H   0  0  0  0  0  0  0  0  0  0  0  0
  152.9551  134.9552  190.2852 H   0  0  0  0  0  0  0  0  0  0  0  0
  152.3507  134.7568  194.3449 C   0  0  0  0  0  0  0  0  0  0  0  0
  150.1390  134.1841  195.4542 C   0  0  0  0  0  0  0  0  0  0  0  0
  151.3464  135.0824  195.3628 C   0  0  0  0  0  0  0  0  0  0  0  0
  151.9253  135.3715  196.7373 C   0  0  0  0  0  0  0  0  0  0  0  0
  148.7792  133.4786  191.4181 C   0  0  0  0  0  0  0  0  0  0  0  0
  149.3410  132.4108  190.6081 C   0  0  0  0  0  0  0  0  0  0  0  0
  148.5867  131.7725  189.6441 O   0  0  0  0  0  0  0  0  0  0  0  0
  150.5348  132.0188  190.7471 O   0  0  0  0  0  0  0  0  0  0  0  0
  147.5707  131.6969  189.6996 H   0  0  0  0  0  0  0  0  0  0  0  0
  150.4403  133.7782  187.0995 C   0  0  0  0  0  0  0  0  0  0  0  0
  150.5092  133.2186  185.7571 C   0  0  0  0  0  0  0  0  0  0  0  0
  150.7520  131.8425  185.6226 O   0  0  0  0  0  0  0  0  0  0  0  0
  150.3651  133.8947  184.7394 O   0  0  0  0  0  0  0  0  0  0  0  0
  150.3771  131.2874  184.8618 H   0  0  0  0  0  0  0  0  0  0  0  0
  153.2148  138.2100  188.2138 C   0  0  0  0  0  0  0  0  0  0  0  0
  154.4125  138.0860  189.0358 C   0  0  0  0  0  0  0  0  0  0  0  0
  155.5374  137.3755  188.6983 C   0  0  0  0  0  0  0  0  0  0  0  0
  156.6286  137.2955  189.5360 C   0  0  0  0  0  0  0  0  0  0  0  0
  156.6493  137.9308  190.7687 C   0  0  0  0  0  0  0  0  0  0  0  0
  155.5436  138.6415  191.1218 C   0  0  0  0  0  0  0  0  0  0  0  0
  154.4385  138.7258  190.2781 C   0  0  0  0  0  0  0  0  0  0  0  0
 54 55  1  0  0  0
 55 56  1  0  0  0
 55 53  1  0  0  0
 53 47  1  0  0  0
 47 43  1  0  0  0
 43 44  1  0  0  0
 44 45  2  0  0  0
 44 42  1  0  0  0
 42 57  1  0  0  0
 57 58  1  0  0  0
 58 59  1  0  0  0
 58 60  2  0  0  0
 42 38  1  0  0  0
 38 39  1  0  0  0
 39 40  2  0  0  0
 39 37  1  0  0  0
 37 62  1  0  0  0
 62 63  1  0  0  0
 63 64  1  0  0  0
 63 65  2  0  0  0
 37 33  1  0  0  0
 33 34  1  0  0  0
 34 35  2  0  0  0
 34  1  1  0  0  0
  1 67  1  0  0  0
 67 68  1  0  0  0
 68 69  2  0  0  0
 69 70  1  0  0  0
 70 71  2  0  0  0
 71 72  1  0  0  0
 72 73  2  0  0  0
  1  2  1  0  0  0
  2  3  1  0  0  0
  3  4  2  0  0  0
  3  6  1  0  0  0
  6 24  1  0  0  0
 24 25  1  0  0  0
 25 26  2  0  0  0
 26 27  1  0  0  0
 27 28  2  0  0  0
 28 29  1  0  0  0
 28 30  1  0  0  0
 30 31  2  0  0  0
  6  7  1  0  0  0
  7  8  1  0  0  0
  8  9  2  0  0  0
  8 11  1  0  0  0
 11 17  1  0  0  0
 17 18  1  0  0  0
 18 19  2  0  0  0
 19 20  1  0  0  0
 20 21  2  0  0  0
 21 22  1  0  0  0
 11 12  1  0  0  0
 12 13  1  0  0  0
 13 14  1  0  0  0
 13 15  2  0  0  0
 47 48  1  0  0  0
 48 49  1  0  0  0
 48 50  2  0  0  0
 73 68  1  0  0  0
 31 25  1  0  0  0
 22 18  1  0  0  0
 43 46  1  0  0  0
 59 61  1  0  0  0
 38 41  1  0  0  0
 64 66  1  0  0  0
 33 36  1  0  0  0
  2  5  1  0  0  0
 29 32  1  0  0  0
  7 10  1  0  0  0
 22 23  1  0  0  0
 12 16  1  0  0  0
 49 51  1  0  0  0
 49 52  1  0  0  0
M  END
> <minimizedAffinity>
-7.71798

> <CNNscore>
0.2449167073

> <CNNaffinity>
6.9178857803

> <CNN_VS>
1.6943057775

> <CNNaffinity_variance>
0.2543194890

$$$$
[H]OC(=O)C([H])([H])[C@@]([H])(C(=O)N([H])[C@]([H])(C(=O)N([H])[C@]([H])(C(=O)N([H])[H])C([H])([H])C([H])(C([H])([H])[H])C([H])([H])[H])C([H])([H])C(=O)O[H])N([H])C(=O)[C@@]([H])(N([H])C(=O)[C@@]([H])(N([H])C(=O)[C@@]([H])(N([H])C(=O)C([H])([H])[H])C([H])([H])c1c([H])nc([H])n1[H])C([H])([H])c1c([H])c([H])c(O[H])c([H])c1[H])C([H])([H])c1c([H])c([H])c([H])c([H])c1[H]


 73 75  0  0  0  0  0  0  0  0999 V2000
  153.0236  137.0684  187.3184 C   0  0  0  0  0  0  0  0  0  0  0  0
  153.0875  137.7676  186.0720 N   0  0  0  0  0  0  0  0  0  0  0  0
  154.2264  138.3477  185.5404 C   0  0  0  0  0  0  0  0  0  0  0  0
  155.3633  138.3654  186.0774 O   0  0  0  0  0  0  0  0  0  0  0  0
  152.1852  137.8330  185.5327 H   0  0  0  0  0  0  0  0  0  0  0  0
  154.1618  139.0535  184.1733 C   0  0  0  0  0  0  0  0  0  0  0  0
  155.5557  139.3738  183.8252 N   0  0  0  0  0  0  0  0  0  0  0  0
  155.9911  140.6874  183.6995 C   0  0  0  0  0  0  0  0  0  0  0  0
  155.0377  141.5748  183.8877 O   0  0  0  0  0  0  0  0  0  0  0  0
  156.1602  138.5527  183.7014 H   0  0  0  0  0  0  0  0  0  0  0  0
  157.3144  141.1992  183.4107 C   0  0  0  0  0  0  0  0  0  0  0  0
  158.1682  141.2085  184.6053 N   0  0  0  0  0  0  0  0  0  0  0  0
  159.2050  142.1231  184.8452 C   0  0  0  0  0  0  0  0  0  0  0  0
  159.9899  142.0318  186.0906 C   0  0  0  0  0  0  0  0  0  0  0  0
  159.4790  143.0221  184.0184 O   0  0  0  0  0  0  0  0  0  0  0  0
  157.9518  140.4539  185.2970 H   0  0  0  0  0  0  0  0  0  0  0  0
  158.0747  140.6507  182.2761 C   0  0  0  0  0  0  0  0  0  0  0  0
  158.3806  141.5705  181.1575 C   0  0  0  0  0  0  0  0  0  0  0  0
  157.7368  141.5140  179.9247 C   0  0  0  0  0  0  0  0  0  0  0  0
  158.3027  142.4220  179.1447 N   0  0  0  0  0  0  0  0  0  0  0  0
  159.2916  143.0622  179.8329 C   0  0  0  0  0  0  0  0  0  0  0  0
  159.3056  142.5198  181.0461 N   0  0  0  0  0  0  0  0  0  0  0  0
  159.9460  142.7791  181.8257 H   0  0  0  0  0  0  0  0  0  0  0  0
  153.4725  138.1456  183.2274 C   0  0  0  0  0  0  0  0  0  0  0  0
  152.7841  138.7504  182.0746 C   0  0  0  0  0  0  0  0  0  0  0  0
  152.0070  137.9323  181.2373 C   0  0  0  0  0  0  0  0  0  0  0  0
  151.3866  138.4521  180.1484 C   0  0  0  0  0  0  0  0  0  0  0  0
  151.4612  139.7816  179.7812 C   0  0  0  0  0  0  0  0  0  0  0  0
  150.8280  140.2921  178.6736 O   0  0  0  0  0  0  0  0  0  0  0  0
  152.2382  140.5823  180.6239 C   0  0  0  0  0  0  0  0  0  0  0  0
  152.8724  140.0676  181.7294 C   0  0  0  0  0  0  0  0  0  0  0  0
  151.2500  140.3329  177.7611 H   0  0  0  0  0  0  0  0  0  0  0  0
  151.5277  135.3098  188.4353 N   0  0  0  0  0  0  0  0  0  0  0  0
  151.7496  136.3834  187.5329 C   0  0  0  0  0  0  0  0  0  0  0  0
  150.7590  136.7929  186.8436 O   0  0  0  0  0  0  0  0  0  0  0  0
  152.3016  134.9118  189.0156 H   0  0  0  0  0  0  0  0  0  0  0  0
  150.1751  134.7724  188.5288 C   0  0  0  0  0  0  0  0  0  0  0  0
  149.3822  133.9408  190.7378 N   0  0  0  0  0  0  0  0  0  0  0  0
  149.5177  134.9998  189.8100 C   0  0  0  0  0  0  0  0  0  0  0  0
  149.0691  136.1326  190.0851 O   0  0  0  0  0  0  0  0  0  0  0  0
  149.7659  132.9991  190.4620 H   0  0  0  0  0  0  0  0  0  0  0  0
  148.7649  134.0375  192.0379 C   0  0  0  0  0  0  0  0  0  0  0  0
  150.9228  133.8706  193.3633 N   0  0  0  0  0  0  0  0  0  0  0  0
  149.6889  134.5054  193.0514 C   0  0  0  0  0  0  0  0  0  0  0  0
  149.4259  135.5563  193.7334 O   0  0  0  0  0  0  0  0  0  0  0  0
  151.1480  133.0040  192.8299 H   0  0  0  0  0  0  0  0  0  0  0  0
  151.8509  134.4200  194.3948 C   0  0  0  0  0  0  0  0  0  0  0  0
  151.3828  134.0189  195.7154 C   0  0  0  0  0  0  0  0  0  0  0  0
  150.4817  132.9550  195.9593 N   0  0  0  0  0  0  0  0  0  0  0  0
  151.7949  134.6529  196.7224 O   0  0  0  0  0  0  0  0  0  0  0  0
  150.0247  132.7981  196.8941 H   0  0  0  0  0  0  0  0  0  0  0  0
  150.1998  132.2422  195.2206 H   0  0  0  0  0  0  0  0  0  0  0  0
  151.9647  135.8505  194.0898 C   0  0  0  0  0  0  0  0  0  0  0  0
  153.8848  135.4387  192.4793 C   0  0  0  0  0  0  0  0  0  0  0  0
  152.8096  136.3566  193.0031 C   0  0  0  0  0  0  0  0  0  0  0  0
  152.0385  137.0087  191.8681 C   0  0  0  0  0  0  0  0  0  0  0  0
  148.2683  132.6071  192.3515 C   0  0  0  0  0  0  0  0  0  0  0  0
  148.9146  131.5952  191.5329 C   0  0  0  0  0  0  0  0  0  0  0  0
  150.2121  131.1955  191.7825 O   0  0  0  0  0  0  0  0  0  0  0  0
  148.3256  131.0391  190.5623 O   0  0  0  0  0  0  0  0  0  0  0  0
  150.9001  131.8031  192.2281 H   0  0  0  0  0  0  0  0  0  0  0  0
  150.2733  133.2652  188.2223 C   0  0  0  0  0  0  0  0  0  0  0  0
  151.6115  132.7347  188.4411 C   0  0  0  0  0  0  0  0  0  0  0  0
  151.9826  132.3868  189.7496 O   0  0  0  0  0  0  0  0  0  0  0  0
  152.4286  132.5786  187.5347 O   0  0  0  0  0  0  0  0  0  0  0  0
  152.6247  131.6311  189.9589 H   0  0  0  0  0  0  0  0  0  0  0  0
  153.1810  138.0975  188.4758 C   0  0  0  0  0  0  0  0  0  0  0  0
  154.3595  137.8407  189.2948 C   0  0  0  0  0  0  0  0  0  0  0  0
  155.1958  136.7598  189.1665 C   0  0  0  0  0  0  0  0  0  0  0  0
  156.2868  136.5797  189.9885 C   0  0  0  0  0  0  0  0  0  0  0  0
  156.5999  137.4837  190.9927 C   0  0  0  0  0  0  0  0  0  0  0  0
  155.7833  138.5630  191.1360 C   0  0  0  0  0  0  0  0  0  0  0  0
  154.6797  138.7497  190.3070 C   0  0  0  0  0  0  0  0  0  0  0  0
 54 55  1  0  0  0
 55 56  1  0  0  0
 55 53  1  0  0  0
 53 47  1  0  0  0
 47 43  1  0  0  0
 43 44  1  0  0  0
 44 45  2  0  0  0
 44 42  1  0  0  0
 42 57  1  0  0  0
 57 58  1  0  0  0
 58 59  1  0  0  0
 58 60  2  0  0  0
 42 38  1  0  0  0
 38 39  1  0  0  0
 39 40  2  0  0  0
 39 37  1  0  0  0
 37 62  1  0  0  0
 62 63  1  0  0  0
 63 64  1  0  0  0
 63 65  2  0  0  0
 37 33  1  0  0  0
 33 34  1  0  0  0
 34 35  2  0  0  0
 34  1  1  0  0  0
  1 67  1  0  0  0
 67 68  1  0  0  0
 68 69  2  0  0  0
 69 70  1  0  0  0
 70 71  2  0  0  0
 71 72  1  0  0  0
 72 73  2  0  0  0
  1  2  1  0  0  0
  2  3  1  0  0  0
  3  4  2  0  0  0
  3  6  1  0  0  0
  6 24  1  0  0  0
 24 25  1  0  0  0
 25 26  2  0  0  0
 26 27  1  0  0  0
 27 28  2  0  0  0
 28 29  1  0  0  0
 28 30  1  0  0  0
 30 31  2  0  0  0
  6  7  1  0  0  0
  7  8  1  0  0  0
  8  9  2  0  0  0
  8 11  1  0  0  0
 11 17  1  0  0  0
 17 18  1  0  0  0
 18 19  2  0  0  0
 19 20  1  0  0  0
 20 21  2  0  0  0
 21 22  1  0  0  0
 11 12  1  0  0  0
 12 13  1  0  0  0
 13 14  1  0  0  0
 13 15  2  0  0  0
 47 48  1  0  0  0
 48 49  1  0  0  0
 48 50  2  0  0  0
 73 68  1  0  0  0
 31 25  1  0  0  0
 22 18  1  0  0  0
 43 46  1  0  0  0
 59 61  1  0  0  0
 38 41  1  0  0  0
 64 66  1  0  0  0
 33 36  1  0  0  0
  2  5  1  0  0  0
 29 32  1  0  0  0
  7 10  1  0  0  0
 22 23  1  0  0  0
 12 16  1  0  0  0
 49 51  1  0  0  0
 49 52  1  0  0  0
M  END
> <minimizedAffinity>
-7.75862

> <CNNscore>
0.2278682142

> <CNNaffinity>
6.8248038292

> <CNN_VS>
1.5551558733

> <CNNaffinity_variance>
0.2919997871

$$$$
[H]OC(=O)C([H])([H])[C@@]([H])(C(=O)N([H])[C@]([H])(C(=O)N([H])[C@]([H])(C(=O)N([H])[H])C([H])([H])C([H])(C([H])([H])[H])C([H])([H])[H])C([H])([H])C(=O)O[H])N([H])C(=O)[C@@]([H])(N([H])C(=O)[C@@]([H])(N([H])C(=O)[C@@]([H])(N([H])C(=O)C([H])([H])[H])C([H])([H])c1c([H])nc([H])n1[H])C([H])([H])c1c([H])c([H])c(O[H])c([H])c1[H])C([H])([H])c1c([H])c([H])c([H])c([H])c1[H]


 73 75  0  0  0  0  0  0  0  0999 V2000
  153.1353  137.6203  187.0547 C   0  0  0  0  0  0  0  0  0  0  0  0
  153.2165  138.2451  185.7703 N   0  0  0  0  0  0  0  0  0  0  0  0
  154.3892  138.6287  185.1428 C   0  0  0  0  0  0  0  0  0  0  0  0
  155.5496  138.5057  185.6114 O   0  0  0  0  0  0  0  0  0  0  0  0
  152.2994  138.4161  185.2815 H   0  0  0  0  0  0  0  0  0  0  0  0
  154.3366  139.2731  183.7452 C   0  0  0  0  0  0  0  0  0  0  0  0
  155.7286  139.6197  183.4148 N   0  0  0  0  0  0  0  0  0  0  0  0
  156.1864  140.9302  183.4760 C   0  0  0  0  0  0  0  0  0  0  0  0
  155.2548  141.7945  183.8178 O   0  0  0  0  0  0  0  0  0  0  0  0
  156.3142  138.8168  183.1551 H   0  0  0  0  0  0  0  0  0  0  0  0
  157.5128  141.4584  183.2345 C   0  0  0  0  0  0  0  0  0  0  0  0
  157.6233  142.0674  181.9030 N   0  0  0  0  0  0  0  0  0  0  0  0
  158.2012  141.4512  180.7825 C   0  0  0  0  0  0  0  0  0  0  0  0
  158.2469  142.1672  179.4939 C   0  0  0  0  0  0  0  0  0  0  0  0
  158.6816  140.2976  180.8545 O   0  0  0  0  0  0  0  0  0  0  0  0
  157.2325  143.0358  181.8370 H   0  0  0  0  0  0  0  0  0  0  0  0
  158.1326  142.3501  184.2280 C   0  0  0  0  0  0  0  0  0  0  0  0
  159.6082  142.3172  184.3408 C   0  0  0  0  0  0  0  0  0  0  0  0
  160.3839  141.2488  183.9001 C   0  0  0  0  0  0  0  0  0  0  0  0
  161.6400  141.5176  184.2208 N   0  0  0  0  0  0  0  0  0  0  0  0
  161.7008  142.7240  184.8551 C   0  0  0  0  0  0  0  0  0  0  0  0
  160.4521  143.1758  184.9062 N   0  0  0  0  0  0  0  0  0  0  0  0
  160.1432  144.0761  185.3295 H   0  0  0  0  0  0  0  0  0  0  0  0
  153.6965  138.3054  182.8244 C   0  0  0  0  0  0  0  0  0  0  0  0
  152.3871  138.6644  182.2542 C   0  0  0  0  0  0  0  0  0  0  0  0
  151.2321  138.0332  182.7458 C   0  0  0  0  0  0  0  0  0  0  0  0
  150.0142  138.3173  182.2195 C   0  0  0  0  0  0  0  0  0  0  0  0
  149.8104  139.2188  181.1929 C   0  0  0  0  0  0  0  0  0  0  0  0
  148.5699  139.4940  180.6696 O   0  0  0  0  0  0  0  0  0  0  0  0
  150.9692  139.8379  180.7145 C   0  0  0  0  0  0  0  0  0  0  0  0
  152.2086  139.5581  181.2385 C   0  0  0  0  0  0  0  0  0  0  0  0
  148.1678  138.9899  179.8971 H   0  0  0  0  0  0  0  0  0  0  0  0
  150.7765  136.8303  186.4300 N   0  0  0  0  0  0  0  0  0  0  0  0
  151.7975  137.1227  187.3725 C   0  0  0  0  0  0  0  0  0  0  0  0
  151.5352  136.9404  188.6063 O   0  0  0  0  0  0  0  0  0  0  0  0
  150.9183  136.9772  185.4042 H   0  0  0  0  0  0  0  0  0  0  0  0
  149.5112  136.3152  186.9403 C   0  0  0  0  0  0  0  0  0  0  0  0
  150.1568  134.5016  188.5196 N   0  0  0  0  0  0  0  0  0  0  0  0
  149.5350  134.9066  187.3154 C   0  0  0  0  0  0  0  0  0  0  0  0
  149.0085  134.0560  186.5675 O   0  0  0  0  0  0  0  0  0  0  0  0
  150.5973  135.2500  189.1163 H   0  0  0  0  0  0  0  0  0  0  0  0
  150.2387  133.1468  189.0079 C   0  0  0  0  0  0  0  0  0  0  0  0
  150.7847  134.1408  191.2783 N   0  0  0  0  0  0  0  0  0  0  0  0
  150.3014  133.0871  190.4544 C   0  0  0  0  0  0  0  0  0  0  0  0
  149.9029  132.0428  191.0783 O   0  0  0  0  0  0  0  0  0  0  0  0
  151.1287  134.9939  190.7884 H   0  0  0  0  0  0  0  0  0  0  0  0
  150.7923  134.0346  192.7669 C   0  0  0  0  0  0  0  0  0  0  0  0
  149.5293  134.5450  193.2850 C   0  0  0  0  0  0  0  0  0  0  0  0
  148.3233  133.8054  193.3329 N   0  0  0  0  0  0  0  0  0  0  0  0
  149.4866  135.7251  193.7222 O   0  0  0  0  0  0  0  0  0  0  0  0
  147.3920  134.2471  193.5446 H   0  0  0  0  0  0  0  0  0  0  0  0
  148.2692  132.7569  193.1573 H   0  0  0  0  0  0  0  0  0  0  0  0
  152.0414  134.6748  193.1937 C   0  0  0  0  0  0  0  0  0  0  0  0
  152.5213  137.0994  192.6094 C   0  0  0  0  0  0  0  0  0  0  0  0
  152.7605  135.6338  192.3488 C   0  0  0  0  0  0  0  0  0  0  0  0
  154.2417  135.3352  192.1912 C   0  0  0  0  0  0  0  0  0  0  0  0
  151.5222  132.5686  188.3683 C   0  0  0  0  0  0  0  0  0  0  0  0
  152.5051  133.5922  188.0554 C   0  0  0  0  0  0  0  0  0  0  0  0
  153.0905  134.3489  189.0506 O   0  0  0  0  0  0  0  0  0  0  0  0
  152.8665  133.8368  186.8690 O   0  0  0  0  0  0  0  0  0  0  0  0
  152.6298  134.5406  189.9407 H   0  0  0  0  0  0  0  0  0  0  0  0
  148.4532  136.5748  185.8501 C   0  0  0  0  0  0  0  0  0  0  0  0
  148.0437  137.9707  185.7876 C   0  0  0  0  0  0  0  0  0  0  0  0
  148.1612  138.7502  186.9492 O   0  0  0  0  0  0  0  0  0  0  0  0
  147.6006  138.4955  184.7669 O   0  0  0  0  0  0  0  0  0  0  0  0
  148.3612  139.7437  186.9295 H   0  0  0  0  0  0  0  0  0  0  0  0
  153.4938  138.6727  188.1444 C   0  0  0  0  0  0  0  0  0  0  0  0
  154.6028  138.2460  188.9891 C   0  0  0  0  0  0  0  0  0  0  0  0
  155.5355  137.2957  188.6555 C   0  0  0  0  0  0  0  0  0  0  0  0
  156.5511  136.9369  189.5148 C   0  0  0  0  0  0  0  0  0  0  0  0
  156.6864  137.5185  190.7666 C   0  0  0  0  0  0  0  0  0  0  0  0
  155.7720  138.4641  191.1162 C   0  0  0  0  0  0  0  0  0  0  0  0
  154.7440  138.8306  190.2508 C   0  0  0  0  0  0  0  0  0  0  0  0
 54 55  1  0  0  0
 55 56  1  0  0  0
 55 53  1  0  0  0
 53 47  1  0  0  0
 47 43  1  0  0  0
 43 44  1  0  0  0
 44 45  2  0  0  0
 44 42  1  0  0  0
 42 57  1  0  0  0
 57 58  1  0  0  0
 58 59  1  0  0  0
 58 60  2  0  0  0
 42 38  1  0  0  0
 38 39  1  0  0  0
 39 40  2  0  0  0
 39 37  1  0  0  0
 37 62  1  0  0  0
 62 63  1  0  0  0
 63 64  1  0  0  0
 63 65  2  0  0  0
 37 33  1  0  0  0
 33 34  1  0  0  0
 34 35  2  0  0  0
 34  1  1  0  0  0
  1 67  1  0  0  0
 67 68  1  0  0  0
 68 69  2  0  0  0
 69 70  1  0  0  0
 70 71  2  0  0  0
 71 72  1  0  0  0
 72 73  2  0  0  0
  1  2  1  0  0  0
  2  3  1  0  0  0
  3  4  2  0  0  0
  3  6  1  0  0  0
  6 24  1  0  0  0
 24 25  1  0  0  0
 25 26  2  0  0  0
 26 27  1  0  0  0
 27 28  2  0  0  0
 28 29  1  0  0  0
 28 30  1  0  0  0
 30 31  2  0  0  0
  6  7  1  0  0  0
  7  8  1  0  0  0
  8  9  2  0  0  0
  8 11  1  0  0  0
 11 17  1  0  0  0
 17 18  1  0  0  0
 18 19  2  0  0  0
 19 20  1  0  0  0
 20 21  2  0  0  0
 21 22  1  0  0  0
 11 12  1  0  0  0
 12 13  1  0  0  0
 13 14  1  0  0  0
 13 15  2  0  0  0
 47 48  1  0  0  0
 48 49  1  0  0  0
 48 50  2  0  0  0
 73 68  1  0  0  0
 31 25  1  0  0  0
 22 18  1  0  0  0
 43 46  1  0  0  0
 59 61  1  0  0  0
 38 41  1  0  0  0
 64 66  1  0  0  0
 33 36  1  0  0  0
  2  5  1  0  0  0
 29 32  1  0  0  0
  7 10  1  0  0  0
 22 23  1  0  0  0
 12 16  1  0  0  0
 49 51  1  0  0  0
 49 52  1  0  0  0
M  END
> <minimizedAffinity>
-7.65469

> <CNNscore>
0.2005145699

> <CNNaffinity>
6.8641004562

> <CNN_VS>
1.3763521910

> <CNNaffinity_variance>
0.5058848262

$$$$
[H]OC(=O)C([H])([H])[C@@]([H])(C(=O)N([H])[C@]([H])(C(=O)N([H])[C@]([H])(C(=O)N([H])[H])C([H])([H])C([H])(C([H])([H])[H])C([H])([H])[H])C([H])([H])C(=O)O[H])N([H])C(=O)[C@@]([H])(N([H])C(=O)[C@@]([H])(N([H])C(=O)[C@@]([H])(N([H])C(=O)C([H])([H])[H])C([H])([H])c1c([H])nc([H])n1[H])C([H])([H])c1c([H])c([H])c(O[H])c([H])c1[H])C([H])([H])c1c([H])c([H])c([H])c([H])c1[H]


 73 75  0  0  0  0  0  0  0  0999 V2000
  153.9868  136.5161  188.0023 C   0  0  0  0  0  0  0  0  0  0  0  0
  153.9664  137.2187  186.7563 N   0  0  0  0  0  0  0  0  0  0  0  0
  154.9918  138.0119  186.2711 C   0  0  0  0  0  0  0  0  0  0  0  0
  156.0792  138.2496  186.8562 O   0  0  0  0  0  0  0  0  0  0  0  0
  153.0927  137.1084  186.1786 H   0  0  0  0  0  0  0  0  0  0  0  0
  154.8493  138.6962  184.8990 C   0  0  0  0  0  0  0  0  0  0  0  0
  156.2036  139.1446  184.5361 N   0  0  0  0  0  0  0  0  0  0  0  0
  156.4486  140.4409  184.0994 C   0  0  0  0  0  0  0  0  0  0  0  0
  155.3627  141.1800  184.0196 O   0  0  0  0  0  0  0  0  0  0  0  0
  156.9307  138.4278  184.6478 H   0  0  0  0  0  0  0  0  0  0  0  0
  157.7003  141.0752  183.7427 C   0  0  0  0  0  0  0  0  0  0  0  0
  157.6491  141.6653  182.3990 N   0  0  0  0  0  0  0  0  0  0  0  0
  158.1243  141.0486  181.2316 C   0  0  0  0  0  0  0  0  0  0  0  0
  158.0099  141.7443  179.9361 C   0  0  0  0  0  0  0  0  0  0  0  0
  158.6463  139.9115  181.2670 O   0  0  0  0  0  0  0  0  0  0  0  0
  157.2228  142.6201  182.3623 H   0  0  0  0  0  0  0  0  0  0  0  0
  158.3192  142.0358  184.6703 C   0  0  0  0  0  0  0  0  0  0  0  0
  159.7964  142.1300  184.6622 C   0  0  0  0  0  0  0  0  0  0  0  0
  160.6142  141.2424  183.9688 C   0  0  0  0  0  0  0  0  0  0  0  0
  161.8679  141.5719  184.2382 N   0  0  0  0  0  0  0  0  0  0  0  0
  161.8866  142.6425  185.0838 C   0  0  0  0  0  0  0  0  0  0  0  0
  160.6147  142.9509  185.3147 N   0  0  0  0  0  0  0  0  0  0  0  0
  160.2725  143.7236  185.9237 H   0  0  0  0  0  0  0  0  0  0  0  0
  154.2421  137.7186  183.9665 C   0  0  0  0  0  0  0  0  0  0  0  0
  153.1267  138.1779  183.1219 C   0  0  0  0  0  0  0  0  0  0  0  0
  153.2281  139.4199  182.4729 C   0  0  0  0  0  0  0  0  0  0  0  0
  152.2050  139.8869  181.7141 C   0  0  0  0  0  0  0  0  0  0  0  0
  151.0181  139.2074  181.5197 C   0  0  0  0  0  0  0  0  0  0  0  0
  149.9902  139.6954  180.7491 O   0  0  0  0  0  0  0  0  0  0  0  0
  150.9325  137.9737  182.1722 C   0  0  0  0  0  0  0  0  0  0  0  0
  151.9616  137.4901  182.9444 C   0  0  0  0  0  0  0  0  0  0  0  0
  149.2477  140.2696  181.1115 H   0  0  0  0  0  0  0  0  0  0  0  0
  154.1037  134.1921  186.9236 N   0  0  0  0  0  0  0  0  0  0  0  0
  154.5039  135.1529  187.8895 C   0  0  0  0  0  0  0  0  0  0  0  0
  155.3896  134.8071  188.7381 O   0  0  0  0  0  0  0  0  0  0  0  0
  153.3670  134.4035  186.2119 H   0  0  0  0  0  0  0  0  0  0  0  0
  154.7563  132.8882  186.9548 C   0  0  0  0  0  0  0  0  0  0  0  0
  156.5836  131.5245  185.9544 N   0  0  0  0  0  0  0  0  0  0  0  0
  155.8864  132.7518  186.0441 C   0  0  0  0  0  0  0  0  0  0  0  0
  156.2413  133.7244  185.3453 O   0  0  0  0  0  0  0  0  0  0  0  0
  156.2576  130.7328  186.5684 H   0  0  0  0  0  0  0  0  0  0  0  0
  157.7063  131.2579  185.0887 C   0  0  0  0  0  0  0  0  0  0  0  0
  157.4101  132.2670  182.7790 N   0  0  0  0  0  0  0  0  0  0  0  0
  157.3189  131.1825  183.6944 C   0  0  0  0  0  0  0  0  0  0  0  0
  156.8646  130.0900  183.2057 O   0  0  0  0  0  0  0  0  0  0  0  0
  157.7628  133.1701  183.1614 H   0  0  0  0  0  0  0  0  0  0  0  0
  157.0283  132.1189  181.3439 C   0  0  0  0  0  0  0  0  0  0  0  0
  158.2298  131.8726  180.5566 C   0  0  0  0  0  0  0  0  0  0  0  0
  158.3969  130.7862  179.6649 N   0  0  0  0  0  0  0  0  0  0  0  0
  159.1992  132.6688  180.6658 O   0  0  0  0  0  0  0  0  0  0  0  0
  159.3276  130.5311  179.2453 H   0  0  0  0  0  0  0  0  0  0  0  0
  157.6006  130.1503  179.3571 H   0  0  0  0  0  0  0  0  0  0  0  0
  156.2122  133.2990  181.0372 C   0  0  0  0  0  0  0  0  0  0  0  0
  154.3673  134.4150  182.3793 C   0  0  0  0  0  0  0  0  0  0  0  0
  154.7862  133.3754  181.3709 C   0  0  0  0  0  0  0  0  0  0  0  0
  153.8641  133.3737  180.1635 C   0  0  0  0  0  0  0  0  0  0  0  0
  158.2806  129.9102  185.5832 C   0  0  0  0  0  0  0  0  0  0  0  0
  159.6989  129.7656  185.3009 C   0  0  0  0  0  0  0  0  0  0  0  0
  160.2172  128.5736  184.8362 O   0  0  0  0  0  0  0  0  0  0  0  0
  160.5173  130.7147  185.4669 O   0  0  0  0  0  0  0  0  0  0  0  0
  159.7878  127.6700  185.0372 H   0  0  0  0  0  0  0  0  0  0  0  0
  153.6704  131.8399  186.6428 C   0  0  0  0  0  0  0  0  0  0  0  0
  152.5175  132.4125  185.9624 C   0  0  0  0  0  0  0  0  0  0  0  0
  151.3923  132.7499  186.7312 O   0  0  0  0  0  0  0  0  0  0  0  0
  152.4849  132.6128  184.7490 O   0  0  0  0  0  0  0  0  0  0  0  0
  150.7790  133.5237  186.5021 H   0  0  0  0  0  0  0  0  0  0  0  0
  152.5281  136.4008  188.5334 C   0  0  0  0  0  0  0  0  0  0  0  0
  152.4431  136.5871  189.9769 C   0  0  0  0  0  0  0  0  0  0  0  0
  151.3628  136.2595  190.7579 C   0  0  0  0  0  0  0  0  0  0  0  0
  151.3532  136.4772  192.1184 C   0  0  0  0  0  0  0  0  0  0  0  0
  152.4379  137.0403  192.7742 C   0  0  0  0  0  0  0  0  0  0  0  0
  153.5197  137.3715  192.0177 C   0  0  0  0  0  0  0  0  0  0  0  0
  153.5344  137.1527  190.6422 C   0  0  0  0  0  0  0  0  0  0  0  0
 54 55  1  0  0  0
 55 56  1  0  0  0
 55 53  1  0  0  0
 53 47  1  0  0  0
 47 43  1  0  0  0
 43 44  1  0  0  0
 44 45  2  0  0  0
 44 42  1  0  0  0
 42 57  1  0  0  0
 57 58  1  0  0  0
 58 59  1  0  0  0
 58 60  2  0  0  0
 42 38  1  0  0  0
 38 39  1  0  0  0
 39 40  2  0  0  0
 39 37  1  0  0  0
 37 62  1  0  0  0
 62 63  1  0  0  0
 63 64  1  0  0  0
 63 65  2  0  0  0
 37 33  1  0  0  0
 33 34  1  0  0  0
 34 35  2  0  0  0
 34  1  1  0  0  0
  1 67  1  0  0  0
 67 68  1  0  0  0
 68 69  2  0  0  0
 69 70  1  0  0  0
 70 71  2  0  0  0
 71 72  1  0  0  0
 72 73  2  0  0  0
  1  2  1  0  0  0
  2  3  1  0  0  0
  3  4  2  0  0  0
  3  6  1  0  0  0
  6 24  1  0  0  0
 24 25  1  0  0  0
 25 26  2  0  0  0
 26 27  1  0  0  0
 27 28  2  0  0  0
 28 29  1  0  0  0
 28 30  1  0  0  0
 30 31  2  0  0  0
  6  7  1  0  0  0
  7  8  1  0  0  0
  8  9  2  0  0  0
  8 11  1  0  0  0
 11 17  1  0  0  0
 17 18  1  0  0  0
 18 19  2  0  0  0
 19 20  1  0  0  0
 20 21  2  0  0  0
 21 22  1  0  0  0
 11 12  1  0  0  0
 12 13  1  0  0  0
 13 14  1  0  0  0
 13 15  2  0  0  0
 47 48  1  0  0  0
 48 49  1  0  0  0
 48 50  2  0  0  0
 73 68  1  0  0  0
 31 25  1  0  0  0
 22 18  1  0  0  0
 43 46  1  0  0  0
 59 61  1  0  0  0
 38 41  1  0  0  0
 64 66  1  0  0  0
 33 36  1  0  0  0
  2  5  1  0  0  0
 29 32  1  0  0  0
  7 10  1  0  0  0
 22 23  1  0  0  0
 12 16  1  0  0  0
 49 51  1  0  0  0
 49 52  1  0  0  0
M  END
> <minimizedAffinity>
-6.79896

> <CNNscore>
0.1984129250

> <CNNaffinity>
6.9708619118

> <CNN_VS>
1.3831090927

> <CNNaffinity_variance>
0.4822173715

$$$$
[H]OC(=O)C([H])([H])[C@@]([H])(C(=O)N([H])[C@]([H])(C(=O)N([H])[C@]([H])(C(=O)N([H])[H])C([H])([H])C([H])(C([H])([H])[H])C([H])([H])[H])C([H])([H])C(=O)O[H])N([H])C(=O)[C@@]([H])(N([H])C(=O)[C@@]([H])(N([H])C(=O)[C@@]([H])(N([H])C(=O)C([H])([H])[H])C([H])([H])c1c([H])nc([H])n1[H])C([H])([H])c1c([H])c([H])c(O[H])c([H])c1[H])C([H])([H])c1c([H])c([H])c([H])c([H])c1[H]


 73 75  0  0  0  0  0  0  0  0999 V2000
  153.2589  137.4082  187.2536 C   0  0  0  0  0  0  0  0  0  0  0  0
  153.4825  138.1342  186.0413 N   0  0  0  0  0  0  0  0  0  0  0  0
  154.7153  138.5738  185.5908 C   0  0  0  0  0  0  0  0  0  0  0  0
  155.8136  138.4207  186.1838 O   0  0  0  0  0  0  0  0  0  0  0  0
  152.6274  138.3382  185.4612 H   0  0  0  0  0  0  0  0  0  0  0  0
  154.8192  139.3276  184.2521 C   0  0  0  0  0  0  0  0  0  0  0  0
  156.2355  139.7057  184.1178 N   0  0  0  0  0  0  0  0  0  0  0  0
  156.6284  141.0355  184.0281 C   0  0  0  0  0  0  0  0  0  0  0  0
  155.6201  141.8811  184.0424 O   0  0  0  0  0  0  0  0  0  0  0  0
  156.8866  138.9113  184.1110 H   0  0  0  0  0  0  0  0  0  0  0  0
  157.9574  141.6027  183.9365 C   0  0  0  0  0  0  0  0  0  0  0  0
  158.0000  142.7468  183.0171 N   0  0  0  0  0  0  0  0  0  0  0  0
  158.7342  142.7910  181.8221 C   0  0  0  0  0  0  0  0  0  0  0  0
  158.6903  144.0002  180.9787 C   0  0  0  0  0  0  0  0  0  0  0  0
  159.4300  141.8178  181.4539 O   0  0  0  0  0  0  0  0  0  0  0  0
  157.4284  143.5682  183.3227 H   0  0  0  0  0  0  0  0  0  0  0  0
  158.6896  141.9427  185.1672 C   0  0  0  0  0  0  0  0  0  0  0  0
  160.1644  142.0300  185.0760 C   0  0  0  0  0  0  0  0  0  0  0  0
  160.9480  142.7075  186.0059 C   0  0  0  0  0  0  0  0  0  0  0  0
  162.2006  142.6474  185.5811 N   0  0  0  0  0  0  0  0  0  0  0  0
  162.2515  141.9543  184.4070 C   0  0  0  0  0  0  0  0  0  0  0  0
  161.0004  141.5967  184.1367 N   0  0  0  0  0  0  0  0  0  0  0  0
  160.6846  141.0532  183.3061 H   0  0  0  0  0  0  0  0  0  0  0  0
  154.3058  138.4337  183.1884 C   0  0  0  0  0  0  0  0  0  0  0  0
  153.0341  138.7977  182.5413 C   0  0  0  0  0  0  0  0  0  0  0  0
  151.9051  137.9879  182.7507 C   0  0  0  0  0  0  0  0  0  0  0  0
  150.7270  138.2770  182.1431 C   0  0  0  0  0  0  0  0  0  0  0  0
  150.5406  139.3530  181.2972 C   0  0  0  0  0  0  0  0  0  0  0  0
  149.3407  139.6311  180.6878 O   0  0  0  0  0  0  0  0  0  0  0  0
  151.6732  140.1487  181.0987 C   0  0  0  0  0  0  0  0  0  0  0  0
  152.8725  139.8659  181.7077 C   0  0  0  0  0  0  0  0  0  0  0  0
  149.0771  139.2682  179.7871 H   0  0  0  0  0  0  0  0  0  0  0  0
  151.5811  135.6019  187.9610 N   0  0  0  0  0  0  0  0  0  0  0  0
  151.9156  136.8378  187.3470 C   0  0  0  0  0  0  0  0  0  0  0  0
  150.9705  137.5168  186.8276 O   0  0  0  0  0  0  0  0  0  0  0  0
  152.3107  134.9859  188.3876 H   0  0  0  0  0  0  0  0  0  0  0  0
  150.1756  135.2128  187.9778 C   0  0  0  0  0  0  0  0  0  0  0  0
  149.7907  133.6688  189.8930 N   0  0  0  0  0  0  0  0  0  0  0  0
  149.6345  134.9457  189.3049 C   0  0  0  0  0  0  0  0  0  0  0  0
  149.0273  135.8470  189.9207 O   0  0  0  0  0  0  0  0  0  0  0  0
  150.3008  132.9346  189.3354 H   0  0  0  0  0  0  0  0  0  0  0  0
  149.3139  133.2815  191.1981 C   0  0  0  0  0  0  0  0  0  0  0  0
  150.2738  134.4693  193.2250 N   0  0  0  0  0  0  0  0  0  0  0  0
  150.3203  133.4587  192.2255 C   0  0  0  0  0  0  0  0  0  0  0  0
  151.3330  132.6778  192.2829 O   0  0  0  0  0  0  0  0  0  0  0  0
  149.4651  135.1255  193.1858 H   0  0  0  0  0  0  0  0  0  0  0  0
  151.3234  134.5806  194.2801 C   0  0  0  0  0  0  0  0  0  0  0  0
  150.7409  134.2249  195.5678 C   0  0  0  0  0  0  0  0  0  0  0  0
  149.6955  134.9387  196.2010 N   0  0  0  0  0  0  0  0  0  0  0  0
  151.1874  133.2172  196.1768 O   0  0  0  0  0  0  0  0  0  0  0  0
  149.4144  134.7700  197.2009 H   0  0  0  0  0  0  0  0  0  0  0  0
  149.1228  135.6946  195.7176 H   0  0  0  0  0  0  0  0  0  0  0  0
  151.9008  135.9188  194.1112 C   0  0  0  0  0  0  0  0  0  0  0  0
  153.7815  135.2491  192.5414 C   0  0  0  0  0  0  0  0  0  0  0  0
  152.7556  136.2667  192.9715 C   0  0  0  0  0  0  0  0  0  0  0  0
  152.0025  136.8303  191.7785 C   0  0  0  0  0  0  0  0  0  0  0  0
  148.9185  131.7937  191.0534 C   0  0  0  0  0  0  0  0  0  0  0  0
  149.5075  131.1664  189.8824 C   0  0  0  0  0  0  0  0  0  0  0  0
  150.8723  130.9871  189.7780 O   0  0  0  0  0  0  0  0  0  0  0  0
  148.8054  130.7601  188.9128 O   0  0  0  0  0  0  0  0  0  0  0  0
  151.5455  131.5917  190.2496 H   0  0  0  0  0  0  0  0  0  0  0  0
  150.0468  133.9721  187.0727 C   0  0  0  0  0  0  0  0  0  0  0  0
  149.4252  134.2751  185.7914 C   0  0  0  0  0  0  0  0  0  0  0  0
  149.8269  135.4388  185.1167 O   0  0  0  0  0  0  0  0  0  0  0  0
  148.5669  133.5603  185.2755 O   0  0  0  0  0  0  0  0  0  0  0  0
  149.8453  135.5126  184.1060 H   0  0  0  0  0  0  0  0  0  0  0  0
  153.4171  138.3846  188.4556 C   0  0  0  0  0  0  0  0  0  0  0  0
  154.4833  137.9824  189.3650 C   0  0  0  0  0  0  0  0  0  0  0  0
  154.9403  138.7198  190.4288 C   0  0  0  0  0  0  0  0  0  0  0  0
  155.9631  138.2762  191.2384 C   0  0  0  0  0  0  0  0  0  0  0  0
  156.5877  137.0570  191.0218 C   0  0  0  0  0  0  0  0  0  0  0  0
  156.1485  136.3099  189.9724 C   0  0  0  0  0  0  0  0  0  0  0  0
  155.1144  136.7538  189.1516 C   0  0  0  0  0  0  0  0  0  0  0  0
 54 55  1  0  0  0
 55 56  1  0  0  0
 55 53  1  0  0  0
 53 47  1  0  0  0
 47 43  1  0  0  0
 43 44  1  0  0  0
 44 45  2  0  0  0
 44 42  1  0  0  0
 42 57  1  0  0  0
 57 58  1  0  0  0
 58 59  1  0  0  0
 58 60  2  0  0  0
 42 38  1  0  0  0
 38 39  1  0  0  0
 39 40  2  0  0  0
 39 37  1  0  0  0
 37 62  1  0  0  0
 62 63  1  0  0  0
 63 64  1  0  0  0
 63 65  2  0  0  0
 37 33  1  0  0  0
 33 34  1  0  0  0
 34 35  2  0  0  0
 34  1  1  0  0  0
  1 67  1  0  0  0
 67 68  1  0  0  0
 68 69  2  0  0  0
 69 70  1  0  0  0
 70 71  2  0  0  0
 71 72  1  0  0  0
 72 73  2  0  0  0
  1  2  1  0  0  0
  2  3  1  0  0  0
  3  4  2  0  0  0
  3  6  1  0  0  0
  6 24  1  0  0  0
 24 25  1  0  0  0
 25 26  2  0  0  0
 26 27  1  0  0  0
 27 28  2  0  0  0
 28 29  1  0  0  0
 28 30  1  0  0  0
 30 31  2  0  0  0
  6  7  1  0  0  0
  7  8  1  0  0  0
  8  9  2  0  0  0
  8 11  1  0  0  0
 11 17  1  0  0  0
 17 18  1  0  0  0
 18 19  2  0  0  0
 19 20  1  0  0  0
 20 21  2  0  0  0
 21 22  1  0  0  0
 11 12  1  0  0  0
 12 13  1  0  0  0
 13 14  1  0  0  0
 13 15  2  0  0  0
 47 48  1  0  0  0
 48 49  1  0  0  0
 48 50  2  0  0  0
 73 68  1  0  0  0
 31 25  1  0  0  0
 22 18  1  0  0  0
 43 46  1  0  0  0
 59 61  1  0  0  0
 38 41  1  0  0  0
 64 66  1  0  0  0
 33 36  1  0  0  0
  2  5  1  0  0  0
 29 32  1  0  0  0
  7 10  1  0  0  0
 22 23  1  0  0  0
 12 16  1  0  0  0
 49 51  1  0  0  0
 49 52  1  0  0  0
M  END
> <minimizedAffinity>
-7.35323

> <CNNscore>
0.1976430714

> <CNNaffinity>
6.8433151245

> <CNN_VS>
1.3525338173

> <CNNaffinity_variance>
0.3786572814

$$$$
[H]OC(=O)C([H])([H])[C@@]([H])(C(=O)N([H])[C@]([H])(C(=O)N([H])[C@]([H])(C(=O)N([H])[H])C([H])([H])C([H])(C([H])([H])[H])C([H])([H])[H])C([H])([H])C(=O)O[H])N([H])C(=O)[C@@]([H])(N([H])C(=O)[C@@]([H])(N([H])C(=O)[C@@]([H])(N([H])C(=O)C([H])([H])[H])C([H])([H])c1c([H])nc([H])n1[H])C([H])([H])c1c([H])c([H])c(O[H])c([H])c1[H])C([H])([H])c1c([H])c([H])c([H])c([H])c1[H]


 73 75  0  0  0  0  0  0  0  0999 V2000
  153.3201  137.4104  187.2065 C   0  0  0  0  0  0  0  0  0  0  0  0
  153.1221  138.0078  185.9218 N   0  0  0  0  0  0  0  0  0  0  0  0
  154.1111  138.6040  185.1586 C   0  0  0  0  0  0  0  0  0  0  0  0
  155.3191  138.7281  185.4850 O   0  0  0  0  0  0  0  0  0  0  0  0
  152.1385  137.9792  185.5462 H   0  0  0  0  0  0  0  0  0  0  0  0
  153.7657  139.1911  183.7775 C   0  0  0  0  0  0  0  0  0  0  0  0
  155.0198  139.7673  183.2657 N   0  0  0  0  0  0  0  0  0  0  0  0
  155.2456  141.1383  183.2692 C   0  0  0  0  0  0  0  0  0  0  0  0
  154.2304  141.8346  183.7345 O   0  0  0  0  0  0  0  0  0  0  0  0
  155.6975  139.0731  182.9280 H   0  0  0  0  0  0  0  0  0  0  0  0
  156.4157  141.8837  182.8548 C   0  0  0  0  0  0  0  0  0  0  0  0
  157.6149  141.4727  183.5959 N   0  0  0  0  0  0  0  0  0  0  0  0
  158.3648  140.3159  183.3339 C   0  0  0  0  0  0  0  0  0  0  0  0
  159.5572  140.0149  184.1480 C   0  0  0  0  0  0  0  0  0  0  0  0
  158.0408  139.5290  182.4160 O   0  0  0  0  0  0  0  0  0  0  0  0
  157.8868  142.1205  184.3713 H   0  0  0  0  0  0  0  0  0  0  0  0
  156.7427  141.9874  181.4235 C   0  0  0  0  0  0  0  0  0  0  0  0
  157.7779  142.9714  181.0346 C   0  0  0  0  0  0  0  0  0  0  0  0
  158.6328  142.7921  179.9507 C   0  0  0  0  0  0  0  0  0  0  0  0
  159.4705  143.8173  179.9383 N   0  0  0  0  0  0  0  0  0  0  0  0
  159.1856  144.6521  180.9791 C   0  0  0  0  0  0  0  0  0  0  0  0
  158.1550  144.1064  181.6166 N   0  0  0  0  0  0  0  0  0  0  0  0
  157.6861  144.4900  182.4638 H   0  0  0  0  0  0  0  0  0  0  0  0
  153.1943  138.1015  182.9527 C   0  0  0  0  0  0  0  0  0  0  0  0
  152.3282  138.4785  181.8230 C   0  0  0  0  0  0  0  0  0  0  0  0
  152.7836  139.4391  180.9044 C   0  0  0  0  0  0  0  0  0  0  0  0
  151.9970  139.8326  179.8713 C   0  0  0  0  0  0  0  0  0  0  0  0
  150.7268  139.3413  179.6402 C   0  0  0  0  0  0  0  0  0  0  0  0
  149.9418  139.7520  178.5897 O   0  0  0  0  0  0  0  0  0  0  0  0
  150.2880  138.3869  180.5630 C   0  0  0  0  0  0  0  0  0  0  0  0
  151.0749  137.9807  181.6142 C   0  0  0  0  0  0  0  0  0  0  0  0
  149.3014  140.5262  178.6434 H   0  0  0  0  0  0  0  0  0  0  0  0
  152.2514  135.4675  188.4955 N   0  0  0  0  0  0  0  0  0  0  0  0
  152.1816  136.6088  187.6536 C   0  0  0  0  0  0  0  0  0  0  0  0
  151.0312  136.9746  187.2448 O   0  0  0  0  0  0  0  0  0  0  0  0
  153.1651  135.1016  188.8492 H   0  0  0  0  0  0  0  0  0  0  0  0
  150.9983  134.8135  188.8547 C   0  0  0  0  0  0  0  0  0  0  0  0
  148.9503  135.0823  187.4642 N   0  0  0  0  0  0  0  0  0  0  0  0
  150.1721  134.4175  187.7207 C   0  0  0  0  0  0  0  0  0  0  0  0
  150.5439  133.4850  186.9775 O   0  0  0  0  0  0  0  0  0  0  0  0
  148.6695  135.8567  188.1213 H   0  0  0  0  0  0  0  0  0  0  0  0
  148.0508  134.7949  186.3739 C   0  0  0  0  0  0  0  0  0  0  0  0
  147.3283  136.5631  184.7029 N   0  0  0  0  0  0  0  0  0  0  0  0
  148.2847  135.6512  185.2285 C   0  0  0  0  0  0  0  0  0  0  0  0
  149.4103  135.6264  184.6193 O   0  0  0  0  0  0  0  0  0  0  0  0
  146.3996  136.5869  185.1753 H   0  0  0  0  0  0  0  0  0  0  0  0
  147.6396  137.4459  183.5405 C   0  0  0  0  0  0  0  0  0  0  0  0
  147.4315  138.8346  183.9307 C   0  0  0  0  0  0  0  0  0  0  0  0
  146.7554  139.2465  185.1040 N   0  0  0  0  0  0  0  0  0  0  0  0
  147.8740  139.7465  183.1834 O   0  0  0  0  0  0  0  0  0  0  0  0
  146.4649  140.2435  185.2742 H   0  0  0  0  0  0  0  0  0  0  0  0
  146.4903  138.5833  185.8934 H   0  0  0  0  0  0  0  0  0  0  0  0
  146.8609  136.9018  182.4225 C   0  0  0  0  0  0  0  0  0  0  0  0
  147.9873  134.8434  181.4506 C   0  0  0  0  0  0  0  0  0  0  0  0
  147.4922  136.2557  181.2672 C   0  0  0  0  0  0  0  0  0  0  0  0
  146.7156  136.4048  179.9700 C   0  0  0  0  0  0  0  0  0  0  0  0
  146.6351  135.0137  186.9558 C   0  0  0  0  0  0  0  0  0  0  0  0
  146.3832  134.2099  188.1400 C   0  0  0  0  0  0  0  0  0  0  0  0
  145.6853  133.0214  188.0619 O   0  0  0  0  0  0  0  0  0  0  0  0
  146.7861  134.5577  189.2866 O   0  0  0  0  0  0  0  0  0  0  0  0
  144.9921  132.8357  187.3365 H   0  0  0  0  0  0  0  0  0  0  0  0
  150.2365  135.7871  189.7752 C   0  0  0  0  0  0  0  0  0  0  0  0
  150.8378  135.8954  191.0968 C   0  0  0  0  0  0  0  0  0  0  0  0
  151.9823  135.1298  191.3708 O   0  0  0  0  0  0  0  0  0  0  0  0
  150.3898  136.6242  191.9809 O   0  0  0  0  0  0  0  0  0  0  0  0
  152.7144  135.4373  192.0007 H   0  0  0  0  0  0  0  0  0  0  0  0
  153.5134  138.5420  188.2579 C   0  0  0  0  0  0  0  0  0  0  0  0
  154.5532  138.2287  189.2306 C   0  0  0  0  0  0  0  0  0  0  0  0
  155.8971  138.1553  188.9609 C   0  0  0  0  0  0  0  0  0  0  0  0
  156.8206  137.8411  189.9341 C   0  0  0  0  0  0  0  0  0  0  0  0
  156.4409  137.5816  191.2426 C   0  0  0  0  0  0  0  0  0  0  0  0
  155.1126  137.6502  191.5310 C   0  0  0  0  0  0  0  0  0  0  0  0
  154.1754  137.9680  190.5508 C   0  0  0  0  0  0  0  0  0  0  0  0
 54 55  1  0  0  0
 55 56  1  0  0  0
 55 53  1  0  0  0
 53 47  1  0  0  0
 47 43  1  0  0  0
 43 44  1  0  0  0
 44 45  2  0  0  0
 44 42  1  0  0  0
 42 57  1  0  0  0
 57 58  1  0  0  0
 58 59  1  0  0  0
 58 60  2  0  0  0
 42 38  1  0  0  0
 38 39  1  0  0  0
 39 40  2  0  0  0
 39 37  1  0  0  0
 37 62  1  0  0  0
 62 63  1  0  0  0
 63 64  1  0  0  0
 63 65  2  0  0  0
 37 33  1  0  0  0
 33 34  1  0  0  0
 34 35  2  0  0  0
 34  1  1  0  0  0
  1 67  1  0  0  0
 67 68  1  0  0  0
 68 69  2  0  0  0
 69 70  1  0  0  0
 70 71  2  0  0  0
 71 72  1  0  0  0
 72 73  2  0  0  0
  1  2  1  0  0  0
  2  3  1  0  0  0
  3  4  2  0  0  0
  3  6  1  0  0  0
  6 24  1  0  0  0
 24 25  1  0  0  0
 25 26  2  0  0  0
 26 27  1  0  0  0
 27 28  2  0  0  0
 28 29  1  0  0  0
 28 30  1  0  0  0
 30 31  2  0  0  0
  6  7  1  0  0  0
  7  8  1  0  0  0
  8  9  2  0  0  0
  8 11  1  0  0  0
 11 17  1  0  0  0
 17 18  1  0  0  0
 18 19  2  0  0  0
 19 20  1  0  0  0
 20 21  2  0  0  0
 21 22  1  0  0  0
 11 12  1  0  0  0
 12 13  1  0  0  0
 13 14  1  0  0  0
 13 15  2  0  0  0
 47 48  1  0  0  0
 48 49  1  0  0  0
 48 50  2  0  0  0
 73 68  1  0  0  0
 31 25  1  0  0  0
 22 18  1  0  0  0
 43 46  1  0  0  0
 59 61  1  0  0  0
 38 41  1  0  0  0
 64 66  1  0  0  0
 33 36  1  0  0  0
  2  5  1  0  0  0
 29 32  1  0  0  0
  7 10  1  0  0  0
 22 23  1  0  0  0
 12 16  1  0  0  0
 49 51  1  0  0  0
 49 52  1  0  0  0
M  END
> <minimizedAffinity>
-7.09144

> <CNNscore>
0.1890967786

> <CNNaffinity>
6.8169660568

> <CNN_VS>
1.2890663147

> <CNNaffinity_variance>
0.4490480423

$$$$
[H]OC(=O)C([H])([H])[C@@]([H])(C(=O)N([H])[C@]([H])(C(=O)N([H])[C@]([H])(C(=O)N([H])[H])C([H])([H])C([H])(C([H])([H])[H])C([H])([H])[H])C([H])([H])C(=O)O[H])N([H])C(=O)[C@@]([H])(N([H])C(=O)[C@@]([H])(N([H])C(=O)[C@@]([H])(N([H])C(=O)C([H])([H])[H])C([H])([H])c1c([H])nc([H])n1[H])C([H])([H])c1c([H])c([H])c(O[H])c([H])c1[H])C([H])([H])c1c([H])c([H])c([H])c([H])c1[H]


 73 75  0  0  0  0  0  0  0  0999 V2000
  153.1968  137.4424  187.5744 C   0  0  0  0  0  0  0  0  0  0  0  0
  153.2816  138.0797  186.2964 N   0  0  0  0  0  0  0  0  0  0  0  0
  154.4557  138.4744  185.6785 C   0  0  0  0  0  0  0  0  0  0  0  0
  155.6143  138.3523  186.1517 O   0  0  0  0  0  0  0  0  0  0  0  0
  152.3662  138.2511  185.8046 H   0  0  0  0  0  0  0  0  0  0  0  0
  154.4071  139.1317  184.2867 C   0  0  0  0  0  0  0  0  0  0  0  0
  155.8089  139.3947  183.9223 N   0  0  0  0  0  0  0  0  0  0  0  0
  156.2867  140.6886  183.7539 C   0  0  0  0  0  0  0  0  0  0  0  0
  155.3643  141.6126  183.9189 O   0  0  0  0  0  0  0  0  0  0  0  0
  156.3852  138.5505  183.8213 H   0  0  0  0  0  0  0  0  0  0  0  0
  157.6245  141.1469  183.4432 C   0  0  0  0  0  0  0  0  0  0  0  0
  157.6927  141.7710  182.1158 N   0  0  0  0  0  0  0  0  0  0  0  0
  158.2662  141.1815  180.9788 C   0  0  0  0  0  0  0  0  0  0  0  0
  158.2674  141.9102  179.6964 C   0  0  0  0  0  0  0  0  0  0  0  0
  158.7797  140.0412  181.0305 O   0  0  0  0  0  0  0  0  0  0  0  0
  157.2740  142.7286  182.0664 H   0  0  0  0  0  0  0  0  0  0  0  0
  158.3488  141.9867  184.4109 C   0  0  0  0  0  0  0  0  0  0  0  0
  159.8272  141.9142  184.3979 C   0  0  0  0  0  0  0  0  0  0  0  0
  160.6343  142.6278  185.2793 C   0  0  0  0  0  0  0  0  0  0  0  0
  161.8918  142.3878  184.9415 N   0  0  0  0  0  0  0  0  0  0  0  0
  161.9232  141.5436  183.8701 C   0  0  0  0  0  0  0  0  0  0  0  0
  160.6552  141.2793  183.5730 N   0  0  0  0  0  0  0  0  0  0  0  0
  160.3223  140.6645  182.8008 H   0  0  0  0  0  0  0  0  0  0  0  0
  153.6851  138.2124  183.3770 C   0  0  0  0  0  0  0  0  0  0  0  0
  152.9872  138.7996  182.2209 C   0  0  0  0  0  0  0  0  0  0  0  0
  152.3072  137.9513  181.3308 C   0  0  0  0  0  0  0  0  0  0  0  0
  151.6818  138.4571  180.2382 C   0  0  0  0  0  0  0  0  0  0  0  0
  151.6591  139.8004  179.9170 C   0  0  0  0  0  0  0  0  0  0  0  0
  151.0224  140.2966  178.8049 O   0  0  0  0  0  0  0  0  0  0  0  0
  152.3403  140.6311  180.8119 C   0  0  0  0  0  0  0  0  0  0  0  0
  152.9784  140.1310  181.9218 C   0  0  0  0  0  0  0  0  0  0  0  0
  151.4689  140.4032  177.9096 H   0  0  0  0  0  0  0  0  0  0  0  0
  150.9720  136.3411  186.9301 N   0  0  0  0  0  0  0  0  0  0  0  0
  151.8649  136.9172  187.8719 C   0  0  0  0  0  0  0  0  0  0  0  0
  151.4816  136.9892  189.0853 O   0  0  0  0  0  0  0  0  0  0  0  0
  151.2153  136.2703  185.9154 H   0  0  0  0  0  0  0  0  0  0  0  0
  149.6920  135.8472  187.4249 C   0  0  0  0  0  0  0  0  0  0  0  0
  150.2990  134.2410  189.2281 N   0  0  0  0  0  0  0  0  0  0  0  0
  149.7287  134.4909  187.9581 C   0  0  0  0  0  0  0  0  0  0  0  0
  149.2589  133.5475  187.2877 O   0  0  0  0  0  0  0  0  0  0  0  0
  150.6926  135.0634  189.7560 H   0  0  0  0  0  0  0  0  0  0  0  0
  150.3867  132.9523  189.8703 C   0  0  0  0  0  0  0  0  0  0  0  0
  151.0540  133.5326  192.2490 N   0  0  0  0  0  0  0  0  0  0  0  0
  150.1282  133.0293  191.2940 C   0  0  0  0  0  0  0  0  0  0  0  0
  149.0074  132.6366  191.7719 O   0  0  0  0  0  0  0  0  0  0  0  0
  151.9787  133.8428  191.8819 H   0  0  0  0  0  0  0  0  0  0  0  0
  150.7173  133.6198  193.7003 C   0  0  0  0  0  0  0  0  0  0  0  0
  150.6670  135.0227  194.0919 C   0  0  0  0  0  0  0  0  0  0  0  0
  151.7712  135.7596  194.5831 N   0  0  0  0  0  0  0  0  0  0  0  0
  149.5730  135.6392  193.9970 O   0  0  0  0  0  0  0  0  0  0  0  0
  151.6718  136.7108  195.0219 H   0  0  0  0  0  0  0  0  0  0  0  0
  152.7753  135.4079  194.5478 H   0  0  0  0  0  0  0  0  0  0  0  0
  151.6727  132.7324  194.3728 C   0  0  0  0  0  0  0  0  0  0  0  0
  152.2321  130.7102  195.8039 C   0  0  0  0  0  0  0  0  0  0  0  0
  151.2719  131.8159  195.4452 C   0  0  0  0  0  0  0  0  0  0  0  0
  150.7375  132.5081  196.6874 C   0  0  0  0  0  0  0  0  0  0  0  0
  151.8262  132.4630  189.5889 C   0  0  0  0  0  0  0  0  0  0  0  0
  152.7260  133.5437  189.2223 C   0  0  0  0  0  0  0  0  0  0  0  0
  153.0334  133.8006  187.9012 O   0  0  0  0  0  0  0  0  0  0  0  0
  153.2656  134.2916  190.0869 O   0  0  0  0  0  0  0  0  0  0  0  0
  153.0105  133.0797  187.1795 H   0  0  0  0  0  0  0  0  0  0  0  0
  148.6935  135.9504  186.2555 C   0  0  0  0  0  0  0  0  0  0  0  0
  147.4463  136.5966  186.6388 C   0  0  0  0  0  0  0  0  0  0  0  0
  147.5112  137.7253  187.4712 O   0  0  0  0  0  0  0  0  0  0  0  0
  146.3425  136.1996  186.2679 O   0  0  0  0  0  0  0  0  0  0  0  0
  146.8435  138.4862  187.4227 H   0  0  0  0  0  0  0  0  0  0  0  0
  153.5226  138.4919  188.6772 C   0  0  0  0  0  0  0  0  0  0  0  0
  154.4867  137.9963  189.6521 C   0  0  0  0  0  0  0  0  0  0  0  0
  154.1740  137.3272  190.8091 C   0  0  0  0  0  0  0  0  0  0  0  0
  155.1438  136.8990  191.6893 C   0  0  0  0  0  0  0  0  0  0  0  0
  156.4922  137.1213  191.4527 C   0  0  0  0  0  0  0  0  0  0  0  0
  156.8234  137.7825  190.3102 C   0  0  0  0  0  0  0  0  0  0  0  0
  155.8467  138.2167  189.4171 C   0  0  0  0  0  0  0  0  0  0  0  0
 54 55  1  0  0  0
 55 56  1  0  0  0
 55 53  1  0  0  0
 53 47  1  0  0  0
 47 43  1  0  0  0
 43 44  1  0  0  0
 44 45  2  0  0  0
 44 42  1  0  0  0
 42 57  1  0  0  0
 57 58  1  0  0  0
 58 59  1  0  0  0
 58 60  2  0  0  0
 42 38  1  0  0  0
 38 39  1  0  0  0
 39 40  2  0  0  0
 39 37  1  0  0  0
 37 62  1  0  0  0
 62 63  1  0  0  0
 63 64  1  0  0  0
 63 65  2  0  0  0
 37 33  1  0  0  0
 33 34  1  0  0  0
 34 35  2  0  0  0
 34  1  1  0  0  0
  1 67  1  0  0  0
 67 68  1  0  0  0
 68 69  2  0  0  0
 69 70  1  0  0  0
 70 71  2  0  0  0
 71 72  1  0  0  0
 72 73  2  0  0  0
  1  2  1  0  0  0
  2  3  1  0  0  0
  3  4  2  0  0  0
  3  6  1  0  0  0
  6 24  1  0  0  0
 24 25  1  0  0  0
 25 26  2  0  0  0
 26 27  1  0  0  0
 27 28  2  0  0  0
 28 29  1  0  0  0
 28 30  1  0  0  0
 30 31  2  0  0  0
  6  7  1  0  0  0
  7  8  1  0  0  0
  8  9  2  0  0  0
  8 11  1  0  0  0
 11 17  1  0  0  0
 17 18  1  0  0  0
 18 19  2  0  0  0
 19 20  1  0  0  0
 20 21  2  0  0  0
 21 22  1  0  0  0
 11 12  1  0  0  0
 12 13  1  0  0  0
 13 14  1  0  0  0
 13 15  2  0  0  0
 47 48  1  0  0  0
 48 49  1  0  0  0
 48 50  2  0  0  0
 73 68  1  0  0  0
 31 25  1  0  0  0
 22 18  1  0  0  0
 43 46  1  0  0  0
 59 61  1  0  0  0
 38 41  1  0  0  0
 64 66  1  0  0  0
 33 36  1  0  0  0
  2  5  1  0  0  0
 29 32  1  0  0  0
  7 10  1  0  0  0
 22 23  1  0  0  0
 12 16  1  0  0  0
 49 51  1  0  0  0
 49 52  1  0  0  0
M  END
> <minimizedAffinity>
-7.41442

> <CNNscore>
0.1825356185

> <CNNaffinity>
6.8712549210

> <CNN_VS>
1.2542487383

> <CNNaffinity_variance>
0.3471347094

$$$$
[H]OC(=O)C([H])([H])[C@@]([H])(C(=O)N([H])[C@]([H])(C(=O)N([H])[C@]([H])(C(=O)N([H])[H])C([H])([H])C([H])(C([H])([H])[H])C([H])([H])[H])C([H])([H])C(=O)O[H])N([H])C(=O)[C@@]([H])(N([H])C(=O)[C@@]([H])(N([H])C(=O)[C@@]([H])(N([H])C(=O)C([H])([H])[H])C([H])([H])c1c([H])nc([H])n1[H])C([H])([H])c1c([H])c([H])c(O[H])c([H])c1[H])C([H])([H])c1c([H])c([H])c([H])c([H])c1[H]


 73 75  0  0  0  0  0  0  0  0999 V2000
  153.2001  136.9273  187.4484 C   0  0  0  0  0  0  0  0  0  0  0  0
  153.2595  137.6073  186.1912 N   0  0  0  0  0  0  0  0  0  0  0  0
  154.3998  138.1651  185.6392 C   0  0  0  0  0  0  0  0  0  0  0  0
  155.5425  138.1763  186.1640 O   0  0  0  0  0  0  0  0  0  0  0  0
  152.3523  137.6762  185.6605 H   0  0  0  0  0  0  0  0  0  0  0  0
  154.3294  138.8515  184.2626 C   0  0  0  0  0  0  0  0  0  0  0  0
  155.7175  139.2053  183.9235 N   0  0  0  0  0  0  0  0  0  0  0  0
  156.0900  140.5172  183.6570 C   0  0  0  0  0  0  0  0  0  0  0  0
  155.0862  141.3667  183.7081 O   0  0  0  0  0  0  0  0  0  0  0  0
  156.3673  138.4098  183.9173 H   0  0  0  0  0  0  0  0  0  0  0  0
  157.3955  141.0638  183.3518 C   0  0  0  0  0  0  0  0  0  0  0  0
  157.4274  141.6916  182.0248 N   0  0  0  0  0  0  0  0  0  0  0  0
  158.1411  141.2014  180.9204 C   0  0  0  0  0  0  0  0  0  0  0  0
  158.0881  141.9219  179.6346 C   0  0  0  0  0  0  0  0  0  0  0  0
  158.8260  140.1571  181.0045 O   0  0  0  0  0  0  0  0  0  0  0  0
  156.8649  142.5706  181.9490 H   0  0  0  0  0  0  0  0  0  0  0  0
  158.0583  141.9494  184.3227 C   0  0  0  0  0  0  0  0  0  0  0  0
  159.5370  141.9093  184.3770 C   0  0  0  0  0  0  0  0  0  0  0  0
  160.2917  142.7112  185.2284 C   0  0  0  0  0  0  0  0  0  0  0  0
  161.5669  142.4725  184.9641 N   0  0  0  0  0  0  0  0  0  0  0  0
  161.6605  141.5437  183.9692 C   0  0  0  0  0  0  0  0  0  0  0  0
  160.4117  141.2273  183.6429 N   0  0  0  0  0  0  0  0  0  0  0  0
  160.1241  140.5436  182.9116 H   0  0  0  0  0  0  0  0  0  0  0  0
  153.6743  137.9134  183.3220 C   0  0  0  0  0  0  0  0  0  0  0  0
  152.5116  138.4036  182.5629 C   0  0  0  0  0  0  0  0  0  0  0  0
  151.2462  137.8488  182.8183 C   0  0  0  0  0  0  0  0  0  0  0  0
  150.1603  138.2549  182.1135 C   0  0  0  0  0  0  0  0  0  0  0  0
  150.2017  139.2142  181.1204 C   0  0  0  0  0  0  0  0  0  0  0  0
  149.0924  139.6132  180.4142 O   0  0  0  0  0  0  0  0  0  0  0  0
  151.4676  139.7562  180.8780 C   0  0  0  0  0  0  0  0  0  0  0  0
  152.5754  139.3526  181.5844 C   0  0  0  0  0  0  0  0  0  0  0  0
  148.7920  139.1783  179.5581 H   0  0  0  0  0  0  0  0  0  0  0  0
  151.0023  136.3732  188.6486 N   0  0  0  0  0  0  0  0  0  0  0  0
  151.9704  136.1577  187.6325 C   0  0  0  0  0  0  0  0  0  0  0  0
  151.7600  135.2124  186.8040 O   0  0  0  0  0  0  0  0  0  0  0  0
  151.1234  137.1181  189.3728 H   0  0  0  0  0  0  0  0  0  0  0  0
  149.8228  135.5154  188.6530 C   0  0  0  0  0  0  0  0  0  0  0  0
  148.6482  135.6338  186.4607 N   0  0  0  0  0  0  0  0  0  0  0  0
  148.7206  135.9930  187.8268 C   0  0  0  0  0  0  0  0  0  0  0  0
  147.8414  136.7252  188.3277 O   0  0  0  0  0  0  0  0  0  0  0  0
  149.4155  135.0227  186.0760 H   0  0  0  0  0  0  0  0  0  0  0  0
  147.6084  136.0295  185.5425 C   0  0  0  0  0  0  0  0  0  0  0  0
  147.9459  134.8782  183.3061 N   0  0  0  0  0  0  0  0  0  0  0  0
  147.3094  134.9953  184.5725 C   0  0  0  0  0  0  0  0  0  0  0  0
  146.4273  134.1031  184.8268 O   0  0  0  0  0  0  0  0  0  0  0  0
  148.6561  135.6046  183.0735 H   0  0  0  0  0  0  0  0  0  0  0  0
  147.6202  133.7692  182.3620 C   0  0  0  0  0  0  0  0  0  0  0  0
  148.7599  132.8642  182.2826 C   0  0  0  0  0  0  0  0  0  0  0  0
  149.4132  132.4990  181.0812 N   0  0  0  0  0  0  0  0  0  0  0  0
  149.2074  132.3590  183.3457 O   0  0  0  0  0  0  0  0  0  0  0  0
  150.1132  131.7151  181.0287 H   0  0  0  0  0  0  0  0  0  0  0  0
  149.2442  132.9845  180.1490 H   0  0  0  0  0  0  0  0  0  0  0  0
  147.1549  134.4286  181.1369 C   0  0  0  0  0  0  0  0  0  0  0  0
  148.7851  135.8437  179.7990 C   0  0  0  0  0  0  0  0  0  0  0  0
  147.6120  135.7652  180.7428 C   0  0  0  0  0  0  0  0  0  0  0  0
  146.4959  136.7034  180.3161 C   0  0  0  0  0  0  0  0  0  0  0  0
  148.1482  137.3037  184.8529 C   0  0  0  0  0  0  0  0  0  0  0  0
  147.1002  138.2600  184.5381 C   0  0  0  0  0  0  0  0  0  0  0  0
  146.8055  139.3040  185.3918 O   0  0  0  0  0  0  0  0  0  0  0  0
  146.4148  138.1816  183.4788 O   0  0  0  0  0  0  0  0  0  0  0  0
  146.9717  139.2577  186.3975 H   0  0  0  0  0  0  0  0  0  0  0  0
  149.3838  135.3705  190.1232 C   0  0  0  0  0  0  0  0  0  0  0  0
  150.4930  135.5114  191.0559 C   0  0  0  0  0  0  0  0  0  0  0  0
  150.5674  136.6817  191.8277 O   0  0  0  0  0  0  0  0  0  0  0  0
  151.3646  134.6548  191.1972 O   0  0  0  0  0  0  0  0  0  0  0  0
  150.9550  136.7018  192.7641 H   0  0  0  0  0  0  0  0  0  0  0  0
  153.2434  137.9850  188.5897 C   0  0  0  0  0  0  0  0  0  0  0  0
  154.3060  137.7238  189.5531 C   0  0  0  0  0  0  0  0  0  0  0  0
  155.5601  138.2811  189.5230 C   0  0  0  0  0  0  0  0  0  0  0  0
  156.5175  137.9748  190.4655 C   0  0  0  0  0  0  0  0  0  0  0  0
  156.2647  137.0847  191.4986 C   0  0  0  0  0  0  0  0  0  0  0  0
  155.0265  136.5216  191.5468 C   0  0  0  0  0  0  0  0  0  0  0  0
  154.0553  136.8286  190.5968 C   0  0  0  0  0  0  0  0  0  0  0  0
 54 55  1  0  0  0
 55 56  1  0  0  0
 55 53  1  0  0  0
 53 47  1  0  0  0
 47 43  1  0  0  0
 43 44  1  0  0  0
 44 45  2  0  0  0
 44 42  1  0  0  0
 42 57  1  0  0  0
 57 58  1  0  0  0
 58 59  1  0  0  0
 58 60  2  0  0  0
 42 38  1  0  0  0
 38 39  1  0  0  0
 39 40  2  0  0  0
 39 37  1  0  0  0
 37 62  1  0  0  0
 62 63  1  0  0  0
 63 64  1  0  0  0
 63 65  2  0  0  0
 37 33  1  0  0  0
 33 34  1  0  0  0
 34 35  2  0  0  0
 34  1  1  0  0  0
  1 67  1  0  0  0
 67 68  1  0  0  0
 68 69  2  0  0  0
 69 70  1  0  0  0
 70 71  2  0  0  0
 71 72  1  0  0  0
 72 73  2  0  0  0
  1  2  1  0  0  0
  2  3  1  0  0  0
  3  4  2  0  0  0
  3  6  1  0  0  0
  6 24  1  0  0  0
 24 25  1  0  0  0
 25 26  2  0  0  0
 26 27  1  0  0  0
 27 28  2  0  0  0
 28 29  1  0  0  0
 28 30  1  0  0  0
 30 31  2  0  0  0
  6  7  1  0  0  0
  7  8  1  0  0  0
  8  9  2  0  0  0
  8 11  1  0  0  0
 11 17  1  0  0  0
 17 18  1  0  0  0
 18 19  2  0  0  0
 19 20  1  0  0  0
 20 21  2  0  0  0
 21 22  1  0  0  0
 11 12  1  0  0  0
 12 13  1  0  0  0
 13 14  1  0  0  0
 13 15  2  0  0  0
 47 48  1  0  0  0
 48 49  1  0  0  0
 48 50  2  0  0  0
 73 68  1  0  0  0
 31 25  1  0  0  0
 22 18  1  0  0  0
 43 46  1  0  0  0
 59 61  1  0  0  0
 38 41  1  0  0  0
 64 66  1  0  0  0
 33 36  1  0  0  0
  2  5  1  0  0  0
 29 32  1  0  0  0
  7 10  1  0  0  0
 22 23  1  0  0  0
 12 16  1  0  0  0
 49 51  1  0  0  0
 49 52  1  0  0  0
M  END
> <minimizedAffinity>
-6.95510

> <CNNscore>
0.1777116656

> <CNNaffinity>
6.8533706665

> <CNN_VS>
1.2179238796

> <CNNaffinity_variance>
0.4658951759

$$$$
[H]O[C@]1(C([H])([H])C([H])([H])[H])C([H])([H])C([H])([H])[C@]2([H])[C@]1(C([H])([H])[H])C([H])([H])C([H])([H])[C@]1([H])[C@@]3(C([H])([H])[H])C([H])=C([H])C(=O)C([H])=C3C([H])([H])C([H])([H])[C@]12[H]


 24 27  0  0  0  0  0  0  0  0999 V2000
  158.2467  132.6391  188.0904 C   0  0  0  0  0  0  0  0  0  0  0  0
  157.2388  131.6920  188.2664 O   0  0  0  0  0  0  0  0  0  0  0  0
  159.2243  132.6671  189.2338 C   0  0  0  0  0  0  0  0  0  0  0  0
  158.7274  133.7344  190.2197 C   0  0  0  0  0  0  0  0  0  0  0  0
  157.3801  134.0390  189.7002 C   0  0  0  0  0  0  0  0  0  0  0  0
  156.7828  135.3508  190.1237 C   0  0  0  0  0  0  0  0  0  0  0  0
  156.6665  135.3869  191.6044 C   0  0  0  0  0  0  0  0  0  0  0  0
  156.0814  136.7525  192.0079 C   0  0  0  0  0  0  0  0  0  0  0  0
  154.7107  136.7205  191.3683 C   0  0  0  0  0  0  0  0  0  0  0  0
  153.6665  136.8489  192.1361 C   0  0  0  0  0  0  0  0  0  0  0  0
  152.2960  136.8230  191.6252 C   0  0  0  0  0  0  0  0  0  0  0  0
  151.2864  136.9460  192.3414 O   0  0  0  0  0  0  0  0  0  0  0  0
  152.1324  136.6417  190.1927 C   0  0  0  0  0  0  0  0  0  0  0  0
  153.2279  136.5197  189.4581 C   0  0  0  0  0  0  0  0  0  0  0  0
  154.6036  136.5523  189.9240 C   0  0  0  0  0  0  0  0  0  0  0  0
  155.2402  137.7864  189.2303 C   0  0  0  0  0  0  0  0  0  0  0  0
  155.4054  135.3839  189.4328 C   0  0  0  0  0  0  0  0  0  0  0  0
  155.6474  135.3984  187.9605 C   0  0  0  0  0  0  0  0  0  0  0  0
  156.2703  134.0956  187.5026 C   0  0  0  0  0  0  0  0  0  0  0  0
  157.5984  134.0007  188.2016 C   0  0  0  0  0  0  0  0  0  0  0  0
  158.5974  135.0150  187.7278 C   0  0  0  0  0  0  0  0  0  0  0  0
  157.2677  130.9603  187.6307 H   0  0  0  0  0  0  0  0  0  0  0  0
  160.2012  131.6929  186.9940 C   0  0  0  0  0  0  0  0  0  0  0  0
  158.8915  132.4035  186.7578 C   0  0  0  0  0  0  0  0  0  0  0  0
 23 24  1  0  0  0
 24  1  1  0  0  0
  1  2  1  0  0  0
  1  3  1  0  0  0
  3  4  1  0  0  0
  4  5  1  0  0  0
  5  6  1  0  0  0
  6  7  1  0  0  0
  7  8  1  0  0  0
  8  9  1  0  0  0
  9 10  2  0  0  0
 10 11  1  0  0  0
 11 12  2  0  0  0
 11 13  1  0  0  0
 13 14  2  0  0  0
 14 15  1  0  0  0
 15 16  1  0  0  0
 15 17  1  0  0  0
 17 18  1  0  0  0
 18 19  1  0  0  0
 19 20  1  0  0  0
 20 21  1  0  0  0
 20  1  1  0  0  0
 20  5  1  0  0  0
 17  6  1  0  0  0
 15  9  1  0  0  0
  2 22  1  0  0  0
M  END
> <minimizedAffinity>
-6.33092

> <CNNscore>
0.6399316788

> <CNNaffinity>
5.2625794411

> <CNN_VS>
3.3676912785

> <CNNaffinity_variance>
0.1421818137

$$$$
[H]O[C@]1(C([H])([H])C([H])([H])[H])C([H])([H])C([H])([H])[C@]2([H])[C@]1(C([H])([H])[H])C([H])([H])C([H])([H])[C@]1([H])[C@@]3(C([H])([H])[H])C([H])=C([H])C(=O)C([H])=C3C([H])([H])C([H])([H])[C@]12[H]


 24 27  0  0  0  0  0  0  0  0999 V2000
  150.7618  135.2106  192.9746 C   0  0  0  0  0  0  0  0  0  0  0  0
  150.9770  133.8749  192.6378 O   0  0  0  0  0  0  0  0  0  0  0  0
  149.8096  135.9008  192.0361 C   0  0  0  0  0  0  0  0  0  0  0  0
  150.6614  136.5651  190.9448 C   0  0  0  0  0  0  0  0  0  0  0  0
  151.9960  135.9855  191.1918 C   0  0  0  0  0  0  0  0  0  0  0  0
  153.1658  136.7401  190.6267 C   0  0  0  0  0  0  0  0  0  0  0  0
  153.0286  136.8330  189.1503 C   0  0  0  0  0  0  0  0  0  0  0  0
  154.2235  137.6364  188.6056 C   0  0  0  0  0  0  0  0  0  0  0  0
  155.4000  136.7600  188.9755 C   0  0  0  0  0  0  0  0  0  0  0  0
  156.1733  136.3271  188.0210 C   0  0  0  0  0  0  0  0  0  0  0  0
  157.3314  135.4671  188.2644 C   0  0  0  0  0  0  0  0  0  0  0  0
  158.0828  135.0454  187.3672 O   0  0  0  0  0  0  0  0  0  0  0  0
  157.5974  135.0987  189.6446 C   0  0  0  0  0  0  0  0  0  0  0  0
  156.7815  135.5694  190.5761 C   0  0  0  0  0  0  0  0  0  0  0  0
  155.6308  136.4339  190.3777 C   0  0  0  0  0  0  0  0  0  0  0  0
  155.9656  137.7413  191.1446 C   0  0  0  0  0  0  0  0  0  0  0  0
  154.3943  135.9080  191.0438 C   0  0  0  0  0  0  0  0  0  0  0  0
  154.4600  135.9296  192.5343 C   0  0  0  0  0  0  0  0  0  0  0  0
  153.2809  135.1942  193.1377 C   0  0  0  0  0  0  0  0  0  0  0  0
  152.0540  135.9484  192.7050 C   0  0  0  0  0  0  0  0  0  0  0  0
  151.9356  137.3070  193.3306 C   0  0  0  0  0  0  0  0  0  0  0  0
  150.6333  133.2425  193.2876 H   0  0  0  0  0  0  0  0  0  0  0  0
  149.9975  133.8755  194.8589 C   0  0  0  0  0  0  0  0  0  0  0  0
  150.3381  135.2753  194.4110 C   0  0  0  0  0  0  0  0  0  0  0  0
 23 24  1  0  0  0
 24  1  1  0  0  0
  1  2  1  0  0  0
  1  3  1  0  0  0
  3  4  1  0  0  0
  4  5  1  0  0  0
  5  6  1  0  0  0
  6  7  1  0  0  0
  7  8  1  0  0  0
  8  9  1  0  0  0
  9 10  2  0  0  0
 10 11  1  0  0  0
 11 12  2  0  0  0
 11 13  1  0  0  0
 13 14  2  0  0  0
 14 15  1  0  0  0
 15 16  1  0  0  0
 15 17  1  0  0  0
 17 18  1  0  0  0
 18 19  1  0  0  0
 19 20  1  0  0  0
 20 21  1  0  0  0
 20  1  1  0  0  0
 20  5  1  0  0  0
 17  6  1  0  0  0
 15  9  1  0  0  0
  2 22  1  0  0  0
M  END
> <minimizedAffinity>
-6.74018

> <CNNscore>
0.6212016940

> <CNNaffinity>
5.3532037735

> <CNN_VS>
3.3254191875

> <CNNaffinity_variance>
0.1856371760

$$$$
[H]O[C@]1(C([H])([H])C([H])([H])[H])C([H])([H])C([H])([H])[C@]2([H])[C@]1(C([H])([H])[H])C([H])([H])C([H])([H])[C@]1([H])[C@@]3(C([H])([H])[H])C([H])=C([H])C(=O)C([H])=C3C([H])([H])C([H])([H])[C@]12[H]


 24 27  0  0  0  0  0  0  0  0999 V2000
  150.6334  135.2482  192.8376 C   0  0  0  0  0  0  0  0  0  0  0  0
  149.8269  135.6136  191.7607 O   0  0  0  0  0  0  0  0  0  0  0  0
  150.8237  136.3657  193.8270 C   0  0  0  0  0  0  0  0  0  0  0  0
  152.1100  137.1024  193.4261 C   0  0  0  0  0  0  0  0  0  0  0  0
  152.4041  136.5227  192.1011 C   0  0  0  0  0  0  0  0  0  0  0  0
  153.8185  136.6576  191.6131 C   0  0  0  0  0  0  0  0  0  0  0  0
  154.1738  138.0969  191.5164 C   0  0  0  0  0  0  0  0  0  0  0  0
  155.6355  138.2010  191.0445 C   0  0  0  0  0  0  0  0  0  0  0  0
  155.5781  137.5746  189.6686 C   0  0  0  0  0  0  0  0  0  0  0  0
  155.9469  138.2923  188.6462 C   0  0  0  0  0  0  0  0  0  0  0  0
  155.9225  137.7904  187.2723 C   0  0  0  0  0  0  0  0  0  0  0  0
  156.2724  138.4590  186.2834 O   0  0  0  0  0  0  0  0  0  0  0  0
  155.4579  136.4272  187.0792 C   0  0  0  0  0  0  0  0  0  0  0  0
  155.0983  135.7409  188.1536 C   0  0  0  0  0  0  0  0  0  0  0  0
  155.1194  136.1973  189.5327 C   0  0  0  0  0  0  0  0  0  0  0  0
  156.1261  135.2634  190.2563 C   0  0  0  0  0  0  0  0  0  0  0  0
  153.8143  135.9673  190.2351 C   0  0  0  0  0  0  0  0  0  0  0  0
  153.5002  134.5264  190.4612 C   0  0  0  0  0  0  0  0  0  0  0  0
  152.0852  134.3561  190.9751 C   0  0  0  0  0  0  0  0  0  0  0  0
  152.0349  135.0670  192.2993 C   0  0  0  0  0  0  0  0  0  0  0  0
  152.8449  134.3962  193.3694 C   0  0  0  0  0  0  0  0  0  0  0  0
  148.9781  135.1461  191.7252 H   0  0  0  0  0  0  0  0  0  0  0  0
  148.6688  133.8164  192.9268 C   0  0  0  0  0  0  0  0  0  0  0  0
  150.0731  133.9986  193.4473 C   0  0  0  0  0  0  0  0  0  0  0  0
 23 24  1  0  0  0
 24  1  1  0  0  0
  1  2  1  0  0  0
  1  3  1  0  0  0
  3  4  1  0  0  0
  4  5  1  0  0  0
  5  6  1  0  0  0
  6  7  1  0  0  0
  7  8  1  0  0  0
  8  9  1  0  0  0
  9 10  2  0  0  0
 10 11  1  0  0  0
 11 12  2  0  0  0
 11 13  1  0  0  0
 13 14  2  0  0  0
 14 15  1  0  0  0
 15 16  1  0  0  0
 15 17  1  0  0  0
 17 18  1  0  0  0
 18 19  1  0  0  0
 19 20  1  0  0  0
 20 21  1  0  0  0
 20  1  1  0  0  0
 20  5  1  0  0  0
 17  6  1  0  0  0
 15  9  1  0  0  0
  2 22  1  0  0  0
M  END
> <minimizedAffinity>
-6.65265

> <CNNscore>
0.5386818051

> <CNNaffinity>
5.2682008743

> <CNN_VS>
2.8378839493

> <CNNaffinity_variance>
0.0870561674

$$$$
[H]O[C@]1(C([H])([H])C([H])([H])[H])C([H])([H])C([H])([H])[C@]2([H])[C@]1(C([H])([H])[H])C([H])([H])C([H])([H])[C@]1([H])[C@@]3(C([H])([H])[H])C([H])=C([H])C(=O)C([H])=C3C([H])([H])C([H])([H])[C@]12[H]


 24 27  0  0  0  0  0  0  0  0999 V2000
  156.0536  136.7517  189.3994 C   0  0  0  0  0  0  0  0  0  0  0  0
  156.6376  135.6670  190.0522 O   0  0  0  0  0  0  0  0  0  0  0  0
  156.2400  138.0466  190.1427 C   0  0  0  0  0  0  0  0  0  0  0  0
  155.0050  138.2299  191.0366 C   0  0  0  0  0  0  0  0  0  0  0  0
  154.3463  136.9131  190.9360 C   0  0  0  0  0  0  0  0  0  0  0  0
  152.8887  136.8672  191.2969 C   0  0  0  0  0  0  0  0  0  0  0  0
  152.7135  137.3041  192.7061 C   0  0  0  0  0  0  0  0  0  0  0  0
  151.2099  137.2758  193.0352 C   0  0  0  0  0  0  0  0  0  0  0  0
  150.8727  135.8083  192.8885 C   0  0  0  0  0  0  0  0  0  0  0  0
  150.3809  135.1805  193.9182 C   0  0  0  0  0  0  0  0  0  0  0  0
  150.0287  133.7609  193.8901 C   0  0  0  0  0  0  0  0  0  0  0  0
  149.5562  133.1442  194.8615 O   0  0  0  0  0  0  0  0  0  0  0  0
  150.2541  133.0529  192.6413 C   0  0  0  0  0  0  0  0  0  0  0  0
  150.7529  133.7403  191.6247 C   0  0  0  0  0  0  0  0  0  0  0  0
  151.1035  135.1501  191.6081 C   0  0  0  0  0  0  0  0  0  0  0  0
  150.1717  135.7897  190.5441 C   0  0  0  0  0  0  0  0  0  0  0  0
  152.4912  135.3921  191.0934 C   0  0  0  0  0  0  0  0  0  0  0  0
  152.6556  135.0840  189.6428 C   0  0  0  0  0  0  0  0  0  0  0  0
  154.1149  135.1428  189.2400 C   0  0  0  0  0  0  0  0  0  0  0  0
  154.5556  136.5608  189.4776 C   0  0  0  0  0  0  0  0  0  0  0  0
  153.9264  137.5479  188.5390 C   0  0  0  0  0  0  0  0  0  0  0  0
  157.3875  135.2762  189.5775 H   0  0  0  0  0  0  0  0  0  0  0  0
  157.3161  135.5067  187.7340 C   0  0  0  0  0  0  0  0  0  0  0  0
  156.5672  136.7908  187.9917 C   0  0  0  0  0  0  0  0  0  0  0  0
 23 24  1  0  0  0
 24  1  1  0  0  0
  1  2  1  0  0  0
  1  3  1  0  0  0
  3  4  1  0  0  0
  4  5  1  0  0  0
  5  6  1  0  0  0
  6  7  1  0  0  0
  7  8  1  0  0  0
  8  9  1  0  0  0
  9 10  2  0  0  0
 10 11  1  0  0  0
 11 12  2  0  0  0
 11 13  1  0  0  0
 13 14  2  0  0  0
 14 15  1  0  0  0
 15 16  1  0  0  0
 15 17  1  0  0  0
 17 18  1  0  0  0
 18 19  1  0  0  0
 19 20  1  0  0  0
 20 21  1  0  0  0
 20  1  1  0  0  0
 20  5  1  0  0  0
 17  6  1  0  0  0
 15  9  1  0  0  0
  2 22  1  0  0  0
M  END
> <minimizedAffinity>
-6.51643

> <CNNscore>
0.5376572013

> <CNNaffinity>
5.2003235817

> <CNN_VS>
2.7959914207

> <CNNaffinity_variance>
0.1460967809

$$$$
[H]O[C@]1(C([H])([H])C([H])([H])[H])C([H])([H])C([H])([H])[C@]2([H])[C@]1(C([H])([H])[H])C([H])([H])C([H])([H])[C@]1([H])[C@@]3(C([H])([H])[H])C([H])=C([H])C(=O)C([H])=C3C([H])([H])C([H])([H])[C@]12[H]


 24 27  0  0  0  0  0  0  0  0999 V2000
  157.8749  133.0313  189.6508 C   0  0  0  0  0  0  0  0  0  0  0  0
  156.8580  132.0875  189.5137 O   0  0  0  0  0  0  0  0  0  0  0  0
  157.9129  133.6501  191.0217 C   0  0  0  0  0  0  0  0  0  0  0  0
  157.0655  134.9291  190.9577 C   0  0  0  0  0  0  0  0  0  0  0  0
  156.4004  134.7999  189.6465 C   0  0  0  0  0  0  0  0  0  0  0  0
  155.8626  136.0665  189.0438 C   0  0  0  0  0  0  0  0  0  0  0  0
  154.8517  136.6591  189.9571 C   0  0  0  0  0  0  0  0  0  0  0  0
  154.3432  137.9686  189.3273 C   0  0  0  0  0  0  0  0  0  0  0  0
  153.6879  137.4834  188.0530 C   0  0  0  0  0  0  0  0  0  0  0  0
  152.4246  137.7418  187.8697 C   0  0  0  0  0  0  0  0  0  0  0  0
  151.6896  137.3122  186.6800 C   0  0  0  0  0  0  0  0  0  0  0  0
  150.4844  137.5509  186.4856 O   0  0  0  0  0  0  0  0  0  0  0  0
  152.4352  136.5643  185.6819 C   0  0  0  0  0  0  0  0  0  0  0  0
  153.7180  136.3323  185.9171 C   0  0  0  0  0  0  0  0  0  0  0  0
  154.4861  136.7512  187.0769 C   0  0  0  0  0  0  0  0  0  0  0  0
  155.5829  137.6978  186.5199 C   0  0  0  0  0  0  0  0  0  0  0  0
  155.2434  135.6193  187.7051 C   0  0  0  0  0  0  0  0  0  0  0  0
  156.3526  135.0949  186.8560 C   0  0  0  0  0  0  0  0  0  0  0  0
  156.9329  133.8269  187.4480 C   0  0  0  0  0  0  0  0  0  0  0  0
  157.5005  134.2137  188.7857 C   0  0  0  0  0  0  0  0  0  0  0  0
  158.7066  135.1010  188.6897 C   0  0  0  0  0  0  0  0  0  0  0  0
  157.1747  131.1792  189.3904 H   0  0  0  0  0  0  0  0  0  0  0  0
  159.7412  131.6929  190.4529 C   0  0  0  0  0  0  0  0  0  0  0  0
  159.1703  132.3950  189.2457 C   0  0  0  0  0  0  0  0  0  0  0  0
 23 24  1  0  0  0
 24  1  1  0  0  0
  1  2  1  0  0  0
  1  3  1  0  0  0
  3  4  1  0  0  0
  4  5  1  0  0  0
  5  6  1  0  0  0
  6  7  1  0  0  0
  7  8  1  0  0  0
  8  9  1  0  0  0
  9 10  2  0  0  0
 10 11  1  0  0  0
 11 12  2  0  0  0
 11 13  1  0  0  0
 13 14  2  0  0  0
 14 15  1  0  0  0
 15 16  1  0  0  0
 15 17  1  0  0  0
 17 18  1  0  0  0
 18 19  1  0  0  0
 19 20  1  0  0  0
 20 21  1  0  0  0
 20  1  1  0  0  0
 20  5  1  0  0  0
 17  6  1  0  0  0
 15  9  1  0  0  0
  2 22  1  0  0  0
M  END
> <minimizedAffinity>
-5.19812

> <CNNscore>
0.5249979496

> <CNNaffinity>
5.2118501663

> <CNN_VS>
2.7362105846

> <CNNaffinity_variance>
0.2998856306

$$$$
[H]O[C@]1(C([H])([H])C([H])([H])[H])C([H])([H])C([H])([H])[C@]2([H])[C@]1(C([H])([H])[H])C([H])([H])C([H])([H])[C@]1([H])[C@@]3(C([H])([H])[H])C([H])=C([H])C(=O)C([H])=C3C([H])([H])C([H])([H])[C@]12[H]


 24 27  0  0  0  0  0  0  0  0999 V2000
  156.8115  140.9404  182.4190 C   0  0  0  0  0  0  0  0  0  0  0  0
  156.5182  140.1656  183.5404 O   0  0  0  0  0  0  0  0  0  0  0  0
  157.6070  140.1900  181.3857 C   0  0  0  0  0  0  0  0  0  0  0  0
  159.0889  140.4748  181.6699 C   0  0  0  0  0  0  0  0  0  0  0  0
  159.0342  141.1390  182.9867 C   0  0  0  0  0  0  0  0  0  0  0  0
  160.2291  141.9666  183.3664 C   0  0  0  0  0  0  0  0  0  0  0  0
  161.4393  141.1053  183.3942 C   0  0  0  0  0  0  0  0  0  0  0  0
  162.6488  141.9866  183.7553 C   0  0  0  0  0  0  0  0  0  0  0  0
  162.3015  142.4595  185.1498 C   0  0  0  0  0  0  0  0  0  0  0  0
  163.1227  142.1785  186.1209 C   0  0  0  0  0  0  0  0  0  0  0  0
  162.8810  142.5781  187.5072 C   0  0  0  0  0  0  0  0  0  0  0  0
  163.6535  142.3212  188.4477 O   0  0  0  0  0  0  0  0  0  0  0  0
  161.6590  143.3177  187.7740 C   0  0  0  0  0  0  0  0  0  0  0  0
  160.8612  143.5795  186.7495 C   0  0  0  0  0  0  0  0  0  0  0  0
  161.0705  143.2122  185.3595 C   0  0  0  0  0  0  0  0  0  0  0  0
  161.1728  144.5580  184.5927 C   0  0  0  0  0  0  0  0  0  0  0  0
  159.8808  142.5226  184.7610 C   0  0  0  0  0  0  0  0  0  0  0  0
  158.6909  143.4087  184.6013 C   0  0  0  0  0  0  0  0  0  0  0  0
  157.4707  142.6070  184.1969 C   0  0  0  0  0  0  0  0  0  0  0  0
  157.7952  142.0012  182.8593 C   0  0  0  0  0  0  0  0  0  0  0  0
  157.8935  143.0106  181.7535 C   0  0  0  0  0  0  0  0  0  0  0  0
  155.5748  139.9709  183.6514 H   0  0  0  0  0  0  0  0  0  0  0  0
  154.4064  141.0306  182.7724 C   0  0  0  0  0  0  0  0  0  0  0  0
  155.5309  141.5117  181.8891 C   0  0  0  0  0  0  0  0  0  0  0  0
 23 24  1  0  0  0
 24  1  1  0  0  0
  1  2  1  0  0  0
  1  3  1  0  0  0
  3  4  1  0  0  0
  4  5  1  0  0  0
  5  6  1  0  0  0
  6  7  1  0  0  0
  7  8  1  0  0  0
  8  9  1  0  0  0
  9 10  2  0  0  0
 10 11  1  0  0  0
 11 12  2  0  0  0
 11 13  1  0  0  0
 13 14  2  0  0  0
 14 15  1  0  0  0
 15 16  1  0  0  0
 15 17  1  0  0  0
 17 18  1  0  0  0
 18 19  1  0  0  0
 19 20  1  0  0  0
 20 21  1  0  0  0
 20  1  1  0  0  0
 20  5  1  0  0  0
 17  6  1  0  0  0
 15  9  1  0  0  0
  2 22  1  0  0  0
M  END
> <minimizedAffinity>
-6.17191

> <CNNscore>
0.5083821416

> <CNNaffinity>
6.5144257545

> <CNN_VS>
3.3118176460

> <CNNaffinity_variance>
0.3227616549

$$$$
[H]O[C@]1(C([H])([H])C([H])([H])[H])C([H])([H])C([H])([H])[C@]2([H])[C@]1(C([H])([H])[H])C([H])([H])C([H])([H])[C@]1([H])[C@@]3(C([H])([H])[H])C([H])=C([H])C(=O)C([H])=C3C([H])([H])C([H])([H])[C@]12[H]


 24 27  0  0  0  0  0  0  0  0999 V2000
  154.5282  137.4346  186.3501 C   0  0  0  0  0  0  0  0  0  0  0  0
  154.6927  136.1210  185.9128 O   0  0  0  0  0  0  0  0  0  0  0  0
  155.7834  138.0099  186.9480 C   0  0  0  0  0  0  0  0  0  0  0  0
  155.7151  137.7540  188.4605 C   0  0  0  0  0  0  0  0  0  0  0  0
  154.5704  136.8292  188.5713 C   0  0  0  0  0  0  0  0  0  0  0  0
  153.9224  136.7289  189.9230 C   0  0  0  0  0  0  0  0  0  0  0  0
  154.9219  136.2614  190.9178 C   0  0  0  0  0  0  0  0  0  0  0  0
  154.2370  136.1987  192.2951 C   0  0  0  0  0  0  0  0  0  0  0  0
  153.1703  135.1477  192.0800 C   0  0  0  0  0  0  0  0  0  0  0  0
  153.1858  134.0867  192.8353 C   0  0  0  0  0  0  0  0  0  0  0  0
  152.2090  133.0052  192.7072 C   0  0  0  0  0  0  0  0  0  0  0  0
  152.2057  131.9857  193.4198 O   0  0  0  0  0  0  0  0  0  0  0  0
  151.1933  133.1560  191.6790 C   0  0  0  0  0  0  0  0  0  0  0  0
  151.2217  134.2560  190.9416 C   0  0  0  0  0  0  0  0  0  0  0  0
  152.1647  135.3563  191.0450 C   0  0  0  0  0  0  0  0  0  0  0  0
  151.3080  136.5937  191.4251 C   0  0  0  0  0  0  0  0  0  0  0  0
  152.7816  135.7116  189.7249 C   0  0  0  0  0  0  0  0  0  0  0  0
  151.8188  136.3077  188.7534 C   0  0  0  0  0  0  0  0  0  0  0  0
  152.4488  136.4430  187.3824 C   0  0  0  0  0  0  0  0  0  0  0  0
  153.6053  137.3900  187.5472 C   0  0  0  0  0  0  0  0  0  0  0  0
  153.1863  138.7995  187.8453 C   0  0  0  0  0  0  0  0  0  0  0  0
  154.6274  136.0126  184.9514 H   0  0  0  0  0  0  0  0  0  0  0  0
  155.0757  139.1581  184.7231 C   0  0  0  0  0  0  0  0  0  0  0  0
  153.9791  138.2467  185.2161 C   0  0  0  0  0  0  0  0  0  0  0  0
 23 24  1  0  0  0
 24  1  1  0  0  0
  1  2  1  0  0  0
  1  3  1  0  0  0
  3  4  1  0  0  0
  4  5  1  0  0  0
  5  6  1  0  0  0
  6  7  1  0  0  0
  7  8  1  0  0  0
  8  9  1  0  0  0
  9 10  2  0  0  0
 10 11  1  0  0  0
 11 12  2  0  0  0
 11 13  1  0  0  0
 13 14  2  0  0  0
 14 15  1  0  0  0
 15 16  1  0  0  0
 15 17  1  0  0  0
 17 18  1  0  0  0
 18 19  1  0  0  0
 19 20  1  0  0  0
 20 21  1  0  0  0
 20  1  1  0  0  0
 20  5  1  0  0  0
 17  6  1  0  0  0
 15  9  1  0  0  0
  2 22  1  0  0  0
M  END
> <minimizedAffinity>
-5.78457

> <CNNscore>
0.4932934046

> <CNNaffinity>
5.1916532516

> <CNN_VS>
2.5610082150

> <CNNaffinity_variance>
0.1629538238

$$$$
[H]O[C@]1(C([H])([H])C([H])([H])[H])C([H])([H])C([H])([H])[C@]2([H])[C@]1(C([H])([H])[H])C([H])([H])C([H])([H])[C@]1([H])[C@@]3(C([H])([H])[H])C([H])=C([H])C(=O)C([H])=C3C([H])([H])C([H])([H])[C@]12[H]


 24 27  0  0  0  0  0  0  0  0999 V2000
  152.1197  135.7926  192.4433 C   0  0  0  0  0  0  0  0  0  0  0  0
  152.1849  134.4217  192.6888 O   0  0  0  0  0  0  0  0  0  0  0  0
  151.1376  136.1429  191.3585 C   0  0  0  0  0  0  0  0  0  0  0  0
  151.9255  136.1900  190.0414 C   0  0  0  0  0  0  0  0  0  0  0  0
  153.2245  135.6082  190.4314 C   0  0  0  0  0  0  0  0  0  0  0  0
  154.3895  135.9157  189.5340 C   0  0  0  0  0  0  0  0  0  0  0  0
  154.1089  135.4068  188.1667 C   0  0  0  0  0  0  0  0  0  0  0  0
  155.3051  135.7637  187.2657 C   0  0  0  0  0  0  0  0  0  0  0  0
  156.4349  134.9836  187.9012 C   0  0  0  0  0  0  0  0  0  0  0  0
  157.0660  134.1059  187.1748 C   0  0  0  0  0  0  0  0  0  0  0  0
  158.1659  133.2906  187.6900 C   0  0  0  0  0  0  0  0  0  0  0  0
  158.7822  132.4492  187.0120 O   0  0  0  0  0  0  0  0  0  0  0  0
  158.5407  133.4955  189.0789 C   0  0  0  0  0  0  0  0  0  0  0  0
  157.8683  134.4030  189.7710 C   0  0  0  0  0  0  0  0  0  0  0  0
  156.7807  135.2400  189.2942 C   0  0  0  0  0  0  0  0  0  0  0  0
  157.3025  136.6967  189.4178 C   0  0  0  0  0  0  0  0  0  0  0  0
  155.5794  135.1888  190.1906 C   0  0  0  0  0  0  0  0  0  0  0  0
  155.8002  135.8154  191.5266 C   0  0  0  0  0  0  0  0  0  0  0  0
  154.6317  135.5421  192.4512 C   0  0  0  0  0  0  0  0  0  0  0  0
  153.4350  136.1922  191.8132 C   0  0  0  0  0  0  0  0  0  0  0  0
  153.4974  137.6913  191.8138 C   0  0  0  0  0  0  0  0  0  0  0  0
  151.8578  134.1602  193.5634 H   0  0  0  0  0  0  0  0  0  0  0  0
  151.6886  135.4454  194.8120 C   0  0  0  0  0  0  0  0  0  0  0  0
  151.8535  136.4947  193.7406 C   0  0  0  0  0  0  0  0  0  0  0  0
 23 24  1  0  0  0
 24  1  1  0  0  0
  1  2  1  0  0  0
  1  3  1  0  0  0
  3  4  1  0  0  0
  4  5  1  0  0  0
  5  6  1  0  0  0
  6  7  1  0  0  0
  7  8  1  0  0  0
  8  9  1  0  0  0
  9 10  2  0  0  0
 10 11  1  0  0  0
 11 12  2  0  0  0
 11 13  1  0  0  0
 13 14  2  0  0  0
 14 15  1  0  0  0
 15 16  1  0  0  0
 15 17  1  0  0  0
 17 18  1  0  0  0
 18 19  1  0  0  0
 19 20  1  0  0  0
 20 21  1  0  0  0
 20  1  1  0  0  0
 20  5  1  0  0  0
 17  6  1  0  0  0
 15  9  1  0  0  0
  2 22  1  0  0  0
M  END
> <minimizedAffinity>
-5.66784

> <CNNscore>
0.4645192325

> <CNNaffinity>
5.2281594276

> <CNN_VS>
2.4285805225

> <CNNaffinity_variance>
0.0803886577

$$$$
[H]O[C@]1(C([H])([H])C([H])([H])[H])C([H])([H])C([H])([H])[C@]2([H])[C@]1(C([H])([H])[H])C([H])([H])C([H])([H])[C@]1([H])[C@@]3(C([H])([H])[H])C([H])=C([H])C(=O)C([H])=C3C([H])([H])C([H])([H])[C@]12[H]


 24 27  0  0  0  0  0  0  0  0999 V2000
  155.1024  136.4119  190.8481 C   0  0  0  0  0  0  0  0  0  0  0  0
  155.4053  135.0856  190.5431 O   0  0  0  0  0  0  0  0  0  0  0  0
  153.7746  136.5607  191.5400 C   0  0  0  0  0  0  0  0  0  0  0  0
  152.7293  136.8270  190.4473 C   0  0  0  0  0  0  0  0  0  0  0  0
  153.4873  136.5467  189.2124 C   0  0  0  0  0  0  0  0  0  0  0  0
  152.9407  137.1401  187.9450 C   0  0  0  0  0  0  0  0  0  0  0  0
  151.5686  136.6222  187.7075 C   0  0  0  0  0  0  0  0  0  0  0  0
  151.0255  137.2710  186.4213 C   0  0  0  0  0  0  0  0  0  0  0  0
  151.9789  136.7514  185.3678 C   0  0  0  0  0  0  0  0  0  0  0  0
  151.4897  136.0642  184.3754 C   0  0  0  0  0  0  0  0  0  0  0  0
  152.3205  135.5073  183.3080 C   0  0  0  0  0  0  0  0  0  0  0  0
  151.8723  134.8505  182.3514 O   0  0  0  0  0  0  0  0  0  0  0  0
  153.7505  135.7503  183.3942 C   0  0  0  0  0  0  0  0  0  0  0  0
  154.1943  136.4581  184.4223 C   0  0  0  0  0  0  0  0  0  0  0  0
  153.4029  137.0378  185.4939 C   0  0  0  0  0  0  0  0  0  0  0  0
  153.6152  138.5708  185.3745 C   0  0  0  0  0  0  0  0  0  0  0  0
  153.9292  136.6855  186.8534 C   0  0  0  0  0  0  0  0  0  0  0  0
  155.2503  137.3052  187.1647 C   0  0  0  0  0  0  0  0  0  0  0  0
  155.8208  136.7435  188.4509 C   0  0  0  0  0  0  0  0  0  0  0  0
  154.8511  137.1211  189.5364 C   0  0  0  0  0  0  0  0  0  0  0  0
  154.8154  138.5939  189.8206 C   0  0  0  0  0  0  0  0  0  0  0  0
  156.1624  134.7296  191.0333 H   0  0  0  0  0  0  0  0  0  0  0  0
  156.8800  135.8847  192.4228 C   0  0  0  0  0  0  0  0  0  0  0  0
  156.2477  136.9946  191.6199 C   0  0  0  0  0  0  0  0  0  0  0  0
 23 24  1  0  0  0
 24  1  1  0  0  0
  1  2  1  0  0  0
  1  3  1  0  0  0
  3  4  1  0  0  0
  4  5  1  0  0  0
  5  6  1  0  0  0
  6  7  1  0  0  0
  7  8  1  0  0  0
  8  9  1  0  0  0
  9 10  2  0  0  0
 10 11  1  0  0  0
 11 12  2  0  0  0
 11 13  1  0  0  0
 13 14  2  0  0  0
 14 15  1  0  0  0
 15 16  1  0  0  0
 15 17  1  0  0  0
 17 18  1  0  0  0
 18 19  1  0  0  0
 19 20  1  0  0  0
 20 21  1  0  0  0
 20  1  1  0  0  0
 20  5  1  0  0  0
 17  6  1  0  0  0
 15  9  1  0  0  0
  2 22  1  0  0  0
M  END
> <minimizedAffinity>
-6.13056

> <CNNscore>
0.4414140284

> <CNNaffinity>
5.2755379677

> <CNN_VS>
2.3286964893

> <CNNaffinity_variance>
0.1089468002

$$$$
[H]c1nc2c([H])c([H])c([H])c([H])n2c1C(=O)N([H])c1c([H])c(N([H])C(=O)c2c([H])c([H])c(C([H])([H])N3C([H])([H])C([H])([H])N(C([H])([H])[H])C([H])([H])C3([H])[H])c(C(F)(F)F)c2[H])c([H])c([H])c1C([H])([H])[H]


 42 46  0  0  0  0  0  0  0  0999 V2000
  154.1882  139.1131  184.2406 C   0  0  0  0  0  0  0  0  0  0  0  0
  155.3670  139.0507  184.6363 O   0  0  0  0  0  0  0  0  0  0  0  0
  153.7164  140.2109  183.5123 N   0  0  0  0  0  0  0  0  0  0  0  0
  152.6860  140.1477  183.2232 H   0  0  0  0  0  0  0  0  0  0  0  0
  154.4756  141.3465  183.1547 C   0  0  0  0  0  0  0  0  0  0  0  0
  154.0089  142.4561  182.5197 C   0  0  0  0  0  0  0  0  0  0  0  0
  154.8428  143.5168  182.2496 C   0  0  0  0  0  0  0  0  0  0  0  0
  156.1689  143.4885  182.6112 C   0  0  0  0  0  0  0  0  0  0  0  0
  157.0638  144.6300  182.3194 C   0  0  0  0  0  0  0  0  0  0  0  0
  156.6890  142.3732  183.2623 C   0  0  0  0  0  0  0  0  0  0  0  0
  155.8324  141.3254  183.5208 C   0  0  0  0  0  0  0  0  0  0  0  0
  158.0372  142.3928  183.6143 N   0  0  0  0  0  0  0  0  0  0  0  0
  158.9682  141.3472  183.6910 C   0  0  0  0  0  0  0  0  0  0  0  0
  158.6559  140.1745  183.4236 O   0  0  0  0  0  0  0  0  0  0  0  0
  158.4546  143.3534  183.8734 H   0  0  0  0  0  0  0  0  0  0  0  0
  160.3674  141.6043  184.0972 C   0  0  0  0  0  0  0  0  0  0  0  0
  161.4633  141.3303  183.3060 C   0  0  0  0  0  0  0  0  0  0  0  0
  162.5536  141.6928  183.9871 N   0  0  0  0  0  0  0  0  0  0  0  0
  162.1778  142.1832  185.1751 C   0  0  0  0  0  0  0  0  0  0  0  0
  162.9223  142.6897  186.2380 C   0  0  0  0  0  0  0  0  0  0  0  0
  162.2857  143.1399  187.3697 C   0  0  0  0  0  0  0  0  0  0  0  0
  160.9072  143.0663  187.3987 C   0  0  0  0  0  0  0  0  0  0  0  0
  160.1886  142.5616  186.3363 C   0  0  0  0  0  0  0  0  0  0  0  0
  160.8189  142.1245  185.2357 N   0  0  0  0  0  0  0  0  0  0  0  0
  151.7170  135.7732  185.3561 C   0  0  0  0  0  0  0  0  0  0  0  0
  151.9755  136.0758  184.0350 C   0  0  0  0  0  0  0  0  0  0  0  0
  152.7730  137.1565  183.6370 C   0  0  0  0  0  0  0  0  0  0  0  0
  153.3355  137.9668  184.5870 C   0  0  0  0  0  0  0  0  0  0  0  0
  153.0877  137.6768  185.8932 C   0  0  0  0  0  0  0  0  0  0  0  0
  152.2912  136.5987  186.3081 C   0  0  0  0  0  0  0  0  0  0  0  0
  152.0664  136.3609  187.7329 C   0  0  0  0  0  0  0  0  0  0  0  0
  150.7708  136.5135  188.1637 F   0  0  0  0  0  0  0  0  0  0  0  0
  152.6093  135.1574  188.1674 F   0  0  0  0  0  0  0  0  0  0  0  0
  152.7854  137.3311  188.4519 F   0  0  0  0  0  0  0  0  0  0  0  0
  150.9187  134.6111  185.7574 C   0  0  0  0  0  0  0  0  0  0  0  0
  148.0903  131.1354  184.8508 C   0  0  0  0  0  0  0  0  0  0  0  0
  149.0674  132.1356  185.1082 N   0  0  0  0  0  0  0  0  0  0  0  0
  149.1638  133.1886  184.1555 C   0  0  0  0  0  0  0  0  0  0  0  0
  148.8323  134.5395  184.6402 C   0  0  0  0  0  0  0  0  0  0  0  0
  149.5155  134.8290  185.9174 N   0  0  0  0  0  0  0  0  0  0  0  0
  148.8616  133.8842  186.8279 C   0  0  0  0  0  0  0  0  0  0  0  0
  149.2757  132.5080  186.4610 C   0  0  0  0  0  0  0  0  0  0  0  0
 36 37  1  0  0  0
 37 38  1  0  0  0
 38 39  1  0  0  0
 39 40  1  0  0  0
 40 35  1  0  0  0
 35 25  1  0  0  0
 25 26  2  0  0  0
 26 27  1  0  0  0
 27 28  2  0  0  0
 28 29  1  0  0  0
 29 30  2  0  0  0
 30 31  1  0  0  0
 31 32  1  0  0  0
 31 33  1  0  0  0
 31 34  1  0  0  0
 28  1  1  0  0  0
  1  2  2  0  0  0
  1  3  1  0  0  0
  3  5  1  0  0  0
  5  6  2  0  0  0
  6  7  1  0  0  0
  7  8  2  0  0  0
  8  9  1  0  0  0
  8 10  1  0  0  0
 10 12  1  0  0  0
 12 13  1  0  0  0
 13 14  2  0  0  0
 13 16  1  0  0  0
 16 17  2  0  0  0
 17 18  1  0  0  0
 18 19  2  0  0  0
 19 20  1  0  0  0
 20 21  2  0  0  0
 21 22  1  0  0  0
 22 23  2  0  0  0
 23 24  1  0  0  0
 10 11  2  0  0  0
 40 41  1  0  0  0
 41 42  1  0  0  0
 42 37  1  0  0  0
 30 25  1  0  0  0
 11  5  1  0  0  0
 24 16  1  0  0  0
 24 19  1  0  0  0
  3  4  1  0  0  0
 12 15  1  0  0  0
M  END
> <minimizedAffinity>
-8.22696

> <CNNscore>
0.2758043408

> <CNNaffinity>
6.5944962502

> <CNN_VS>
1.8187906742

> <CNNaffinity_variance>
0.0263022427

$$$$
[H]c1nc2c([H])c([H])c([H])c([H])n2c1C(=O)N([H])c1c([H])c(N([H])C(=O)c2c([H])c([H])c(C([H])([H])N3C([H])([H])C([H])([H])N(C([H])([H])[H])C([H])([H])C3([H])[H])c(C(F)(F)F)c2[H])c([H])c([H])c1C([H])([H])[H]


 42 46  0  0  0  0  0  0  0  0999 V2000
  153.6180  137.4536  185.2469 C   0  0  0  0  0  0  0  0  0  0  0  0
  154.2115  136.4231  185.6157 O   0  0  0  0  0  0  0  0  0  0  0  0
  152.2209  137.5322  185.2393 N   0  0  0  0  0  0  0  0  0  0  0  0
  151.8265  138.4717  184.9062 H   0  0  0  0  0  0  0  0  0  0  0  0
  151.3384  136.4980  185.6208 C   0  0  0  0  0  0  0  0  0  0  0  0
  150.6157  135.7091  184.7796 C   0  0  0  0  0  0  0  0  0  0  0  0
  149.8082  134.7091  185.2708 C   0  0  0  0  0  0  0  0  0  0  0  0
  149.7063  134.4768  186.6220 C   0  0  0  0  0  0  0  0  0  0  0  0
  148.8371  133.4013  187.1480 C   0  0  0  0  0  0  0  0  0  0  0  0
  150.4276  135.2602  187.5189 C   0  0  0  0  0  0  0  0  0  0  0  0
  151.2286  136.2543  187.0005 C   0  0  0  0  0  0  0  0  0  0  0  0
  150.2967  134.9837  188.8785 N   0  0  0  0  0  0  0  0  0  0  0  0
  149.3371  135.4202  189.8029 C   0  0  0  0  0  0  0  0  0  0  0  0
  148.4072  136.1748  189.4709 O   0  0  0  0  0  0  0  0  0  0  0  0
  151.0397  134.3328  189.3125 H   0  0  0  0  0  0  0  0  0  0  0  0
  149.3980  134.9954  191.2188 C   0  0  0  0  0  0  0  0  0  0  0  0
  148.6268  133.9856  191.7552 C   0  0  0  0  0  0  0  0  0  0  0  0
  148.9487  133.8746  193.0468 N   0  0  0  0  0  0  0  0  0  0  0  0
  149.8930  134.7789  193.3360 C   0  0  0  0  0  0  0  0  0  0  0  0
  150.5566  135.0667  194.5265 C   0  0  0  0  0  0  0  0  0  0  0  0
  151.5034  136.0622  194.5618 C   0  0  0  0  0  0  0  0  0  0  0  0
  151.7564  136.7445  193.3884 C   0  0  0  0  0  0  0  0  0  0  0  0
  151.0889  136.4444  192.2204 C   0  0  0  0  0  0  0  0  0  0  0  0
  150.1662  135.4709  192.1957 N   0  0  0  0  0  0  0  0  0  0  0  0
  156.0553  140.7502  183.9435 C   0  0  0  0  0  0  0  0  0  0  0  0
  156.5341  139.7931  184.8144 C   0  0  0  0  0  0  0  0  0  0  0  0
  155.7673  138.7090  185.2607 C   0  0  0  0  0  0  0  0  0  0  0  0
  154.4764  138.5700  184.8250 C   0  0  0  0  0  0  0  0  0  0  0  0
  153.9943  139.5080  183.9652 C   0  0  0  0  0  0  0  0  0  0  0  0
  154.7491  140.5994  183.5092 C   0  0  0  0  0  0  0  0  0  0  0  0
  154.1528  141.5691  182.5919 C   0  0  0  0  0  0  0  0  0  0  0  0
  153.8981  142.8105  183.1227 F   0  0  0  0  0  0  0  0  0  0  0  0
  154.8413  141.6614  181.3880 F   0  0  0  0  0  0  0  0  0  0  0  0
  152.8867  141.0879  182.2170 F   0  0  0  0  0  0  0  0  0  0  0  0
  156.8854  141.8527  183.4493 C   0  0  0  0  0  0  0  0  0  0  0  0
  159.2485  143.5171  179.9071 C   0  0  0  0  0  0  0  0  0  0  0  0
  158.4093  143.0561  180.9581 N   0  0  0  0  0  0  0  0  0  0  0  0
  158.1387  141.6590  180.9875 C   0  0  0  0  0  0  0  0  0  0  0  0
  158.6397  140.9219  182.1602 C   0  0  0  0  0  0  0  0  0  0  0  0
  158.2950  141.6206  183.4151 N   0  0  0  0  0  0  0  0  0  0  0  0
  159.1014  142.8404  183.3101 C   0  0  0  0  0  0  0  0  0  0  0  0
  158.5471  143.6834  182.2229 C   0  0  0  0  0  0  0  0  0  0  0  0
 36 37  1  0  0  0
 37 38  1  0  0  0
 38 39  1  0  0  0
 39 40  1  0  0  0
 40 35  1  0  0  0
 35 25  1  0  0  0
 25 26  2  0  0  0
 26 27  1  0  0  0
 27 28  2  0  0  0
 28 29  1  0  0  0
 29 30  2  0  0  0
 30 31  1  0  0  0
 31 32  1  0  0  0
 31 33  1  0  0  0
 31 34  1  0  0  0
 28  1  1  0  0  0
  1  2  2  0  0  0
  1  3  1  0  0  0
  3  5  1  0  0  0
  5  6  2  0  0  0
  6  7  1  0  0  0
  7  8  2  0  0  0
  8  9  1  0  0  0
  8 10  1  0  0  0
 10 12  1  0  0  0
 12 13  1  0  0  0
 13 14  2  0  0  0
 13 16  1  0  0  0
 16 17  2  0  0  0
 17 18  1  0  0  0
 18 19  2  0  0  0
 19 20  1  0  0  0
 20 21  2  0  0  0
 21 22  1  0  0  0
 22 23  2  0  0  0
 23 24  1  0  0  0
 10 11  2  0  0  0
 40 41  1  0  0  0
 41 42  1  0  0  0
 42 37  1  0  0  0
 30 25  1  0  0  0
 11  5  1  0  0  0
 24 16  1  0  0  0
 24 19  1  0  0  0
  3  4  1  0  0  0
 12 15  1  0  0  0
M  END
> <minimizedAffinity>
-8.66500

> <CNNscore>
0.2571862340

> <CNNaffinity>
6.2228608131

> <CNN_VS>
1.6004341841

> <CNNaffinity_variance>
0.1570424885

$$$$
[H]c1nc2c([H])c([H])c([H])c([H])n2c1C(=O)N([H])c1c([H])c(N([H])C(=O)c2c([H])c([H])c(C([H])([H])N3C([H])([H])C([H])([H])N(C([H])([H])[H])C([H])([H])C3([H])[H])c(C(F)(F)F)c2[H])c([H])c([H])c1C([H])([H])[H]


 42 46  0  0  0  0  0  0  0  0999 V2000
  153.9060  137.6929  185.2591 C   0  0  0  0  0  0  0  0  0  0  0  0
  154.4903  136.6094  185.4454 O   0  0  0  0  0  0  0  0  0  0  0  0
  152.5268  137.8255  185.4556 N   0  0  0  0  0  0  0  0  0  0  0  0
  152.1396  138.8074  185.2681 H   0  0  0  0  0  0  0  0  0  0  0  0
  151.6526  136.7938  185.8620 C   0  0  0  0  0  0  0  0  0  0  0  0
  151.0540  135.8823  185.0476 C   0  0  0  0  0  0  0  0  0  0  0  0
  150.2414  134.9003  185.5660 C   0  0  0  0  0  0  0  0  0  0  0  0
  150.0095  134.8099  186.9182 C   0  0  0  0  0  0  0  0  0  0  0  0
  149.1350  133.7534  187.4734 C   0  0  0  0  0  0  0  0  0  0  0  0
  150.6011  135.7218  187.7881 C   0  0  0  0  0  0  0  0  0  0  0  0
  151.4102  136.6947  187.2428 C   0  0  0  0  0  0  0  0  0  0  0  0
  150.3413  135.5869  189.1506 N   0  0  0  0  0  0  0  0  0  0  0  0
  151.2236  135.5195  190.2381 C   0  0  0  0  0  0  0  0  0  0  0  0
  152.4552  135.5816  190.0841 O   0  0  0  0  0  0  0  0  0  0  0  0
  149.3040  135.5215  189.4401 H   0  0  0  0  0  0  0  0  0  0  0  0
  150.7160  135.3700  191.6198 C   0  0  0  0  0  0  0  0  0  0  0  0
  150.5174  136.4237  192.4871 C   0  0  0  0  0  0  0  0  0  0  0  0
  150.0509  135.9207  193.6332 N   0  0  0  0  0  0  0  0  0  0  0  0
  149.9515  134.5908  193.5126 C   0  0  0  0  0  0  0  0  0  0  0  0
  149.5233  133.6156  194.4105 C   0  0  0  0  0  0  0  0  0  0  0  0
  149.5154  132.2933  194.0363 C   0  0  0  0  0  0  0  0  0  0  0  0
  149.9425  131.9888  192.7590 C   0  0  0  0  0  0  0  0  0  0  0  0
  150.3625  132.9686  191.8854 C   0  0  0  0  0  0  0  0  0  0  0  0
  150.3666  134.2568  192.2597 N   0  0  0  0  0  0  0  0  0  0  0  0
  156.3144  140.9957  183.9186 C   0  0  0  0  0  0  0  0  0  0  0  0
  156.8146  140.0301  184.7677 C   0  0  0  0  0  0  0  0  0  0  0  0
  156.0577  138.9438  185.2253 C   0  0  0  0  0  0  0  0  0  0  0  0
  154.7551  138.8112  184.8238 C   0  0  0  0  0  0  0  0  0  0  0  0
  154.2520  139.7576  183.9855 C   0  0  0  0  0  0  0  0  0  0  0  0
  154.9966  140.8515  183.5187 C   0  0  0  0  0  0  0  0  0  0  0  0
  154.3778  141.8304  182.6264 C   0  0  0  0  0  0  0  0  0  0  0  0
  154.0666  143.0409  183.1967 F   0  0  0  0  0  0  0  0  0  0  0  0
  155.0814  141.9927  181.4387 F   0  0  0  0  0  0  0  0  0  0  0  0
  153.1375  141.3150  182.2126 F   0  0  0  0  0  0  0  0  0  0  0  0
  157.1333  142.1009  183.4116 C   0  0  0  0  0  0  0  0  0  0  0  0
  159.4620  143.7563  179.8425 C   0  0  0  0  0  0  0  0  0  0  0  0
  158.6329  143.2970  180.9021 N   0  0  0  0  0  0  0  0  0  0  0  0
  158.3728  141.8981  180.9435 C   0  0  0  0  0  0  0  0  0  0  0  0
  158.8865  141.1734  182.1184 C   0  0  0  0  0  0  0  0  0  0  0  0
  158.5444  141.8789  183.3702 N   0  0  0  0  0  0  0  0  0  0  0  0
  159.3410  143.1037  183.2512 C   0  0  0  0  0  0  0  0  0  0  0  0
  158.7738  143.9346  182.1613 C   0  0  0  0  0  0  0  0  0  0  0  0
 36 37  1  0  0  0
 37 38  1  0  0  0
 38 39  1  0  0  0
 39 40  1  0  0  0
 40 35  1  0  0  0
 35 25  1  0  0  0
 25 26  2  0  0  0
 26 27  1  0  0  0
 27 28  2  0  0  0
 28 29  1  0  0  0
 29 30  2  0  0  0
 30 31  1  0  0  0
 31 32  1  0  0  0
 31 33  1  0  0  0
 31 34  1  0  0  0
 28  1  1  0  0  0
  1  2  2  0  0  0
  1  3  1  0  0  0
  3  5  1  0  0  0
  5  6  2  0  0  0
  6  7  1  0  0  0
  7  8  2  0  0  0
  8  9  1  0  0  0
  8 10  1  0  0  0
 10 12  1  0  0  0
 12 13  1  0  0  0
 13 14  2  0  0  0
 13 16  1  0  0  0
 16 17  2  0  0  0
 17 18  1  0  0  0
 18 19  2  0  0  0
 19 20  1  0  0  0
 20 21  2  0  0  0
 21 22  1  0  0  0
 22 23  2  0  0  0
 23 24  1  0  0  0
 10 11  2  0  0  0
 40 41  1  0  0  0
 41 42  1  0  0  0
 42 37  1  0  0  0
 30 25  1  0  0  0
 11  5  1  0  0  0
 24 16  1  0  0  0
 24 19  1  0  0  0
  3  4  1  0  0  0
 12 15  1  0  0  0
M  END
> <minimizedAffinity>
-8.44118

> <CNNscore>
0.2385212928

> <CNNaffinity>
6.1940641403

> <CNN_VS>
1.4774161577

> <CNNaffinity_variance>
0.1801581681

$$$$
[H]c1nc2c([H])c([H])c([H])c([H])n2c1C(=O)N([H])c1c([H])c(N([H])C(=O)c2c([H])c([H])c(C([H])([H])N3C([H])([H])C([H])([H])N(C([H])([H])[H])C([H])([H])C3([H])[H])c(C(F)(F)F)c2[H])c([H])c([H])c1C([H])([H])[H]


 42 46  0  0  0  0  0  0  0  0999 V2000
  153.7190  138.6451  183.9040 C   0  0  0  0  0  0  0  0  0  0  0  0
  154.5965  138.8300  184.7677 O   0  0  0  0  0  0  0  0  0  0  0  0
  153.4753  139.5825  182.8940 N   0  0  0  0  0  0  0  0  0  0  0  0
  152.6991  139.3095  182.2067 H   0  0  0  0  0  0  0  0  0  0  0  0
  154.1528  140.8108  182.7330 C   0  0  0  0  0  0  0  0  0  0  0  0
  153.5921  141.9934  182.3596 C   0  0  0  0  0  0  0  0  0  0  0  0
  154.3533  143.1357  182.2653 C   0  0  0  0  0  0  0  0  0  0  0  0
  155.6995  143.1180  182.5441 C   0  0  0  0  0  0  0  0  0  0  0  0
  156.5162  144.3475  182.4416 C   0  0  0  0  0  0  0  0  0  0  0  0
  156.3147  141.9299  182.9293 C   0  0  0  0  0  0  0  0  0  0  0  0
  155.5294  140.8011  183.0160 C   0  0  0  0  0  0  0  0  0  0  0  0
  157.6799  141.9623  183.2071 N   0  0  0  0  0  0  0  0  0  0  0  0
  158.3950  141.4417  184.2950 C   0  0  0  0  0  0  0  0  0  0  0  0
  157.8274  140.8333  185.2180 O   0  0  0  0  0  0  0  0  0  0  0  0
  158.3077  142.4618  182.4856 H   0  0  0  0  0  0  0  0  0  0  0  0
  159.8633  141.6000  184.3845 C   0  0  0  0  0  0  0  0  0  0  0  0
  160.7427  141.2149  183.3943 C   0  0  0  0  0  0  0  0  0  0  0  0
  161.9762  141.5115  183.8122 N   0  0  0  0  0  0  0  0  0  0  0  0
  161.8985  142.0678  185.0277 C   0  0  0  0  0  0  0  0  0  0  0  0
  162.8867  142.5475  185.8843 C   0  0  0  0  0  0  0  0  0  0  0  0
  162.5401  143.0826  187.1018 C   0  0  0  0  0  0  0  0  0  0  0  0
  161.1980  143.1194  187.4240 C   0  0  0  0  0  0  0  0  0  0  0  0
  160.2352  142.6396  186.5624 C   0  0  0  0  0  0  0  0  0  0  0  0
  160.5832  142.1190  185.3760 N   0  0  0  0  0  0  0  0  0  0  0  0
  151.5510  134.9370  184.1398 C   0  0  0  0  0  0  0  0  0  0  0  0
  151.3745  135.9414  185.0691 C   0  0  0  0  0  0  0  0  0  0  0  0
  152.0655  137.1592  185.0236 C   0  0  0  0  0  0  0  0  0  0  0  0
  152.9651  137.3881  184.0166 C   0  0  0  0  0  0  0  0  0  0  0  0
  153.1461  136.4043  183.0942 C   0  0  0  0  0  0  0  0  0  0  0  0
  152.4624  135.1794  183.1260 C   0  0  0  0  0  0  0  0  0  0  0  0
  152.7218  134.1700  182.1008 C   0  0  0  0  0  0  0  0  0  0  0  0
  153.1483  132.9487  182.5637 F   0  0  0  0  0  0  0  0  0  0  0  0
  151.6691  134.0351  181.2032 F   0  0  0  0  0  0  0  0  0  0  0  0
  153.7849  134.6270  181.3031 F   0  0  0  0  0  0  0  0  0  0  0  0
  150.7859  133.6870  184.1747 C   0  0  0  0  0  0  0  0  0  0  0  0
  147.8157  130.4347  185.4004 C   0  0  0  0  0  0  0  0  0  0  0  0
  148.8227  131.3929  185.1021 N   0  0  0  0  0  0  0  0  0  0  0  0
  149.4199  131.3054  183.8130 C   0  0  0  0  0  0  0  0  0  0  0  0
  149.2055  132.4533  182.9152 C   0  0  0  0  0  0  0  0  0  0  0  0
  149.4742  133.7291  183.6093 N   0  0  0  0  0  0  0  0  0  0  0  0
  148.3946  133.7641  184.6005 C   0  0  0  0  0  0  0  0  0  0  0  0
  148.6422  132.7053  185.6092 C   0  0  0  0  0  0  0  0  0  0  0  0
 36 37  1  0  0  0
 37 38  1  0  0  0
 38 39  1  0  0  0
 39 40  1  0  0  0
 40 35  1  0  0  0
 35 25  1  0  0  0
 25 26  2  0  0  0
 26 27  1  0  0  0
 27 28  2  0  0  0
 28 29  1  0  0  0
 29 30  2  0  0  0
 30 31  1  0  0  0
 31 32  1  0  0  0
 31 33  1  0  0  0
 31 34  1  0  0  0
 28  1  1  0  0  0
  1  2  2  0  0  0
  1  3  1  0  0  0
  3  5  1  0  0  0
  5  6  2  0  0  0
  6  7  1  0  0  0
  7  8  2  0  0  0
  8  9  1  0  0  0
  8 10  1  0  0  0
 10 12  1  0  0  0
 12 13  1  0  0  0
 13 14  2  0  0  0
 13 16  1  0  0  0
 16 17  2  0  0  0
 17 18  1  0  0  0
 18 19  2  0  0  0
 19 20  1  0  0  0
 20 21  2  0  0  0
 21 22  1  0  0  0
 22 23  2  0  0  0
 23 24  1  0  0  0
 10 11  2  0  0  0
 40 41  1  0  0  0
 41 42  1  0  0  0
 42 37  1  0  0  0
 30 25  1  0  0  0
 11  5  1  0  0  0
 24 16  1  0  0  0
 24 19  1  0  0  0
  3  4  1  0  0  0
 12 15  1  0  0  0
M  END
> <minimizedAffinity>
-8.04108

> <CNNscore>
0.2318318039

> <CNNaffinity>
6.5925302505

> <CNN_VS>
1.5283582211

> <CNNaffinity_variance>
0.1437136978

$$$$
[H]c1nc2c([H])c([H])c([H])c([H])n2c1C(=O)N([H])c1c([H])c(N([H])C(=O)c2c([H])c([H])c(C([H])([H])N3C([H])([H])C([H])([H])N(C([H])([H])[H])C([H])([H])C3([H])[H])c(C(F)(F)F)c2[H])c([H])c([H])c1C([H])([H])[H]


 42 46  0  0  0  0  0  0  0  0999 V2000
  154.4338  137.2469  187.0031 C   0  0  0  0  0  0  0  0  0  0  0  0
  153.9668  138.2837  187.5103 O   0  0  0  0  0  0  0  0  0  0  0  0
  154.6388  137.1337  185.6235 N   0  0  0  0  0  0  0  0  0  0  0  0
  155.0502  136.1957  185.3068 H   0  0  0  0  0  0  0  0  0  0  0  0
  154.3471  138.1294  184.6657 C   0  0  0  0  0  0  0  0  0  0  0  0
  153.2389  138.1843  183.8776 C   0  0  0  0  0  0  0  0  0  0  0  0
  153.0504  139.2255  182.9980 C   0  0  0  0  0  0  0  0  0  0  0  0
  153.9727  140.2392  182.8881 C   0  0  0  0  0  0  0  0  0  0  0  0
  153.7682  141.3575  181.9413 C   0  0  0  0  0  0  0  0  0  0  0  0
  155.1213  140.2230  183.6747 C   0  0  0  0  0  0  0  0  0  0  0  0
  155.2852  139.1692  184.5471 C   0  0  0  0  0  0  0  0  0  0  0  0
  156.0244  141.2748  183.5325 N   0  0  0  0  0  0  0  0  0  0  0  0
  157.1008  141.4304  182.6476 C   0  0  0  0  0  0  0  0  0  0  0  0
  157.3893  140.5578  181.8112 O   0  0  0  0  0  0  0  0  0  0  0  0
  155.8961  142.1146  184.1976 H   0  0  0  0  0  0  0  0  0  0  0  0
  157.9394  142.6490  182.6785 C   0  0  0  0  0  0  0  0  0  0  0  0
  157.7584  143.7315  181.8434 C   0  0  0  0  0  0  0  0  0  0  0  0
  158.6855  144.6411  182.1551 N   0  0  0  0  0  0  0  0  0  0  0  0
  159.4389  144.1653  183.1546 C   0  0  0  0  0  0  0  0  0  0  0  0
  160.5226  144.7183  183.8329 C   0  0  0  0  0  0  0  0  0  0  0  0
  161.1345  144.0130  184.8413 C   0  0  0  0  0  0  0  0  0  0  0  0
  160.6336  142.7613  185.1396 C   0  0  0  0  0  0  0  0  0  0  0  0
  159.5601  142.2316  184.4565 C   0  0  0  0  0  0  0  0  0  0  0  0
  158.9693  142.9278  183.4736 N   0  0  0  0  0  0  0  0  0  0  0  0
  155.4077  134.1433  189.8182 C   0  0  0  0  0  0  0  0  0  0  0  0
  154.9007  133.8560  188.5675 C   0  0  0  0  0  0  0  0  0  0  0  0
  154.5707  134.8416  187.6282 C   0  0  0  0  0  0  0  0  0  0  0  0
  154.7519  136.1621  187.9427 C   0  0  0  0  0  0  0  0  0  0  0  0
  155.2522  136.4565  189.1734 C   0  0  0  0  0  0  0  0  0  0  0  0
  155.5871  135.4815  190.1253 C   0  0  0  0  0  0  0  0  0  0  0  0
  156.1112  135.8823  191.4299 C   0  0  0  0  0  0  0  0  0  0  0  0
  155.2591  135.7042  192.4928 F   0  0  0  0  0  0  0  0  0  0  0  0
  157.3680  135.3483  191.6895 F   0  0  0  0  0  0  0  0  0  0  0  0
  156.3372  137.2691  191.3976 F   0  0  0  0  0  0  0  0  0  0  0  0
  155.7919  133.0988  190.7724 C   0  0  0  0  0  0  0  0  0  0  0  0
  158.9781  130.8062  193.1163 C   0  0  0  0  0  0  0  0  0  0  0  0
  157.9835  131.6026  192.4856 N   0  0  0  0  0  0  0  0  0  0  0  0
  158.3944  132.3416  191.3405 C   0  0  0  0  0  0  0  0  0  0  0  0
  157.7539  131.9780  190.0649 C   0  0  0  0  0  0  0  0  0  0  0  0
  156.2877  131.8801  190.2146 N   0  0  0  0  0  0  0  0  0  0  0  0
  156.1535  130.7178  191.0979 C   0  0  0  0  0  0  0  0  0  0  0  0
  156.6648  131.0819  192.4418 C   0  0  0  0  0  0  0  0  0  0  0  0
 36 37  1  0  0  0
 37 38  1  0  0  0
 38 39  1  0  0  0
 39 40  1  0  0  0
 40 35  1  0  0  0
 35 25  1  0  0  0
 25 26  2  0  0  0
 26 27  1  0  0  0
 27 28  2  0  0  0
 28 29  1  0  0  0
 29 30  2  0  0  0
 30 31  1  0  0  0
 31 32  1  0  0  0
 31 33  1  0  0  0
 31 34  1  0  0  0
 28  1  1  0  0  0
  1  2  2  0  0  0
  1  3  1  0  0  0
  3  5  1  0  0  0
  5  6  2  0  0  0
  6  7  1  0  0  0
  7  8  2  0  0  0
  8  9  1  0  0  0
  8 10  1  0  0  0
 10 12  1  0  0  0
 12 13  1  0  0  0
 13 14  2  0  0  0
 13 16  1  0  0  0
 16 17  2  0  0  0
 17 18  1  0  0  0
 18 19  2  0  0  0
 19 20  1  0  0  0
 20 21  2  0  0  0
 21 22  1  0  0  0
 22 23  2  0  0  0
 23 24  1  0  0  0
 10 11  2  0  0  0
 40 41  1  0  0  0
 41 42  1  0  0  0
 42 37  1  0  0  0
 30 25  1  0  0  0
 11  5  1  0  0  0
 24 16  1  0  0  0
 24 19  1  0  0  0
  3  4  1  0  0  0
 12 15  1  0  0  0
M  END
> <minimizedAffinity>
-8.81961

> <CNNscore>
0.2212863415

> <CNNaffinity>
6.4071707726

> <CNN_VS>
1.4178193808

> <CNNaffinity_variance>
0.1110607386

$$$$
[H]c1nc2c([H])c([H])c([H])c([H])n2c1C(=O)N([H])c1c([H])c(N([H])C(=O)c2c([H])c([H])c(C([H])([H])N3C([H])([H])C([H])([H])N(C([H])([H])[H])C([H])([H])C3([H])[H])c(C(F)(F)F)c2[H])c([H])c([H])c1C([H])([H])[H]


 42 46  0  0  0  0  0  0  0  0999 V2000
  153.9063  141.4107  182.0264 C   0  0  0  0  0  0  0  0  0  0  0  0
  153.0442  142.2825  182.2424 O   0  0  0  0  0  0  0  0  0  0  0  0
  153.5887  140.2088  181.3839 N   0  0  0  0  0  0  0  0  0  0  0  0
  154.4157  139.5397  181.2502 H   0  0  0  0  0  0  0  0  0  0  0  0
  152.3060  139.8368  180.9256 C   0  0  0  0  0  0  0  0  0  0  0  0
  151.7859  140.1002  179.6958 C   0  0  0  0  0  0  0  0  0  0  0  0
  150.5287  139.6583  179.3528 C   0  0  0  0  0  0  0  0  0  0  0  0
  149.7614  138.9398  180.2388 C   0  0  0  0  0  0  0  0  0  0  0  0
  148.4097  138.4660  179.8680 C   0  0  0  0  0  0  0  0  0  0  0  0
  150.2537  138.6480  181.5081 C   0  0  0  0  0  0  0  0  0  0  0  0
  151.5152  139.1021  181.8256 C   0  0  0  0  0  0  0  0  0  0  0  0
  149.4420  137.9122  182.3694 N   0  0  0  0  0  0  0  0  0  0  0  0
  149.5597  136.5874  182.8134 C   0  0  0  0  0  0  0  0  0  0  0  0
  150.4975  135.8579  182.4489 O   0  0  0  0  0  0  0  0  0  0  0  0
  148.5795  138.4202  182.7717 H   0  0  0  0  0  0  0  0  0  0  0  0
  148.5630  136.0051  183.7388 C   0  0  0  0  0  0  0  0  0  0  0  0
  147.7352  134.9501  183.4169 C   0  0  0  0  0  0  0  0  0  0  0  0
  146.9777  134.6907  184.4860 N   0  0  0  0  0  0  0  0  0  0  0  0
  147.3027  135.5460  185.4637 C   0  0  0  0  0  0  0  0  0  0  0  0
  146.8125  135.6905  186.7596 C   0  0  0  0  0  0  0  0  0  0  0  0
  147.3237  136.6651  187.5827 C   0  0  0  0  0  0  0  0  0  0  0  0
  148.3214  137.4723  187.0731 C   0  0  0  0  0  0  0  0  0  0  0  0
  148.7928  137.3132  185.7878 C   0  0  0  0  0  0  0  0  0  0  0  0
  148.2876  136.3590  184.9916 N   0  0  0  0  0  0  0  0  0  0  0  0
  157.9156  142.3459  183.2743 C   0  0  0  0  0  0  0  0  0  0  0  0
  156.9483  141.9509  184.1754 C   0  0  0  0  0  0  0  0  0  0  0  0
  155.6335  141.6416  183.8037 C   0  0  0  0  0  0  0  0  0  0  0  0
  155.2659  141.7272  182.4872 C   0  0  0  0  0  0  0  0  0  0  0  0
  156.2125  142.1151  181.5899 C   0  0  0  0  0  0  0  0  0  0  0  0
  157.5330  142.4285  181.9461 C   0  0  0  0  0  0  0  0  0  0  0  0
  158.4876  142.8466  180.9208 C   0  0  0  0  0  0  0  0  0  0  0  0
  158.8648  144.1670  180.9630 F   0  0  0  0  0  0  0  0  0  0  0  0
  159.5903  142.0042  180.8400 F   0  0  0  0  0  0  0  0  0  0  0  0
  157.8664  142.7052  179.6681 F   0  0  0  0  0  0  0  0  0  0  0  0
  159.2993  142.6209  183.6726 C   0  0  0  0  0  0  0  0  0  0  0  0
  162.0939  143.2587  187.2342 C   0  0  0  0  0  0  0  0  0  0  0  0
  161.1875  143.1829  186.1415 N   0  0  0  0  0  0  0  0  0  0  0  0
  161.7645  143.0900  184.8437 C   0  0  0  0  0  0  0  0  0  0  0  0
  161.4966  141.8484  184.0979 C   0  0  0  0  0  0  0  0  0  0  0  0
  160.0608  141.5040  184.1360 N   0  0  0  0  0  0  0  0  0  0  0  0
  159.8651  141.1918  185.5549 C   0  0  0  0  0  0  0  0  0  0  0  0
  159.9923  142.4448  186.3383 C   0  0  0  0  0  0  0  0  0  0  0  0
 36 37  1  0  0  0
 37 38  1  0  0  0
 38 39  1  0  0  0
 39 40  1  0  0  0
 40 35  1  0  0  0
 35 25  1  0  0  0
 25 26  2  0  0  0
 26 27  1  0  0  0
 27 28  2  0  0  0
 28 29  1  0  0  0
 29 30  2  0  0  0
 30 31  1  0  0  0
 31 32  1  0  0  0
 31 33  1  0  0  0
 31 34  1  0  0  0
 28  1  1  0  0  0
  1  2  2  0  0  0
  1  3  1  0  0  0
  3  5  1  0  0  0
  5  6  2  0  0  0
  6  7  1  0  0  0
  7  8  2  0  0  0
  8  9  1  0  0  0
  8 10  1  0  0  0
 10 12  1  0  0  0
 12 13  1  0  0  0
 13 14  2  0  0  0
 13 16  1  0  0  0
 16 17  2  0  0  0
 17 18  1  0  0  0
 18 19  2  0  0  0
 19 20  1  0  0  0
 20 21  2  0  0  0
 21 22  1  0  0  0
 22 23  2  0  0  0
 23 24  1  0  0  0
 10 11  2  0  0  0
 40 41  1  0  0  0
 41 42  1  0  0  0
 42 37  1  0  0  0
 30 25  1  0  0  0
 11  5  1  0  0  0
 24 16  1  0  0  0
 24 19  1  0  0  0
  3  4  1  0  0  0
 12 15  1  0  0  0
M  END
> <minimizedAffinity>
-9.43211

> <CNNscore>
0.2119902074

> <CNNaffinity>
6.5500817299

> <CNN_VS>
1.3885531425

> <CNNaffinity_variance>
0.0802839845

$$$$
[H]c1nc2c([H])c([H])c([H])c([H])n2c1C(=O)N([H])c1c([H])c(N([H])C(=O)c2c([H])c([H])c(C([H])([H])N3C([H])([H])C([H])([H])N(C([H])([H])[H])C([H])([H])C3([H])[H])c(C(F)(F)F)c2[H])c([H])c([H])c1C([H])([H])[H]


 42 46  0  0  0  0  0  0  0  0999 V2000
  153.3390  138.0612  185.6794 C   0  0  0  0  0  0  0  0  0  0  0  0
  153.3735  139.0416  186.4461 O   0  0  0  0  0  0  0  0  0  0  0  0
  153.7838  138.1498  184.3556 N   0  0  0  0  0  0  0  0  0  0  0  0
  153.7088  137.2387  183.7955 H   0  0  0  0  0  0  0  0  0  0  0  0
  154.2973  139.3111  183.7380 C   0  0  0  0  0  0  0  0  0  0  0  0
  153.6252  140.1287  182.8823 C   0  0  0  0  0  0  0  0  0  0  0  0
  154.2250  141.2538  182.3651 C   0  0  0  0  0  0  0  0  0  0  0  0
  155.5177  141.5858  182.6951 C   0  0  0  0  0  0  0  0  0  0  0  0
  156.1609  142.7959  182.1374 C   0  0  0  0  0  0  0  0  0  0  0  0
  156.2428  140.7775  183.5666 C   0  0  0  0  0  0  0  0  0  0  0  0
  155.6183  139.6573  184.0701 C   0  0  0  0  0  0  0  0  0  0  0  0
  157.5473  141.1576  183.8761 N   0  0  0  0  0  0  0  0  0  0  0  0
  158.7646  140.5137  183.6122 C   0  0  0  0  0  0  0  0  0  0  0  0
  158.8111  139.4268  183.0116 O   0  0  0  0  0  0  0  0  0  0  0  0
  157.6660  142.0918  184.4025 H   0  0  0  0  0  0  0  0  0  0  0  0
  160.0482  141.1096  184.0438 C   0  0  0  0  0  0  0  0  0  0  0  0
  161.2139  141.0462  183.3094 C   0  0  0  0  0  0  0  0  0  0  0  0
  162.1600  141.6906  183.9977 N   0  0  0  0  0  0  0  0  0  0  0  0
  161.6270  142.1538  185.1353 C   0  0  0  0  0  0  0  0  0  0  0  0
  162.1860  142.8822  186.1830 C   0  0  0  0  0  0  0  0  0  0  0  0
  161.4111  143.2431  187.2590 C   0  0  0  0  0  0  0  0  0  0  0  0
  160.0855  142.8571  187.2490 C   0  0  0  0  0  0  0  0  0  0  0  0
  159.5511  142.1365  186.2027 C   0  0  0  0  0  0  0  0  0  0  0  0
  160.3155  141.7887  185.1565 N   0  0  0  0  0  0  0  0  0  0  0  0
  151.7859  134.3768  187.2664 C   0  0  0  0  0  0  0  0  0  0  0  0
  151.8024  135.5382  188.0111 C   0  0  0  0  0  0  0  0  0  0  0  0
  152.3027  136.7536  187.5265 C   0  0  0  0  0  0  0  0  0  0  0  0
  152.8050  136.8180  186.2540 C   0  0  0  0  0  0  0  0  0  0  0  0
  152.7927  135.6784  185.5106 C   0  0  0  0  0  0  0  0  0  0  0  0
  152.2957  134.4535  185.9813 C   0  0  0  0  0  0  0  0  0  0  0  0
  152.3274  133.2719  185.1210 C   0  0  0  0  0  0  0  0  0  0  0  0
  152.9647  132.1729  185.6442 F   0  0  0  0  0  0  0  0  0  0  0  0
  151.0747  132.9424  184.6169 F   0  0  0  0  0  0  0  0  0  0  0  0
  153.0756  133.5914  183.9750 F   0  0  0  0  0  0  0  0  0  0  0  0
  151.2160  133.1242  187.7715 C   0  0  0  0  0  0  0  0  0  0  0  0
  148.9315  130.5686  190.7967 C   0  0  0  0  0  0  0  0  0  0  0  0
  149.7464  131.3466  189.9296 N   0  0  0  0  0  0  0  0  0  0  0  0
  150.0486  130.7758  188.6611 C   0  0  0  0  0  0  0  0  0  0  0  0
  149.5269  131.4901  187.4833 C   0  0  0  0  0  0  0  0  0  0  0  0
  149.8140  132.9366  187.5678 N   0  0  0  0  0  0  0  0  0  0  0  0
  148.9831  133.3409  188.7059 C   0  0  0  0  0  0  0  0  0  0  0  0
  149.5527  132.7517  189.9422 C   0  0  0  0  0  0  0  0  0  0  0  0
 36 37  1  0  0  0
 37 38  1  0  0  0
 38 39  1  0  0  0
 39 40  1  0  0  0
 40 35  1  0  0  0
 35 25  1  0  0  0
 25 26  2  0  0  0
 26 27  1  0  0  0
 27 28  2  0  0  0
 28 29  1  0  0  0
 29 30  2  0  0  0
 30 31  1  0  0  0
 31 32  1  0  0  0
 31 33  1  0  0  0
 31 34  1  0  0  0
 28  1  1  0  0  0
  1  2  2  0  0  0
  1  3  1  0  0  0
  3  5  1  0  0  0
  5  6  2  0  0  0
  6  7  1  0  0  0
  7  8  2  0  0  0
  8  9  1  0  0  0
  8 10  1  0  0  0
 10 12  1  0  0  0
 12 13  1  0  0  0
 13 14  2  0  0  0
 13 16  1  0  0  0
 16 17  2  0  0  0
 17 18  1  0  0  0
 18 19  2  0  0  0
 19 20  1  0  0  0
 20 21  2  0  0  0
 21 22  1  0  0  0
 22 23  2  0  0  0
 23 24  1  0  0  0
 10 11  2  0  0  0
 40 41  1  0  0  0
 41 42  1  0  0  0
 42 37  1  0  0  0
 30 25  1  0  0  0
 11  5  1  0  0  0
 24 16  1  0  0  0
 24 19  1  0  0  0
  3  4  1  0  0  0
 12 15  1  0  0  0
M  END
> <minimizedAffinity>
-7.16880

> <CNNscore>
0.2075131536

> <CNNaffinity>
6.2947530746

> <CNN_VS>
1.3062440157

> <CNNaffinity_variance>
0.0531038865

$$$$
[H]c1nc2c([H])c([H])c([H])c([H])n2c1C(=O)N([H])c1c([H])c(N([H])C(=O)c2c([H])c([H])c(C([H])([H])N3C([H])([H])C([H])([H])N(C([H])([H])[H])C([H])([H])C3([H])[H])c(C(F)(F)F)c2[H])c([H])c([H])c1C([H])([H])[H]


 42 46  0  0  0  0  0  0  0  0999 V2000
  153.8865  138.8155  184.1747 C   0  0  0  0  0  0  0  0  0  0  0  0
  154.7968  139.0013  185.0036 O   0  0  0  0  0  0  0  0  0  0  0  0
  153.6434  139.7225  183.1371 N   0  0  0  0  0  0  0  0  0  0  0  0
  152.8369  139.4517  182.4848 H   0  0  0  0  0  0  0  0  0  0  0  0
  154.3575  140.9190  182.9084 C   0  0  0  0  0  0  0  0  0  0  0  0
  153.8290  142.1007  182.4883 C   0  0  0  0  0  0  0  0  0  0  0  0
  154.6250  143.2117  182.3289 C   0  0  0  0  0  0  0  0  0  0  0  0
  155.9744  143.1626  182.5878 C   0  0  0  0  0  0  0  0  0  0  0  0
  156.8284  144.3584  182.4154 C   0  0  0  0  0  0  0  0  0  0  0  0
  156.5572  141.9741  183.0192 C   0  0  0  0  0  0  0  0  0  0  0  0
  155.7375  140.8770  183.1707 C   0  0  0  0  0  0  0  0  0  0  0  0
  157.9272  141.9743  183.2746 N   0  0  0  0  0  0  0  0  0  0  0  0
  158.6270  141.7131  184.4612 C   0  0  0  0  0  0  0  0  0  0  0  0
  158.0375  141.4225  185.5159 O   0  0  0  0  0  0  0  0  0  0  0  0
  158.5732  142.2102  182.4433 H   0  0  0  0  0  0  0  0  0  0  0  0
  160.1047  141.7754  184.5009 C   0  0  0  0  0  0  0  0  0  0  0  0
  160.9221  141.3689  183.4672 C   0  0  0  0  0  0  0  0  0  0  0  0
  162.1861  141.5729  183.8481 N   0  0  0  0  0  0  0  0  0  0  0  0
  162.1870  142.0920  185.0823 C   0  0  0  0  0  0  0  0  0  0  0  0
  163.2335  142.4794  185.9161 C   0  0  0  0  0  0  0  0  0  0  0  0
  162.9650  142.9944  187.1617 C   0  0  0  0  0  0  0  0  0  0  0  0
  161.6401  143.1050  187.5346 C   0  0  0  0  0  0  0  0  0  0  0  0
  160.6188  142.7159  186.6948 C   0  0  0  0  0  0  0  0  0  0  0  0
  160.8908  142.2144  185.4807 N   0  0  0  0  0  0  0  0  0  0  0  0
  151.4849  135.2804  184.6653 C   0  0  0  0  0  0  0  0  0  0  0  0
  152.7339  135.3950  185.2402 C   0  0  0  0  0  0  0  0  0  0  0  0
  153.5427  136.5300  185.0986 C   0  0  0  0  0  0  0  0  0  0  0  0
  153.0937  137.5914  184.3587 C   0  0  0  0  0  0  0  0  0  0  0  0
  151.8627  137.4891  183.7880 C   0  0  0  0  0  0  0  0  0  0  0  0
  151.0408  136.3595  183.9199 C   0  0  0  0  0  0  0  0  0  0  0  0
  149.7336  136.3256  183.2663 C   0  0  0  0  0  0  0  0  0  0  0  0
  149.7436  136.5236  181.9068 F   0  0  0  0  0  0  0  0  0  0  0  0
  148.9906  135.2029  183.6120 F   0  0  0  0  0  0  0  0  0  0  0  0
  148.9727  137.3967  183.7652 F   0  0  0  0  0  0  0  0  0  0  0  0
  150.6312  134.1049  184.8616 C   0  0  0  0  0  0  0  0  0  0  0  0
  146.8121  132.4585  186.7603 C   0  0  0  0  0  0  0  0  0  0  0  0
  147.9276  133.0051  186.0688 N   0  0  0  0  0  0  0  0  0  0  0  0
  148.4798  134.2036  186.6024 C   0  0  0  0  0  0  0  0  0  0  0  0
  149.8631  134.1191  187.1012 C   0  0  0  0  0  0  0  0  0  0  0  0
  150.7409  133.4439  186.1238 N   0  0  0  0  0  0  0  0  0  0  0  0
  150.2068  132.0787  186.1344 C   0  0  0  0  0  0  0  0  0  0  0  0
  148.8598  132.0915  185.5136 C   0  0  0  0  0  0  0  0  0  0  0  0
 36 37  1  0  0  0
 37 38  1  0  0  0
 38 39  1  0  0  0
 39 40  1  0  0  0
 40 35  1  0  0  0
 35 25  1  0  0  0
 25 26  2  0  0  0
 26 27  1  0  0  0
 27 28  2  0  0  0
 28 29  1  0  0  0
 29 30  2  0  0  0
 30 31  1  0  0  0
 31 32  1  0  0  0
 31 33  1  0  0  0
 31 34  1  0  0  0
 28  1  1  0  0  0
  1  2  2  0  0  0
  1  3  1  0  0  0
  3  5  1  0  0  0
  5  6  2  0  0  0
  6  7  1  0  0  0
  7  8  2  0  0  0
  8  9  1  0  0  0
  8 10  1  0  0  0
 10 12  1  0  0  0
 12 13  1  0  0  0
 13 14  2  0  0  0
 13 16  1  0  0  0
 16 17  2  0  0  0
 17 18  1  0  0  0
 18 19  2  0  0  0
 19 20  1  0  0  0
 20 21  2  0  0  0
 21 22  1  0  0  0
 22 23  2  0  0  0
 23 24  1  0  0  0
 10 11  2  0  0  0
 40 41  1  0  0  0
 41 42  1  0  0  0
 42 37  1  0  0  0
 30 25  1  0  0  0
 11  5  1  0  0  0
 24 16  1  0  0  0
 24 19  1  0  0  0
  3  4  1  0  0  0
 12 15  1  0  0  0
M  END
> <minimizedAffinity>
-7.95371

> <CNNscore>
0.2056916654

> <CNNaffinity>
6.4060883522

> <CNN_VS>
1.3176789284

> <CNNaffinity_variance>
0.0750042275

$$$$
[H]c1nc2c([H])c([H])c([H])c([H])n2c1C(=O)N([H])c1c([H])c(N([H])C(=O)c2c([H])c([H])c(C([H])([H])N3C([H])([H])C([H])([H])N(C([H])([H])[H])C([H])([H])C3([H])[H])c(C(F)(F)F)c2[H])c([H])c([H])c1C([H])([H])[H]


 42 46  0  0  0  0  0  0  0  0999 V2000
  153.3432  137.7765  185.4982 C   0  0  0  0  0  0  0  0  0  0  0  0
  153.3091  136.6842  184.9015 O   0  0  0  0  0  0  0  0  0  0  0  0
  152.4961  138.0486  186.5783 N   0  0  0  0  0  0  0  0  0  0  0  0
  152.6220  139.0205  187.0129 H   0  0  0  0  0  0  0  0  0  0  0  0
  151.5275  137.1663  187.1046 C   0  0  0  0  0  0  0  0  0  0  0  0
  150.2922  136.9287  186.5850 C   0  0  0  0  0  0  0  0  0  0  0  0
  149.4430  136.0197  187.1732 C   0  0  0  0  0  0  0  0  0  0  0  0
  149.8147  135.3258  188.3004 C   0  0  0  0  0  0  0  0  0  0  0  0
  148.8998  134.3491  188.9314 C   0  0  0  0  0  0  0  0  0  0  0  0
  151.0691  135.5378  188.8660 C   0  0  0  0  0  0  0  0  0  0  0  0
  151.8996  136.4531  188.2570 C   0  0  0  0  0  0  0  0  0  0  0  0
  151.4034  134.8072  190.0046 N   0  0  0  0  0  0  0  0  0  0  0  0
  151.5500  135.2222  191.3358 C   0  0  0  0  0  0  0  0  0  0  0  0
  151.3772  136.4058  191.6732 O   0  0  0  0  0  0  0  0  0  0  0  0
  151.5830  133.7524  189.8660 H   0  0  0  0  0  0  0  0  0  0  0  0
  151.9195  134.2583  192.3957 C   0  0  0  0  0  0  0  0  0  0  0  0
  151.4794  134.3396  193.7002 C   0  0  0  0  0  0  0  0  0  0  0  0
  152.0042  133.3088  194.3681 N   0  0  0  0  0  0  0  0  0  0  0  0
  152.7561  132.5870  193.5276 C   0  0  0  0  0  0  0  0  0  0  0  0
  153.5061  131.4302  193.7271 C   0  0  0  0  0  0  0  0  0  0  0  0
  154.2022  130.8738  192.6809 C   0  0  0  0  0  0  0  0  0  0  0  0
  154.1225  131.5033  191.4545 C   0  0  0  0  0  0  0  0  0  0  0  0
  153.3746  132.6475  191.2776 C   0  0  0  0  0  0  0  0  0  0  0  0
  152.6984  133.1833  192.3049 N   0  0  0  0  0  0  0  0  0  0  0  0
  156.1396  140.6614  183.9609 C   0  0  0  0  0  0  0  0  0  0  0  0
  156.5241  139.6815  184.8528 C   0  0  0  0  0  0  0  0  0  0  0  0
  155.6395  138.7288  185.3747 C   0  0  0  0  0  0  0  0  0  0  0  0
  154.3237  138.7497  184.9957 C   0  0  0  0  0  0  0  0  0  0  0  0
  153.9340  139.7116  184.1157 C   0  0  0  0  0  0  0  0  0  0  0  0
  154.8072  140.6729  183.5843 C   0  0  0  0  0  0  0  0  0  0  0  0
  154.3061  141.6794  182.6500 C   0  0  0  0  0  0  0  0  0  0  0  0
  154.2068  142.9558  183.1485 F   0  0  0  0  0  0  0  0  0  0  0  0
  154.9743  141.6591  181.4314 F   0  0  0  0  0  0  0  0  0  0  0  0
  152.9853  141.3371  182.3129 F   0  0  0  0  0  0  0  0  0  0  0  0
  157.0871  141.6221  183.3879 C   0  0  0  0  0  0  0  0  0  0  0  0
  159.3481  143.3712  179.8200 C   0  0  0  0  0  0  0  0  0  0  0  0
  158.5501  142.9102  180.9025 N   0  0  0  0  0  0  0  0  0  0  0  0
  157.9973  141.6050  180.7725 C   0  0  0  0  0  0  0  0  0  0  0  0
  158.4568  140.6017  181.7482 C   0  0  0  0  0  0  0  0  0  0  0  0
  158.4045  141.1349  183.1246 N   0  0  0  0  0  0  0  0  0  0  0  0
  159.4325  142.1792  183.0806 C   0  0  0  0  0  0  0  0  0  0  0  0
  158.9528  143.2809  182.2112 C   0  0  0  0  0  0  0  0  0  0  0  0
 36 37  1  0  0  0
 37 38  1  0  0  0
 38 39  1  0  0  0
 39 40  1  0  0  0
 40 35  1  0  0  0
 35 25  1  0  0  0
 25 26  2  0  0  0
 26 27  1  0  0  0
 27 28  2  0  0  0
 28 29  1  0  0  0
 29 30  2  0  0  0
 30 31  1  0  0  0
 31 32  1  0  0  0
 31 33  1  0  0  0
 31 34  1  0  0  0
 28  1  1  0  0  0
  1  2  2  0  0  0
  1  3  1  0  0  0
  3  5  1  0  0  0
  5  6  2  0  0  0
  6  7  1  0  0  0
  7  8  2  0  0  0
  8  9  1  0  0  0
  8 10  1  0  0  0
 10 12  1  0  0  0
 12 13  1  0  0  0
 13 14  2  0  0  0
 13 16  1  0  0  0
 16 17  2  0  0  0
 17 18  1  0  0  0
 18 19  2  0  0  0
 19 20  1  0  0  0
 20 21  2  0  0  0
 21 22  1  0  0  0
 22 23  2  0  0  0
 23 24  1  0  0  0
 10 11  2  0  0  0
 40 41  1  0  0  0
 41 42  1  0  0  0
 42 37  1  0  0  0
 30 25  1  0  0  0
 11  5  1  0  0  0
 24 16  1  0  0  0
 24 19  1  0  0  0
  3  4  1  0  0  0
 12 15  1  0  0  0
M  END
> <minimizedAffinity>
-8.12141

> <CNNscore>
0.2051177174

> <CNNaffinity>
6.2555537224

> <CNN_VS>
1.2831249237

> <CNNaffinity_variance>
0.3164556324

$$$$
[H]c1c([H])c([H])c2c(c1[H])C([H])([H])N(C1([H])C([H])([H])C([H])([H])N(C(=O)c3c([H])c(OC([H])([H])[H])c(OC([H])([H])[H])c(OC([H])([H])[H])c3[H])C([H])([H])C1([H])[H])C([H])([H])C2([H])[H]


 30 33  0  0  0  0  0  0  0  0999 V2000
  154.9305  138.8591  184.5728 C   0  0  0  0  0  0  0  0  0  0  0  0
  153.9243  138.4710  183.8295 O   0  0  0  0  0  0  0  0  0  0  0  0
  155.0634  138.2409  185.8106 N   0  0  0  0  0  0  0  0  0  0  0  0
  156.0026  138.4306  186.8579 C   0  0  0  0  0  0  0  0  0  0  0  0
  155.5539  137.7746  188.1724 C   0  0  0  0  0  0  0  0  0  0  0  0
  155.2142  136.3331  188.0281 C   0  0  0  0  0  0  0  0  0  0  0  0
  154.9171  135.9849  186.5676 C   0  0  0  0  0  0  0  0  0  0  0  0
  154.0534  137.1801  186.1017 C   0  0  0  0  0  0  0  0  0  0  0  0
  156.2183  135.4884  188.5650 N   0  0  0  0  0  0  0  0  0  0  0  0
  156.5172  135.8570  189.9181 C   0  0  0  0  0  0  0  0  0  0  0  0
  157.0421  134.6559  190.6844 C   0  0  0  0  0  0  0  0  0  0  0  0
  158.0030  133.9194  189.8059 C   0  0  0  0  0  0  0  0  0  0  0  0
  158.7648  132.9317  190.4100 C   0  0  0  0  0  0  0  0  0  0  0  0
  159.6733  132.2147  189.6531 C   0  0  0  0  0  0  0  0  0  0  0  0
  159.8508  132.4436  188.3211 C   0  0  0  0  0  0  0  0  0  0  0  0
  159.0726  133.4410  187.7399 C   0  0  0  0  0  0  0  0  0  0  0  0
  158.1642  134.1643  188.4776 C   0  0  0  0  0  0  0  0  0  0  0  0
  157.3655  135.2158  187.7904 C   0  0  0  0  0  0  0  0  0  0  0  0
  155.8154  142.0817  182.8669 C   0  0  0  0  0  0  0  0  0  0  0  0
  155.1333  141.0800  183.4887 C   0  0  0  0  0  0  0  0  0  0  0  0
  155.7242  139.8831  183.9394 C   0  0  0  0  0  0  0  0  0  0  0  0
  157.0668  139.7949  183.7010 C   0  0  0  0  0  0  0  0  0  0  0  0
  157.8293  140.7816  183.0701 C   0  0  0  0  0  0  0  0  0  0  0  0
  157.1654  141.9215  182.6626 C   0  0  0  0  0  0  0  0  0  0  0  0
  153.8574  143.4628  182.7877 C   0  0  0  0  0  0  0  0  0  0  0  0
  155.2094  143.2445  182.4361 O   0  0  0  0  0  0  0  0  0  0  0  0
  159.1913  140.6447  182.8510 O   0  0  0  0  0  0  0  0  0  0  0  0
  160.0602  141.0791  183.8805 C   0  0  0  0  0  0  0  0  0  0  0  0
  157.8962  142.9247  182.0311 O   0  0  0  0  0  0  0  0  0  0  0  0
  158.1115  142.9399  180.6372 C   0  0  0  0  0  0  0  0  0  0  0  0
 25 26  1  0  0  0
 26 19  1  0  0  0
 19 20  2  0  0  0
 20 21  1  0  0  0
 21 22  2  0  0  0
 22 23  1  0  0  0
 23 27  1  0  0  0
 27 28  1  0  0  0
 23 24  2  0  0  0
 24 29  1  0  0  0
 29 30  1  0  0  0
 21  1  1  0  0  0
  1  2  2  0  0  0
  1  3  1  0  0  0
  3  4  1  0  0  0
  4  5  1  0  0  0
  5  6  1  0  0  0
  6  7  1  0  0  0
  7  8  1  0  0  0
  6  9  1  0  0  0
  9 10  1  0  0  0
 10 11  1  0  0  0
 11 12  1  0  0  0
 12 13  2  0  0  0
 13 14  1  0  0  0
 14 15  2  0  0  0
 15 16  1  0  0  0
 16 17  2  0  0  0
 17 18  1  0  0  0
 24 19  1  0  0  0
  8  3  1  0  0  0
 18  9  1  0  0  0
 17 12  1  0  0  0
M  END
> <minimizedAffinity>
-7.64841

> <CNNscore>
0.4225004911

> <CNNaffinity>
5.7636237144

> <CNN_VS>
2.4351339340

> <CNNaffinity_variance>
0.0913059711

$$$$
[H]c1c([H])c([H])c2c(c1[H])C([H])([H])N(C1([H])C([H])([H])C([H])([H])N(C(=O)c3c([H])c(OC([H])([H])[H])c(OC([H])([H])[H])c(OC([H])([H])[H])c3[H])C([H])([H])C1([H])[H])C([H])([H])C2([H])[H]


 30 33  0  0  0  0  0  0  0  0999 V2000
  155.3588  138.7696  185.3692 C   0  0  0  0  0  0  0  0  0  0  0  0
  156.5338  139.3483  185.3722 O   0  0  0  0  0  0  0  0  0  0  0  0
  155.1128  137.8575  186.3888 N   0  0  0  0  0  0  0  0  0  0  0  0
  153.9818  137.0470  186.6697 C   0  0  0  0  0  0  0  0  0  0  0  0
  154.2918  135.9441  187.6930 C   0  0  0  0  0  0  0  0  0  0  0  0
  154.8934  136.4587  188.9530 C   0  0  0  0  0  0  0  0  0  0  0  0
  155.5040  137.8460  188.7406 C   0  0  0  0  0  0  0  0  0  0  0  0
  156.2201  137.6977  187.3779 C   0  0  0  0  0  0  0  0  0  0  0  0
  153.9686  136.4619  190.0276 N   0  0  0  0  0  0  0  0  0  0  0  0
  154.5654  137.0217  191.2050 C   0  0  0  0  0  0  0  0  0  0  0  0
  153.4955  137.6215  192.1000 C   0  0  0  0  0  0  0  0  0  0  0  0
  152.3328  136.6812  192.1401 C   0  0  0  0  0  0  0  0  0  0  0  0
  151.3572  136.9403  193.0898 C   0  0  0  0  0  0  0  0  0  0  0  0
  150.2569  136.1073  193.1797 C   0  0  0  0  0  0  0  0  0  0  0  0
  150.0923  135.0295  192.3616 C   0  0  0  0  0  0  0  0  0  0  0  0
  151.0871  134.7927  191.4168 C   0  0  0  0  0  0  0  0  0  0  0  0
  152.1884  135.6107  191.3134 C   0  0  0  0  0  0  0  0  0  0  0  0
  153.2128  135.2976  190.2798 C   0  0  0  0  0  0  0  0  0  0  0  0
  152.8040  138.6665  182.6232 C   0  0  0  0  0  0  0  0  0  0  0  0
  153.6061  138.3295  183.6712 C   0  0  0  0  0  0  0  0  0  0  0  0
  154.5290  139.2069  184.2738 C   0  0  0  0  0  0  0  0  0  0  0  0
  154.5647  140.4542  183.7166 C   0  0  0  0  0  0  0  0  0  0  0  0
  153.7721  140.8687  182.6429 C   0  0  0  0  0  0  0  0  0  0  0  0
  152.8954  139.9411  182.1163 C   0  0  0  0  0  0  0  0  0  0  0  0
  151.6185  136.5863  182.7445 C   0  0  0  0  0  0  0  0  0  0  0  0
  151.9080  137.7851  182.0529 O   0  0  0  0  0  0  0  0  0  0  0  0
  153.8454  142.1474  182.1123 O   0  0  0  0  0  0  0  0  0  0  0  0
  154.4700  143.1420  182.9024 C   0  0  0  0  0  0  0  0  0  0  0  0
  152.0905  140.3223  181.0457 O   0  0  0  0  0  0  0  0  0  0  0  0
  152.0316  139.5857  179.8443 C   0  0  0  0  0  0  0  0  0  0  0  0
 25 26  1  0  0  0
 26 19  1  0  0  0
 19 20  2  0  0  0
 20 21  1  0  0  0
 21 22  2  0  0  0
 22 23  1  0  0  0
 23 27  1  0  0  0
 27 28  1  0  0  0
 23 24  2  0  0  0
 24 29  1  0  0  0
 29 30  1  0  0  0
 21  1  1  0  0  0
  1  2  2  0  0  0
  1  3  1  0  0  0
  3  4  1  0  0  0
  4  5  1  0  0  0
  5  6  1  0  0  0
  6  7  1  0  0  0
  7  8  1  0  0  0
  6  9  1  0  0  0
  9 10  1  0  0  0
 10 11  1  0  0  0
 11 12  1  0  0  0
 12 13  2  0  0  0
 13 14  1  0  0  0
 14 15  2  0  0  0
 15 16  1  0  0  0
 16 17  2  0  0  0
 17 18  1  0  0  0
 24 19  1  0  0  0
  8  3  1  0  0  0
 18  9  1  0  0  0
 17 12  1  0  0  0
M  END
> <minimizedAffinity>
-7.27397

> <CNNscore>
0.4176915884

> <CNNaffinity>
5.3899679184

> <CNN_VS>
2.2513442039

> <CNNaffinity_variance>
0.1060296148

$$$$
[H]c1c([H])c([H])c2c(c1[H])C([H])([H])N(C1([H])C([H])([H])C([H])([H])N(C(=O)c3c([H])c(OC([H])([H])[H])c(OC([H])([H])[H])c(OC([H])([H])[H])c3[H])C([H])([H])C1([H])[H])C([H])([H])C2([H])[H]


 30 33  0  0  0  0  0  0  0  0999 V2000
  154.8198  138.8432  184.5685 C   0  0  0  0  0  0  0  0  0  0  0  0
  153.8246  138.4433  183.8168 O   0  0  0  0  0  0  0  0  0  0  0  0
  154.9714  138.2012  185.7920 N   0  0  0  0  0  0  0  0  0  0  0  0
  155.9057  138.3939  186.8431 C   0  0  0  0  0  0  0  0  0  0  0  0
  155.4772  137.6957  188.1425 C   0  0  0  0  0  0  0  0  0  0  0  0
  155.1790  136.2486  187.9655 C   0  0  0  0  0  0  0  0  0  0  0  0
  154.8907  135.9252  186.4976 C   0  0  0  0  0  0  0  0  0  0  0  0
  153.9926  137.1054  186.0591 C   0  0  0  0  0  0  0  0  0  0  0  0
  156.2074  135.4212  188.4830 N   0  0  0  0  0  0  0  0  0  0  0  0
  156.5565  135.8233  189.8143 C   0  0  0  0  0  0  0  0  0  0  0  0
  157.1169  134.6431  190.5879 C   0  0  0  0  0  0  0  0  0  0  0  0
  158.0467  133.8898  189.6905 C   0  0  0  0  0  0  0  0  0  0  0  0
  158.8364  132.9200  190.2879 C   0  0  0  0  0  0  0  0  0  0  0  0
  159.7185  132.1889  189.5134 C   0  0  0  0  0  0  0  0  0  0  0  0
  159.8431  132.3866  188.1705 C   0  0  0  0  0  0  0  0  0  0  0  0
  159.0379  133.3665  187.5964 C   0  0  0  0  0  0  0  0  0  0  0  0
  158.1551  134.1034  188.3515 C   0  0  0  0  0  0  0  0  0  0  0  0
  157.3251  135.1349  187.6710 C   0  0  0  0  0  0  0  0  0  0  0  0
  157.7497  140.7166  183.1598 C   0  0  0  0  0  0  0  0  0  0  0  0
  156.9625  139.7534  183.7148 C   0  0  0  0  0  0  0  0  0  0  0  0
  155.5831  139.9037  183.9584 C   0  0  0  0  0  0  0  0  0  0  0  0
  155.0765  141.1181  183.5896 C   0  0  0  0  0  0  0  0  0  0  0  0
  155.8233  142.1505  183.0156 C   0  0  0  0  0  0  0  0  0  0  0  0
  157.1683  141.9133  182.8133 C   0  0  0  0  0  0  0  0  0  0  0  0
  160.0025  140.9070  183.9570 C   0  0  0  0  0  0  0  0  0  0  0  0
  159.0996  140.5409  182.9324 O   0  0  0  0  0  0  0  0  0  0  0  0
  155.2620  143.3666  182.6581 O   0  0  0  0  0  0  0  0  0  0  0  0
  153.8533  143.4790  182.7390 C   0  0  0  0  0  0  0  0  0  0  0  0
  157.9411  142.9214  182.2426 O   0  0  0  0  0  0  0  0  0  0  0  0
  158.0813  143.0683  180.8468 C   0  0  0  0  0  0  0  0  0  0  0  0
 25 26  1  0  0  0
 26 19  1  0  0  0
 19 20  2  0  0  0
 20 21  1  0  0  0
 21 22  2  0  0  0
 22 23  1  0  0  0
 23 27  1  0  0  0
 27 28  1  0  0  0
 23 24  2  0  0  0
 24 29  1  0  0  0
 29 30  1  0  0  0
 21  1  1  0  0  0
  1  2  2  0  0  0
  1  3  1  0  0  0
  3  4  1  0  0  0
  4  5  1  0  0  0
  5  6  1  0  0  0
  6  7  1  0  0  0
  7  8  1  0  0  0
  6  9  1  0  0  0
  9 10  1  0  0  0
 10 11  1  0  0  0
 11 12  1  0  0  0
 12 13  2  0  0  0
 13 14  1  0  0  0
 14 15  2  0  0  0
 15 16  1  0  0  0
 16 17  2  0  0  0
 17 18  1  0  0  0
 24 19  1  0  0  0
  8  3  1  0  0  0
 18  9  1  0  0  0
 17 12  1  0  0  0
M  END
> <minimizedAffinity>
-7.53549

> <CNNscore>
0.3989441395

> <CNNaffinity>
5.7310819626

> <CNN_VS>
2.2863814831

> <CNNaffinity_variance>
0.0824976563

$$$$
[H]c1c([H])c([H])c2c(c1[H])C([H])([H])N(C1([H])C([H])([H])C([H])([H])N(C(=O)c3c([H])c(OC([H])([H])[H])c(OC([H])([H])[H])c(OC([H])([H])[H])c3[H])C([H])([H])C1([H])[H])C([H])([H])C2([H])[H]


 30 33  0  0  0  0  0  0  0  0999 V2000
  155.3489  138.7784  185.2139 C   0  0  0  0  0  0  0  0  0  0  0  0
  156.4356  139.5082  185.1727 O   0  0  0  0  0  0  0  0  0  0  0  0
  155.2614  137.8520  186.2465 N   0  0  0  0  0  0  0  0  0  0  0  0
  154.2587  136.9011  186.5713 C   0  0  0  0  0  0  0  0  0  0  0  0
  154.7474  135.8597  187.5892 C   0  0  0  0  0  0  0  0  0  0  0  0
  155.3175  136.4624  188.8245 C   0  0  0  0  0  0  0  0  0  0  0  0
  155.7301  137.9164  188.5833 C   0  0  0  0  0  0  0  0  0  0  0  0
  156.4130  137.8510  187.1972 C   0  0  0  0  0  0  0  0  0  0  0  0
  154.4374  136.3535  189.9307 N   0  0  0  0  0  0  0  0  0  0  0  0
  155.1091  135.7675  191.0538 C   0  0  0  0  0  0  0  0  0  0  0  0
  154.4607  136.2243  192.3486 C   0  0  0  0  0  0  0  0  0  0  0  0
  152.9759  136.1851  192.1717 C   0  0  0  0  0  0  0  0  0  0  0  0
  152.2099  136.3391  193.3165 C   0  0  0  0  0  0  0  0  0  0  0  0
  150.8306  136.3109  193.2211 C   0  0  0  0  0  0  0  0  0  0  0  0
  150.1875  136.1358  192.0321 C   0  0  0  0  0  0  0  0  0  0  0  0
  150.9810  135.9839  190.8983 C   0  0  0  0  0  0  0  0  0  0  0  0
  152.3544  136.0091  190.9746 C   0  0  0  0  0  0  0  0  0  0  0  0
  153.1400  135.8404  189.7214 C   0  0  0  0  0  0  0  0  0  0  0  0
  153.5386  140.7528  182.5867 C   0  0  0  0  0  0  0  0  0  0  0  0
  154.3893  140.3813  183.5834 C   0  0  0  0  0  0  0  0  0  0  0  0
  154.4315  139.0903  184.1458 C   0  0  0  0  0  0  0  0  0  0  0  0
  153.5331  138.2130  183.6068 C   0  0  0  0  0  0  0  0  0  0  0  0
  152.6327  138.5242  182.5844 C   0  0  0  0  0  0  0  0  0  0  0  0
  152.6632  139.8143  182.0937 C   0  0  0  0  0  0  0  0  0  0  0  0
  154.1391  143.0650  182.7868 C   0  0  0  0  0  0  0  0  0  0  0  0
  153.5200  142.0261  182.0544 O   0  0  0  0  0  0  0  0  0  0  0  0
  151.7392  137.5972  182.0704 O   0  0  0  0  0  0  0  0  0  0  0  0
  150.5945  137.3000  182.8482 C   0  0  0  0  0  0  0  0  0  0  0  0
  151.7791  140.1572  181.0739 O   0  0  0  0  0  0  0  0  0  0  0  0
  151.9731  139.7519  179.7369 C   0  0  0  0  0  0  0  0  0  0  0  0
 25 26  1  0  0  0
 26 19  1  0  0  0
 19 20  2  0  0  0
 20 21  1  0  0  0
 21 22  2  0  0  0
 22 23  1  0  0  0
 23 27  1  0  0  0
 27 28  1  0  0  0
 23 24  2  0  0  0
 24 29  1  0  0  0
 29 30  1  0  0  0
 21  1  1  0  0  0
  1  2  2  0  0  0
  1  3  1  0  0  0
  3  4  1  0  0  0
  4  5  1  0  0  0
  5  6  1  0  0  0
  6  7  1  0  0  0
  7  8  1  0  0  0
  6  9  1  0  0  0
  9 10  1  0  0  0
 10 11  1  0  0  0
 11 12  1  0  0  0
 12 13  2  0  0  0
 13 14  1  0  0  0
 14 15  2  0  0  0
 15 16  1  0  0  0
 16 17  2  0  0  0
 17 18  1  0  0  0
 24 19  1  0  0  0
  8  3  1  0  0  0
 18  9  1  0  0  0
 17 12  1  0  0  0
M  END
> <minimizedAffinity>
-7.23757

> <CNNscore>
0.3841764033

> <CNNaffinity>
5.3361153603

> <CNN_VS>
2.0500094891

> <CNNaffinity_variance>
0.0751692802

$$$$
[H]c1c([H])c([H])c2c(c1[H])C([H])([H])N(C1([H])C([H])([H])C([H])([H])N(C(=O)c3c([H])c(OC([H])([H])[H])c(OC([H])([H])[H])c(OC([H])([H])[H])c3[H])C([H])([H])C1([H])[H])C([H])([H])C2([H])[H]


 30 33  0  0  0  0  0  0  0  0999 V2000
  153.5755  138.1703  183.9055 C   0  0  0  0  0  0  0  0  0  0  0  0
  154.3235  139.1752  183.5235 O   0  0  0  0  0  0  0  0  0  0  0  0
  153.8997  137.5817  185.1222 N   0  0  0  0  0  0  0  0  0  0  0  0
  153.3295  136.4806  185.8132 C   0  0  0  0  0  0  0  0  0  0  0  0
  154.2304  135.9720  186.9487 C   0  0  0  0  0  0  0  0  0  0  0  0
  154.6351  137.0379  187.9049 C   0  0  0  0  0  0  0  0  0  0  0  0
  154.4822  138.4244  187.2751 C   0  0  0  0  0  0  0  0  0  0  0  0
  155.0412  138.2138  185.8486 C   0  0  0  0  0  0  0  0  0  0  0  0
  153.9345  136.9505  189.1345 N   0  0  0  0  0  0  0  0  0  0  0  0
  154.8520  136.8989  190.2352 C   0  0  0  0  0  0  0  0  0  0  0  0
  154.1967  137.4492  191.4895 C   0  0  0  0  0  0  0  0  0  0  0  0
  152.7999  136.9189  191.5631 C   0  0  0  0  0  0  0  0  0  0  0  0
  152.1225  137.1174  192.7558 C   0  0  0  0  0  0  0  0  0  0  0  0
  150.8278  136.6498  192.8889 C   0  0  0  0  0  0  0  0  0  0  0  0
  150.1846  135.9940  191.8819 C   0  0  0  0  0  0  0  0  0  0  0  0
  150.8882  135.8084  190.6949 C   0  0  0  0  0  0  0  0  0  0  0  0
  152.1767  136.2667  190.5450 C   0  0  0  0  0  0  0  0  0  0  0  0
  152.8686  136.0333  189.2478 C   0  0  0  0  0  0  0  0  0  0  0  0
  150.9225  138.6728  181.3002 C   0  0  0  0  0  0  0  0  0  0  0  0
  151.9238  138.8839  182.1992 C   0  0  0  0  0  0  0  0  0  0  0  0
  152.5326  137.8646  182.9576 C   0  0  0  0  0  0  0  0  0  0  0  0
  152.0332  136.6145  182.7221 C   0  0  0  0  0  0  0  0  0  0  0  0
  151.0095  136.3246  181.8161 C   0  0  0  0  0  0  0  0  0  0  0  0
  150.4726  137.3868  181.1163 C   0  0  0  0  0  0  0  0  0  0  0  0
  151.0070  140.1354  179.4027 C   0  0  0  0  0  0  0  0  0  0  0  0
  150.3447  139.6918  180.5705 O   0  0  0  0  0  0  0  0  0  0  0  0
  150.5368  135.0374  181.6125 O   0  0  0  0  0  0  0  0  0  0  0  0
  151.2816  133.9761  182.1804 C   0  0  0  0  0  0  0  0  0  0  0  0
  149.4509  137.1321  180.2048 O   0  0  0  0  0  0  0  0  0  0  0  0
  148.0878  137.1797  180.5642 C   0  0  0  0  0  0  0  0  0  0  0  0
 25 26  1  0  0  0
 26 19  1  0  0  0
 19 20  2  0  0  0
 20 21  1  0  0  0
 21 22  2  0  0  0
 22 23  1  0  0  0
 23 27  1  0  0  0
 27 28  1  0  0  0
 23 24  2  0  0  0
 24 29  1  0  0  0
 29 30  1  0  0  0
 21  1  1  0  0  0
  1  2  2  0  0  0
  1  3  1  0  0  0
  3  4  1  0  0  0
  4  5  1  0  0  0
  5  6  1  0  0  0
  6  7  1  0  0  0
  7  8  1  0  0  0
  6  9  1  0  0  0
  9 10  1  0  0  0
 10 11  1  0  0  0
 11 12  1  0  0  0
 12 13  2  0  0  0
 13 14  1  0  0  0
 14 15  2  0  0  0
 15 16  1  0  0  0
 16 17  2  0  0  0
 17 18  1  0  0  0
 24 19  1  0  0  0
  8  3  1  0  0  0
 18  9  1  0  0  0
 17 12  1  0  0  0
M  END
> <minimizedAffinity>
-6.32507

> <CNNscore>
0.3646425009

> <CNNaffinity>
5.1876029968

> <CNN_VS>
1.8916205168

> <CNNaffinity_variance>
0.0658643022

$$$$
[H]c1c([H])c([H])c2c(c1[H])C([H])([H])N(C1([H])C([H])([H])C([H])([H])N(C(=O)c3c([H])c(OC([H])([H])[H])c(OC([H])([H])[H])c(OC([H])([H])[H])c3[H])C([H])([H])C1([H])[H])C([H])([H])C2([H])[H]


 30 33  0  0  0  0  0  0  0  0999 V2000
  155.4211  138.9122  184.5903 C   0  0  0  0  0  0  0  0  0  0  0  0
  154.5276  138.5842  183.6906 O   0  0  0  0  0  0  0  0  0  0  0  0
  155.2822  138.3301  185.8449 N   0  0  0  0  0  0  0  0  0  0  0  0
  156.0398  138.4772  187.0363 C   0  0  0  0  0  0  0  0  0  0  0  0
  155.3139  137.9095  188.2652 C   0  0  0  0  0  0  0  0  0  0  0  0
  154.8763  136.4977  188.0937 C   0  0  0  0  0  0  0  0  0  0  0  0
  154.8057  136.1234  186.6113 C   0  0  0  0  0  0  0  0  0  0  0  0
  154.1462  137.3699  185.9765 C   0  0  0  0  0  0  0  0  0  0  0  0
  155.6927  135.5909  188.8156 N   0  0  0  0  0  0  0  0  0  0  0  0
  155.3142  135.5623  190.1984 C   0  0  0  0  0  0  0  0  0  0  0  0
  155.6738  134.2209  190.8122 C   0  0  0  0  0  0  0  0  0  0  0  0
  157.0343  133.8304  190.3282 C   0  0  0  0  0  0  0  0  0  0  0  0
  157.6337  132.7538  190.9625 C   0  0  0  0  0  0  0  0  0  0  0  0
  158.8924  132.3433  190.5630 C   0  0  0  0  0  0  0  0  0  0  0  0
  159.5743  132.9629  189.5585 C   0  0  0  0  0  0  0  0  0  0  0  0
  158.9489  134.0412  188.9385 C   0  0  0  0  0  0  0  0  0  0  0  0
  157.6973  134.4633  189.3231 C   0  0  0  0  0  0  0  0  0  0  0  0
  157.0889  135.6232  188.6157 C   0  0  0  0  0  0  0  0  0  0  0  0
  158.4980  141.0541  184.4373 C   0  0  0  0  0  0  0  0  0  0  0  0
  157.5417  140.1726  184.8419 C   0  0  0  0  0  0  0  0  0  0  0  0
  156.4008  139.8418  184.0846 C   0  0  0  0  0  0  0  0  0  0  0  0
  156.3181  140.4864  182.8825 C   0  0  0  0  0  0  0  0  0  0  0  0
  157.2602  141.4009  182.4039 C   0  0  0  0  0  0  0  0  0  0  0  0
  158.3468  141.6633  183.2142 C   0  0  0  0  0  0  0  0  0  0  0  0
  159.4058  142.0176  186.4361 C   0  0  0  0  0  0  0  0  0  0  0  0
  159.6064  141.3587  185.2012 O   0  0  0  0  0  0  0  0  0  0  0  0
  157.1311  142.0297  181.1751 O   0  0  0  0  0  0  0  0  0  0  0  0
  157.8486  141.4786  180.0865 C   0  0  0  0  0  0  0  0  0  0  0  0
  159.3047  142.5696  182.7665 O   0  0  0  0  0  0  0  0  0  0  0  0
  159.1677  143.9625  182.9413 C   0  0  0  0  0  0  0  0  0  0  0  0
 25 26  1  0  0  0
 26 19  1  0  0  0
 19 20  2  0  0  0
 20 21  1  0  0  0
 21 22  2  0  0  0
 22 23  1  0  0  0
 23 27  1  0  0  0
 27 28  1  0  0  0
 23 24  2  0  0  0
 24 29  1  0  0  0
 29 30  1  0  0  0
 21  1  1  0  0  0
  1  2  2  0  0  0
  1  3  1  0  0  0
  3  4  1  0  0  0
  4  5  1  0  0  0
  5  6  1  0  0  0
  6  7  1  0  0  0
  7  8  1  0  0  0
  6  9  1  0  0  0
  9 10  1  0  0  0
 10 11  1  0  0  0
 11 12  1  0  0  0
 12 13  2  0  0  0
 13 14  1  0  0  0
 14 15  2  0  0  0
 15 16  1  0  0  0
 16 17  2  0  0  0
 17 18  1  0  0  0
 24 19  1  0  0  0
  8  3  1  0  0  0
 18  9  1  0  0  0
 17 12  1  0  0  0
M  END
> <minimizedAffinity>
-7.55693

> <CNNscore>
0.3515276909

> <CNNaffinity>
5.8482475281

> <CNN_VS>
2.0558209419

> <CNNaffinity_variance>
0.0952871516

$$$$
[H]c1c([H])c([H])c2c(c1[H])C([H])([H])N(C1([H])C([H])([H])C([H])([H])N(C(=O)c3c([H])c(OC([H])([H])[H])c(OC([H])([H])[H])c(OC([H])([H])[H])c3[H])C([H])([H])C1([H])[H])C([H])([H])C2([H])[H]


 30 33  0  0  0  0  0  0  0  0999 V2000
  153.5634  136.9443  184.3672 C   0  0  0  0  0  0  0  0  0  0  0  0
  154.3847  136.0518  183.8729 O   0  0  0  0  0  0  0  0  0  0  0  0
  152.6245  136.4847  185.2832 N   0  0  0  0  0  0  0  0  0  0  0  0
  151.5878  137.1575  185.9816 C   0  0  0  0  0  0  0  0  0  0  0  0
  150.5841  136.1847  186.6185 C   0  0  0  0  0  0  0  0  0  0  0  0
  151.2235  135.1611  187.4889 C   0  0  0  0  0  0  0  0  0  0  0  0
  152.7096  135.0108  187.1552 C   0  0  0  0  0  0  0  0  0  0  0  0
  152.7150  135.0301  185.6089 C   0  0  0  0  0  0  0  0  0  0  0  0
  151.0297  135.4313  188.8671 N   0  0  0  0  0  0  0  0  0  0  0  0
  149.6422  135.6615  189.1458 C   0  0  0  0  0  0  0  0  0  0  0  0
  149.3318  135.3061  190.5890 C   0  0  0  0  0  0  0  0  0  0  0  0
  150.4370  135.8282  191.4513 C   0  0  0  0  0  0  0  0  0  0  0  0
  150.2182  135.8105  192.8197 C   0  0  0  0  0  0  0  0  0  0  0  0
  151.2004  136.2809  193.6720 C   0  0  0  0  0  0  0  0  0  0  0  0
  152.3888  136.7666  193.2140 C   0  0  0  0  0  0  0  0  0  0  0  0
  152.5823  136.7726  191.8353 C   0  0  0  0  0  0  0  0  0  0  0  0
  151.6162  136.3088  190.9727 C   0  0  0  0  0  0  0  0  0  0  0  0
  151.8913  136.3449  189.5101 C   0  0  0  0  0  0  0  0  0  0  0  0
  153.1818  140.0249  182.2595 C   0  0  0  0  0  0  0  0  0  0  0  0
  153.0028  138.7934  182.8130 C   0  0  0  0  0  0  0  0  0  0  0  0
  153.8039  138.2671  183.8454 C   0  0  0  0  0  0  0  0  0  0  0  0
  154.8018  139.1020  184.2633 C   0  0  0  0  0  0  0  0  0  0  0  0
  155.0433  140.3760  183.7423 C   0  0  0  0  0  0  0  0  0  0  0  0
  154.2069  140.8092  182.7329 C   0  0  0  0  0  0  0  0  0  0  0  0
  152.0439  139.6475  180.1834 C   0  0  0  0  0  0  0  0  0  0  0  0
  152.3802  140.5148  181.2483 O   0  0  0  0  0  0  0  0  0  0  0  0
  156.0705  141.1863  184.2009 O   0  0  0  0  0  0  0  0  0  0  0  0
  157.3733  140.9174  183.7173 C   0  0  0  0  0  0  0  0  0  0  0  0
  154.4201  142.0746  182.1921 O   0  0  0  0  0  0  0  0  0  0  0  0
  153.8366  143.2377  182.7365 C   0  0  0  0  0  0  0  0  0  0  0  0
 25 26  1  0  0  0
 26 19  1  0  0  0
 19 20  2  0  0  0
 20 21  1  0  0  0
 21 22  2  0  0  0
 22 23  1  0  0  0
 23 27  1  0  0  0
 27 28  1  0  0  0
 23 24  2  0  0  0
 24 29  1  0  0  0
 29 30  1  0  0  0
 21  1  1  0  0  0
  1  2  2  0  0  0
  1  3  1  0  0  0
  3  4  1  0  0  0
  4  5  1  0  0  0
  5  6  1  0  0  0
  6  7  1  0  0  0
  7  8  1  0  0  0
  6  9  1  0  0  0
  9 10  1  0  0  0
 10 11  1  0  0  0
 11 12  1  0  0  0
 12 13  2  0  0  0
 13 14  1  0  0  0
 14 15  2  0  0  0
 15 16  1  0  0  0
 16 17  2  0  0  0
 17 18  1  0  0  0
 24 19  1  0  0  0
  8  3  1  0  0  0
 18  9  1  0  0  0
 17 12  1  0  0  0
M  END
> <minimizedAffinity>
-6.91619

> <CNNscore>
0.2985711098

> <CNNaffinity>
5.2209863663

> <CNN_VS>
1.5588357449

> <CNNaffinity_variance>
0.1025691405

$$$$
[H]c1c([H])c([H])c2c(c1[H])C([H])([H])N(C1([H])C([H])([H])C([H])([H])N(C(=O)c3c([H])c(OC([H])([H])[H])c(OC([H])([H])[H])c(OC([H])([H])[H])c3[H])C([H])([H])C1([H])[H])C([H])([H])C2([H])[H]


 30 33  0  0  0  0  0  0  0  0999 V2000
  154.6533  141.8006  182.3245 C   0  0  0  0  0  0  0  0  0  0  0  0
  153.9173  142.8792  182.2228 O   0  0  0  0  0  0  0  0  0  0  0  0
  156.0288  141.9756  182.2279 N   0  0  0  0  0  0  0  0  0  0  0  0
  157.0982  141.0430  182.2678 C   0  0  0  0  0  0  0  0  0  0  0  0
  158.4209  141.6478  181.7737 C   0  0  0  0  0  0  0  0  0  0  0  0
  158.7955  142.9047  182.4767 C   0  0  0  0  0  0  0  0  0  0  0  0
  157.5745  143.5432  183.1431 C   0  0  0  0  0  0  0  0  0  0  0  0
  156.4783  143.3901  182.0630 C   0  0  0  0  0  0  0  0  0  0  0  0
  159.8459  142.7065  183.4081 N   0  0  0  0  0  0  0  0  0  0  0  0
  160.6573  141.5888  183.0231 C   0  0  0  0  0  0  0  0  0  0  0  0
  162.0656  141.7520  183.5665 C   0  0  0  0  0  0  0  0  0  0  0  0
  161.9730  142.2493  184.9743 C   0  0  0  0  0  0  0  0  0  0  0  0
  163.1434  142.2340  185.7165 C   0  0  0  0  0  0  0  0  0  0  0  0
  163.1248  142.6795  187.0256 C   0  0  0  0  0  0  0  0  0  0  0  0
  161.9879  143.1383  187.6213 C   0  0  0  0  0  0  0  0  0  0  0  0
  160.8268  143.1429  186.8529 C   0  0  0  0  0  0  0  0  0  0  0  0
  160.8269  142.7033  185.5493 C   0  0  0  0  0  0  0  0  0  0  0  0
  159.5488  142.7368  184.7870 C   0  0  0  0  0  0  0  0  0  0  0  0
  152.0014  139.2005  181.7900 C   0  0  0  0  0  0  0  0  0  0  0  0
  152.7988  140.2966  181.6554 C   0  0  0  0  0  0  0  0  0  0  0  0
  153.8652  140.6090  182.5214 C   0  0  0  0  0  0  0  0  0  0  0  0
  154.0476  139.7107  183.5348 C   0  0  0  0  0  0  0  0  0  0  0  0
  153.2699  138.5667  183.7334 C   0  0  0  0  0  0  0  0  0  0  0  0
  152.2467  138.3407  182.8344 C   0  0  0  0  0  0  0  0  0  0  0  0
  150.9562  139.5542  179.6618 C   0  0  0  0  0  0  0  0  0  0  0  0
  150.9632  138.9195  180.9252 O   0  0  0  0  0  0  0  0  0  0  0  0
  153.4954  137.6844  184.7787 O   0  0  0  0  0  0  0  0  0  0  0  0
  154.3971  138.0944  185.7898 C   0  0  0  0  0  0  0  0  0  0  0  0
  151.4530  137.2091  183.0035 O   0  0  0  0  0  0  0  0  0  0  0  0
  150.2570  137.2291  183.7509 C   0  0  0  0  0  0  0  0  0  0  0  0
 25 26  1  0  0  0
 26 19  1  0  0  0
 19 20  2  0  0  0
 20 21  1  0  0  0
 21 22  2  0  0  0
 22 23  1  0  0  0
 23 27  1  0  0  0
 27 28  1  0  0  0
 23 24  2  0  0  0
 24 29  1  0  0  0
 29 30  1  0  0  0
 21  1  1  0  0  0
  1  2  2  0  0  0
  1  3  1  0  0  0
  3  4  1  0  0  0
  4  5  1  0  0  0
  5  6  1  0  0  0
  6  7  1  0  0  0
  7  8  1  0  0  0
  6  9  1  0  0  0
  9 10  1  0  0  0
 10 11  1  0  0  0
 11 12  1  0  0  0
 12 13  2  0  0  0
 13 14  1  0  0  0
 14 15  2  0  0  0
 15 16  1  0  0  0
 16 17  2  0  0  0
 17 18  1  0  0  0
 24 19  1  0  0  0
  8  3  1  0  0  0
 18  9  1  0  0  0
 17 12  1  0  0  0
M  END
> <minimizedAffinity>
-8.99899

> <CNNscore>
0.2830216289

> <CNNaffinity>
6.5200386047

> <CNN_VS>
1.8453119993

> <CNNaffinity_variance>
0.1427484751

$$$$
[H]c1c([H])c([H])c2c(c1[H])C([H])([H])N(C1([H])C([H])([H])C([H])([H])N(C(=O)c3c([H])c(OC([H])([H])[H])c(OC([H])([H])[H])c(OC([H])([H])[H])c3[H])C([H])([H])C1([H])[H])C([H])([H])C2([H])[H]


 30 33  0  0  0  0  0  0  0  0999 V2000
  156.0780  139.1086  185.1118 C   0  0  0  0  0  0  0  0  0  0  0  0
  156.4878  138.8883  186.3361 O   0  0  0  0  0  0  0  0  0  0  0  0
  154.9847  138.3671  184.6797 N   0  0  0  0  0  0  0  0  0  0  0  0
  154.3080  138.3333  183.4322 C   0  0  0  0  0  0  0  0  0  0  0  0
  153.3807  137.1157  183.3022 C   0  0  0  0  0  0  0  0  0  0  0  0
  152.4142  136.9858  184.4261 C   0  0  0  0  0  0  0  0  0  0  0  0
  152.8895  137.7726  185.6498 C   0  0  0  0  0  0  0  0  0  0  0  0
  154.4002  137.4454  185.6990 C   0  0  0  0  0  0  0  0  0  0  0  0
  151.0999  137.3621  184.0504 N   0  0  0  0  0  0  0  0  0  0  0  0
  150.1328  136.5043  184.6707 C   0  0  0  0  0  0  0  0  0  0  0  0
  148.8105  137.2336  184.8284 C   0  0  0  0  0  0  0  0  0  0  0  0
  148.5398  137.9965  183.5704 C   0  0  0  0  0  0  0  0  0  0  0  0
  147.2698  138.5336  183.4310 C   0  0  0  0  0  0  0  0  0  0  0  0
  146.9552  139.2490  182.2901 C   0  0  0  0  0  0  0  0  0  0  0  0
  147.8551  139.4491  181.2861 C   0  0  0  0  0  0  0  0  0  0  0  0
  149.1232  138.8989  181.4522 C   0  0  0  0  0  0  0  0  0  0  0  0
  149.4535  138.1842  182.5804 C   0  0  0  0  0  0  0  0  0  0  0  0
  150.8285  137.6245  182.6910 C   0  0  0  0  0  0  0  0  0  0  0  0
  158.6916  141.7374  184.5313 C   0  0  0  0  0  0  0  0  0  0  0  0
  157.9164  140.7726  185.1001 C   0  0  0  0  0  0  0  0  0  0  0  0
  156.8681  140.1071  184.4347 C   0  0  0  0  0  0  0  0  0  0  0  0
  156.6775  140.5098  183.1428 C   0  0  0  0  0  0  0  0  0  0  0  0
  157.4333  141.4911  182.4958 C   0  0  0  0  0  0  0  0  0  0  0  0
  158.4408  142.0891  183.2262 C   0  0  0  0  0  0  0  0  0  0  0  0
  159.7483  142.2645  186.6177 C   0  0  0  0  0  0  0  0  0  0  0  0
  159.7130  142.3725  185.2083 O   0  0  0  0  0  0  0  0  0  0  0  0
  157.2005  141.8651  181.1813 O   0  0  0  0  0  0  0  0  0  0  0  0
  158.0772  141.3507  180.1962 C   0  0  0  0  0  0  0  0  0  0  0  0
  159.2132  143.0709  182.6107 O   0  0  0  0  0  0  0  0  0  0  0  0
  158.8055  144.4193  182.5390 C   0  0  0  0  0  0  0  0  0  0  0  0
 25 26  1  0  0  0
 26 19  1  0  0  0
 19 20  2  0  0  0
 20 21  1  0  0  0
 21 22  2  0  0  0
 22 23  1  0  0  0
 23 27  1  0  0  0
 27 28  1  0  0  0
 23 24  2  0  0  0
 24 29  1  0  0  0
 29 30  1  0  0  0
 21  1  1  0  0  0
  1  2  2  0  0  0
  1  3  1  0  0  0
  3  4  1  0  0  0
  4  5  1  0  0  0
  5  6  1  0  0  0
  6  7  1  0  0  0
  7  8  1  0  0  0
  6  9  1  0  0  0
  9 10  1  0  0  0
 10 11  1  0  0  0
 11 12  1  0  0  0
 12 13  2  0  0  0
 13 14  1  0  0  0
 14 15  2  0  0  0
 15 16  1  0  0  0
 16 17  2  0  0  0
 17 18  1  0  0  0
 24 19  1  0  0  0
  8  3  1  0  0  0
 18  9  1  0  0  0
 17 12  1  0  0  0
M  END
> <minimizedAffinity>
-7.06867

> <CNNscore>
0.2693879008

> <CNNaffinity>
5.8039417267

> <CNN_VS>
1.5635117292

> <CNNaffinity_variance>
0.1487692893

$$$$
[H]c1nc2c(N3C([H])([H])C([H])([H])OC([H])([H])C3([H])[H])c([H])c(-c3c([H])c(N([H])C(=O)c4c([H])c([H])c([H])c(C(F)(F)F)c4[H])c([H])c([H])c3C([H])([H])[H])c([H])n2c1[H]


 36 40  0  0  0  0  0  0  0  0999 V2000
  154.0518  140.3913  182.5165 C   0  0  0  0  0  0  0  0  0  0  0  0
  154.4500  139.5390  183.6757 C   0  0  0  0  0  0  0  0  0  0  0  0
  153.4648  138.6965  184.1939 C   0  0  0  0  0  0  0  0  0  0  0  0
  153.6877  137.9628  185.3170 C   0  0  0  0  0  0  0  0  0  0  0  0
  154.9177  138.0784  185.9322 C   0  0  0  0  0  0  0  0  0  0  0  0
  155.9185  138.9147  185.4142 C   0  0  0  0  0  0  0  0  0  0  0  0
  155.6815  139.6619  184.2631 C   0  0  0  0  0  0  0  0  0  0  0  0
  156.6917  140.5962  183.7214 C   0  0  0  0  0  0  0  0  0  0  0  0
  157.5988  141.2342  184.5152 C   0  0  0  0  0  0  0  0  0  0  0  0
  158.6111  142.0336  183.9526 C   0  0  0  0  0  0  0  0  0  0  0  0
  158.6893  142.1875  182.5920 C   0  0  0  0  0  0  0  0  0  0  0  0
  159.5255  142.8789  181.7635 N   0  0  0  0  0  0  0  0  0  0  0  0
  159.1769  142.7091  180.4744 C   0  0  0  0  0  0  0  0  0  0  0  0
  158.0680  141.8654  180.5303 C   0  0  0  0  0  0  0  0  0  0  0  0
  157.7854  141.5634  181.8119 N   0  0  0  0  0  0  0  0  0  0  0  0
  156.8037  140.7798  182.3582 C   0  0  0  0  0  0  0  0  0  0  0  0
  159.5391  142.5968  184.8378 N   0  0  0  0  0  0  0  0  0  0  0  0
  159.4666  142.2575  186.2741 C   0  0  0  0  0  0  0  0  0  0  0  0
  160.7176  142.7734  186.9248 C   0  0  0  0  0  0  0  0  0  0  0  0
  161.8781  142.4518  186.2719 O   0  0  0  0  0  0  0  0  0  0  0  0
  161.8934  142.7006  184.9232 C   0  0  0  0  0  0  0  0  0  0  0  0
  160.6262  143.5019  184.5498 C   0  0  0  0  0  0  0  0  0  0  0  0
  155.0932  137.4836  187.2020 N   0  0  0  0  0  0  0  0  0  0  0  0
  154.5105  137.9152  188.4268 C   0  0  0  0  0  0  0  0  0  0  0  0
  153.6769  138.8740  188.4774 O   0  0  0  0  0  0  0  0  0  0  0  0
  155.7301  136.6242  187.2153 H   0  0  0  0  0  0  0  0  0  0  0  0
  154.9090  137.2524  189.6673 C   0  0  0  0  0  0  0  0  0  0  0  0
  156.1436  136.8894  190.0440 C   0  0  0  0  0  0  0  0  0  0  0  0
  156.3836  136.3036  191.2867 C   0  0  0  0  0  0  0  0  0  0  0  0
  155.3215  136.0954  192.1359 C   0  0  0  0  0  0  0  0  0  0  0  0
  154.0529  136.4547  191.7743 C   0  0  0  0  0  0  0  0  0  0  0  0
  153.8386  137.0362  190.5373 C   0  0  0  0  0  0  0  0  0  0  0  0
  152.8815  136.2464  192.6725 C   0  0  0  0  0  0  0  0  0  0  0  0
  151.7856  135.9133  191.9330 F   0  0  0  0  0  0  0  0  0  0  0  0
  153.1842  135.3053  193.6189 F   0  0  0  0  0  0  0  0  0  0  0  0
  152.5954  137.4540  193.3161 F   0  0  0  0  0  0  0  0  0  0  0  0
  1  2  1  0  0  0
  2  3  2  0  0  0
  3  4  1  0  0  0
  4  5  2  0  0  0
  5 23  1  0  0  0
 23 24  1  0  0  0
 24 25  2  0  0  0
 24 27  1  0  0  0
 27 28  2  0  0  0
 28 29  1  0  0  0
 29 30  2  0  0  0
 30 31  1  0  0  0
 31 32  2  0  0  0
 31 33  1  0  0  0
 33 34  1  0  0  0
 33 35  1  0  0  0
 33 36  1  0  0  0
  5  6  1  0  0  0
  6  7  2  0  0  0
  7  8  1  0  0  0
  8  9  1  0  0  0
  9 10  2  0  0  0
 10 17  1  0  0  0
 17 18  1  0  0  0
 18 19  1  0  0  0
 19 20  1  0  0  0
 20 21  1  0  0  0
 21 22  1  0  0  0
 10 11  1  0  0  0
 11 12  2  0  0  0
 12 13  1  0  0  0
 13 14  2  0  0  0
 14 15  1  0  0  0
 15 16  1  0  0  0
  7  2  1  0  0  0
 16  8  2  0  0  0
 32 27  1  0  0  0
 22 17  1  0  0  0
 15 11  1  0  0  0
 23 26  1  0  0  0
M  END
> <minimizedAffinity>
-10.54168

> <CNNscore>
0.4960550070

> <CNNaffinity>
6.6619071960

> <CNN_VS>
3.3046724796

> <CNNaffinity_variance>
0.0786406100

$$$$
[H]c1nc2c(N3C([H])([H])C([H])([H])OC([H])([H])C3([H])[H])c([H])c(-c3c([H])c(N([H])C(=O)c4c([H])c([H])c([H])c(C(F)(F)F)c4[H])c([H])c([H])c3C([H])([H])[H])c([H])n2c1[H]


 36 40  0  0  0  0  0  0  0  0999 V2000
  152.9319  136.6567  186.0628 C   0  0  0  0  0  0  0  0  0  0  0  0
  153.8195  137.7060  185.4799 C   0  0  0  0  0  0  0  0  0  0  0  0
  153.4069  138.2653  184.2691 C   0  0  0  0  0  0  0  0  0  0  0  0
  154.1958  139.1460  183.5973 C   0  0  0  0  0  0  0  0  0  0  0  0
  155.4199  139.4686  184.1472 C   0  0  0  0  0  0  0  0  0  0  0  0
  155.8401  138.9198  185.3685 C   0  0  0  0  0  0  0  0  0  0  0  0
  155.0253  138.0192  186.0499 C   0  0  0  0  0  0  0  0  0  0  0  0
  155.4594  137.3778  187.3097 C   0  0  0  0  0  0  0  0  0  0  0  0
  156.2042  136.2355  187.3307 C   0  0  0  0  0  0  0  0  0  0  0  0
  156.6871  135.7135  188.5450 C   0  0  0  0  0  0  0  0  0  0  0  0
  156.4029  136.3474  189.7276 C   0  0  0  0  0  0  0  0  0  0  0  0
  156.7108  136.0977  191.0339 N   0  0  0  0  0  0  0  0  0  0  0  0
  156.1818  137.0352  191.8423 C   0  0  0  0  0  0  0  0  0  0  0  0
  155.5188  137.8999  190.9720 C   0  0  0  0  0  0  0  0  0  0  0  0
  155.6586  137.4702  189.7034 N   0  0  0  0  0  0  0  0  0  0  0  0
  155.1937  137.9828  188.5214 C   0  0  0  0  0  0  0  0  0  0  0  0
  157.4990  134.5748  188.4667 N   0  0  0  0  0  0  0  0  0  0  0  0
  158.8233  134.6740  187.8189 C   0  0  0  0  0  0  0  0  0  0  0  0
  159.5682  133.4042  188.1146 C   0  0  0  0  0  0  0  0  0  0  0  0
  159.5510  133.0224  189.4300 O   0  0  0  0  0  0  0  0  0  0  0  0
  158.3197  133.0158  190.0341 C   0  0  0  0  0  0  0  0  0  0  0  0
  157.2351  133.2431  188.9574 C   0  0  0  0  0  0  0  0  0  0  0  0
  156.3301  140.2187  183.3689 N   0  0  0  0  0  0  0  0  0  0  0  0
  156.0020  141.2321  182.4248 C   0  0  0  0  0  0  0  0  0  0  0  0
  154.8068  141.6270  182.2456 O   0  0  0  0  0  0  0  0  0  0  0  0
  157.3618  139.9830  183.5261 H   0  0  0  0  0  0  0  0  0  0  0  0
  157.0722  141.8128  181.6158 C   0  0  0  0  0  0  0  0  0  0  0  0
  157.5923  141.3336  180.4765 C   0  0  0  0  0  0  0  0  0  0  0  0
  158.5849  142.0240  179.7816 C   0  0  0  0  0  0  0  0  0  0  0  0
  159.0354  143.2215  180.2876 C   0  0  0  0  0  0  0  0  0  0  0  0
  158.5228  143.7302  181.4484 C   0  0  0  0  0  0  0  0  0  0  0  0
  157.5372  143.0289  182.1199 C   0  0  0  0  0  0  0  0  0  0  0  0
  158.9863  145.0262  182.0209 C   0  0  0  0  0  0  0  0  0  0  0  0
  157.9225  145.7175  182.5203 F   0  0  0  0  0  0  0  0  0  0  0  0
  159.9546  144.7983  182.9608 F   0  0  0  0  0  0  0  0  0  0  0  0
  159.5336  145.7962  180.9904 F   0  0  0  0  0  0  0  0  0  0  0  0
  1  2  1  0  0  0
  2  3  2  0  0  0
  3  4  1  0  0  0
  4  5  2  0  0  0
  5 23  1  0  0  0
 23 24  1  0  0  0
 24 25  2  0  0  0
 24 27  1  0  0  0
 27 28  2  0  0  0
 28 29  1  0  0  0
 29 30  2  0  0  0
 30 31  1  0  0  0
 31 32  2  0  0  0
 31 33  1  0  0  0
 33 34  1  0  0  0
 33 35  1  0  0  0
 33 36  1  0  0  0
  5  6  1  0  0  0
  6  7  2  0  0  0
  7  8  1  0  0  0
  8  9  1  0  0  0
  9 10  2  0  0  0
 10 17  1  0  0  0
 17 18  1  0  0  0
 18 19  1  0  0  0
 19 20  1  0  0  0
 20 21  1  0  0  0
 21 22  1  0  0  0
 10 11  1  0  0  0
 11 12  2  0  0  0
 12 13  1  0  0  0
 13 14  2  0  0  0
 14 15  1  0  0  0
 15 16  1  0  0  0
  7  2  1  0  0  0
 16  8  2  0  0  0
 32 27  1  0  0  0
 22 17  1  0  0  0
 15 11  1  0  0  0
 23 26  1  0  0  0
M  END
> <minimizedAffinity>
-9.59078

> <CNNscore>
0.4504854679

> <CNNaffinity>
6.4268898964

> <CNN_VS>
2.8952205181

> <CNNaffinity_variance>
0.0305002034

$$$$
[H]c1nc2c(N3C([H])([H])C([H])([H])OC([H])([H])C3([H])[H])c([H])c(-c3c([H])c(N([H])C(=O)c4c([H])c([H])c([H])c(C(F)(F)F)c4[H])c([H])c([H])c3C([H])([H])[H])c([H])n2c1[H]


 36 40  0  0  0  0  0  0  0  0999 V2000
  154.0636  140.4725  183.3990 C   0  0  0  0  0  0  0  0  0  0  0  0
  154.6023  139.5015  184.3967 C   0  0  0  0  0  0  0  0  0  0  0  0
  153.6682  138.6791  185.0293 C   0  0  0  0  0  0  0  0  0  0  0  0
  154.0375  137.8396  186.0334 C   0  0  0  0  0  0  0  0  0  0  0  0
  155.3649  137.8271  186.4114 C   0  0  0  0  0  0  0  0  0  0  0  0
  156.3138  138.6423  185.7756 C   0  0  0  0  0  0  0  0  0  0  0  0
  155.9266  139.4985  184.7477 C   0  0  0  0  0  0  0  0  0  0  0  0
  156.8878  140.4126  184.0941 C   0  0  0  0  0  0  0  0  0  0  0  0
  157.8252  141.1124  184.7953 C   0  0  0  0  0  0  0  0  0  0  0  0
  158.7899  141.8906  184.1289 C   0  0  0  0  0  0  0  0  0  0  0  0
  158.7902  141.9609  182.7592 C   0  0  0  0  0  0  0  0  0  0  0  0
  159.5665  142.6122  181.8444 N   0  0  0  0  0  0  0  0  0  0  0  0
  159.1507  142.3574  180.5897 C   0  0  0  0  0  0  0  0  0  0  0  0
  158.0625  141.5019  180.7591 C   0  0  0  0  0  0  0  0  0  0  0  0
  157.8565  141.2758  182.0707 N   0  0  0  0  0  0  0  0  0  0  0  0
  156.9212  140.5129  182.7180 C   0  0  0  0  0  0  0  0  0  0  0  0
  159.7545  142.5217  184.9246 N   0  0  0  0  0  0  0  0  0  0  0  0
  159.6605  142.4163  186.3954 C   0  0  0  0  0  0  0  0  0  0  0  0
  160.9440  142.9427  186.9700 C   0  0  0  0  0  0  0  0  0  0  0  0
  162.0796  142.4464  186.3863 O   0  0  0  0  0  0  0  0  0  0  0  0
  162.1105  142.4801  185.0156 C   0  0  0  0  0  0  0  0  0  0  0  0
  160.9000  143.2962  184.5097 C   0  0  0  0  0  0  0  0  0  0  0  0
  155.7251  137.1161  187.5783 N   0  0  0  0  0  0  0  0  0  0  0  0
  155.5389  137.5454  188.9225 C   0  0  0  0  0  0  0  0  0  0  0  0
  154.9309  138.6247  189.2090 O   0  0  0  0  0  0  0  0  0  0  0  0
  156.1790  136.1628  187.4057 H   0  0  0  0  0  0  0  0  0  0  0  0
  156.0926  136.7321  190.0037 C   0  0  0  0  0  0  0  0  0  0  0  0
  155.9343  136.9042  191.3241 C   0  0  0  0  0  0  0  0  0  0  0  0
  156.4861  136.0151  192.2461 C   0  0  0  0  0  0  0  0  0  0  0  0
  157.2099  134.9425  191.7790 C   0  0  0  0  0  0  0  0  0  0  0  0
  157.3875  134.7462  190.4377 C   0  0  0  0  0  0  0  0  0  0  0  0
  156.8292  135.6400  189.5412 C   0  0  0  0  0  0  0  0  0  0  0  0
  158.1627  133.5924  189.8993 C   0  0  0  0  0  0  0  0  0  0  0  0
  158.5897  132.8033  190.9258 F   0  0  0  0  0  0  0  0  0  0  0  0
  157.4037  132.9078  188.9892 F   0  0  0  0  0  0  0  0  0  0  0  0
  159.3011  134.0848  189.2542 F   0  0  0  0  0  0  0  0  0  0  0  0
  1  2  1  0  0  0
  2  3  2  0  0  0
  3  4  1  0  0  0
  4  5  2  0  0  0
  5 23  1  0  0  0
 23 24  1  0  0  0
 24 25  2  0  0  0
 24 27  1  0  0  0
 27 28  2  0  0  0
 28 29  1  0  0  0
 29 30  2  0  0  0
 30 31  1  0  0  0
 31 32  2  0  0  0
 31 33  1  0  0  0
 33 34  1  0  0  0
 33 35  1  0  0  0
 33 36  1  0  0  0
  5  6  1  0  0  0
  6  7  2  0  0  0
  7  8  1  0  0  0
  8  9  1  0  0  0
  9 10  2  0  0  0
 10 17  1  0  0  0
 17 18  1  0  0  0
 18 19  1  0  0  0
 19 20  1  0  0  0
 20 21  1  0  0  0
 21 22  1  0  0  0
 10 11  1  0  0  0
 11 12  2  0  0  0
 12 13  1  0  0  0
 13 14  2  0  0  0
 14 15  1  0  0  0
 15 16  1  0  0  0
  7  2  1  0  0  0
 16  8  2  0  0  0
 32 27  1  0  0  0
 22 17  1  0  0  0
 15 11  1  0  0  0
 23 26  1  0  0  0
M  END
> <minimizedAffinity>
-10.37246

> <CNNscore>
0.4237896800

> <CNNaffinity>
6.7987565994

> <CNN_VS>
2.8812429905

> <CNNaffinity_variance>
0.0482139960

$$$$
[H]c1nc2c(N3C([H])([H])C([H])([H])OC([H])([H])C3([H])[H])c([H])c(-c3c([H])c(N([H])C(=O)c4c([H])c([H])c([H])c(C(F)(F)F)c4[H])c([H])c([H])c3C([H])([H])[H])c([H])n2c1[H]


 36 40  0  0  0  0  0  0  0  0999 V2000
  153.5703  139.7245  182.4040 C   0  0  0  0  0  0  0  0  0  0  0  0
  153.8868  138.9562  183.6441 C   0  0  0  0  0  0  0  0  0  0  0  0
  153.0375  137.8904  183.9477 C   0  0  0  0  0  0  0  0  0  0  0  0
  153.1686  137.1970  185.1102 C   0  0  0  0  0  0  0  0  0  0  0  0
  154.1656  137.5808  185.9839 C   0  0  0  0  0  0  0  0  0  0  0  0
  155.0310  138.6441  185.6843 C   0  0  0  0  0  0  0  0  0  0  0  0
  154.8898  139.3482  184.4910 C   0  0  0  0  0  0  0  0  0  0  0  0
  155.7463  140.5096  184.1680 C   0  0  0  0  0  0  0  0  0  0  0  0
  157.0506  140.5884  184.5587 C   0  0  0  0  0  0  0  0  0  0  0  0
  157.8629  141.6596  184.1431 C   0  0  0  0  0  0  0  0  0  0  0  0
  157.3443  142.6463  183.3440 C   0  0  0  0  0  0  0  0  0  0  0  0
  157.8563  143.7852  182.7921 N   0  0  0  0  0  0  0  0  0  0  0  0
  156.9224  144.4352  182.0729 C   0  0  0  0  0  0  0  0  0  0  0  0
  155.7832  143.6407  182.1975 C   0  0  0  0  0  0  0  0  0  0  0  0
  156.0527  142.5698  182.9682 N   0  0  0  0  0  0  0  0  0  0  0  0
  155.2630  141.5241  183.3668 C   0  0  0  0  0  0  0  0  0  0  0  0
  159.2068  141.6253  184.5363 N   0  0  0  0  0  0  0  0  0  0  0  0
  160.2469  141.3228  183.5313 C   0  0  0  0  0  0  0  0  0  0  0  0
  161.5800  141.6161  184.1570 C   0  0  0  0  0  0  0  0  0  0  0  0
  161.6634  142.8300  184.7863 O   0  0  0  0  0  0  0  0  0  0  0  0
  160.6433  143.1241  185.6547 C   0  0  0  0  0  0  0  0  0  0  0  0
  159.7706  141.8631  185.8438 C   0  0  0  0  0  0  0  0  0  0  0  0
  154.1859  137.0068  187.2751 N   0  0  0  0  0  0  0  0  0  0  0  0
  153.9131  137.6739  188.5025 C   0  0  0  0  0  0  0  0  0  0  0  0
  153.5315  138.8861  188.5422 O   0  0  0  0  0  0  0  0  0  0  0  0
  154.4314  135.9659  187.3041 H   0  0  0  0  0  0  0  0  0  0  0  0
  154.1088  136.9480  189.7562 C   0  0  0  0  0  0  0  0  0  0  0  0
  155.1020  136.1031  190.0691 C   0  0  0  0  0  0  0  0  0  0  0  0
  155.1879  135.5148  191.3306 C   0  0  0  0  0  0  0  0  0  0  0  0
  154.2244  135.8129  192.2663 C   0  0  0  0  0  0  0  0  0  0  0  0
  153.2005  136.6695  191.9711 C   0  0  0  0  0  0  0  0  0  0  0  0
  153.1366  137.2430  190.7137 C   0  0  0  0  0  0  0  0  0  0  0  0
  152.1434  137.0160  192.9634 C   0  0  0  0  0  0  0  0  0  0  0  0
  150.9291  137.0680  192.3457 F   0  0  0  0  0  0  0  0  0  0  0  0
  152.1693  136.1227  193.9999 F   0  0  0  0  0  0  0  0  0  0  0  0
  152.4077  138.2937  193.4655 F   0  0  0  0  0  0  0  0  0  0  0  0
  1  2  1  0  0  0
  2  3  2  0  0  0
  3  4  1  0  0  0
  4  5  2  0  0  0
  5 23  1  0  0  0
 23 24  1  0  0  0
 24 25  2  0  0  0
 24 27  1  0  0  0
 27 28  2  0  0  0
 28 29  1  0  0  0
 29 30  2  0  0  0
 30 31  1  0  0  0
 31 32  2  0  0  0
 31 33  1  0  0  0
 33 34  1  0  0  0
 33 35  1  0  0  0
 33 36  1  0  0  0
  5  6  1  0  0  0
  6  7  2  0  0  0
  7  8  1  0  0  0
  8  9  1  0  0  0
  9 10  2  0  0  0
 10 17  1  0  0  0
 17 18  1  0  0  0
 18 19  1  0  0  0
 19 20  1  0  0  0
 20 21  1  0  0  0
 21 22  1  0  0  0
 10 11  1  0  0  0
 11 12  2  0  0  0
 12 13  1  0  0  0
 13 14  2  0  0  0
 14 15  1  0  0  0
 15 16  1  0  0  0
  7  2  1  0  0  0
 16  8  2  0  0  0
 32 27  1  0  0  0
 22 17  1  0  0  0
 15 11  1  0  0  0
 23 26  1  0  0  0
M  END
> <minimizedAffinity>
-9.98719

> <CNNscore>
0.4161698520

> <CNNaffinity>
6.4881219864

> <CNN_VS>
2.7001607418

> <CNNaffinity_variance>
0.0622879490

$$$$
[H]c1nc2c(N3C([H])([H])C([H])([H])OC([H])([H])C3([H])[H])c([H])c(-c3c([H])c(N([H])C(=O)c4c([H])c([H])c([H])c(C(F)(F)F)c4[H])c([H])c([H])c3C([H])([H])[H])c([H])n2c1[H]


 36 40  0  0  0  0  0  0  0  0999 V2000
  153.1456  135.2463  185.7067 C   0  0  0  0  0  0  0  0  0  0  0  0
  153.4412  136.6477  185.2859 C   0  0  0  0  0  0  0  0  0  0  0  0
  152.8596  137.0723  184.0897 C   0  0  0  0  0  0  0  0  0  0  0  0
  153.1535  138.2893  183.5590 C   0  0  0  0  0  0  0  0  0  0  0  0
  154.0478  139.0924  184.2373 C   0  0  0  0  0  0  0  0  0  0  0  0
  154.6305  138.6796  185.4453 C   0  0  0  0  0  0  0  0  0  0  0  0
  154.3231  137.4317  185.9818 C   0  0  0  0  0  0  0  0  0  0  0  0
  154.9612  136.9405  187.2222 C   0  0  0  0  0  0  0  0  0  0  0  0
  155.8270  135.8868  187.2322 C   0  0  0  0  0  0  0  0  0  0  0  0
  156.4947  135.5153  188.4138 C   0  0  0  0  0  0  0  0  0  0  0  0
  156.2720  136.2078  189.5765 C   0  0  0  0  0  0  0  0  0  0  0  0
  156.7466  136.0956  190.8516 N   0  0  0  0  0  0  0  0  0  0  0  0
  156.2073  137.0341  191.6518 C   0  0  0  0  0  0  0  0  0  0  0  0
  155.3607  137.7539  190.8092 C   0  0  0  0  0  0  0  0  0  0  0  0
  155.4086  137.2420  189.5645 N   0  0  0  0  0  0  0  0  0  0  0  0
  154.7631  137.6086  188.4135 C   0  0  0  0  0  0  0  0  0  0  0  0
  157.4156  134.4643  188.3174 N   0  0  0  0  0  0  0  0  0  0  0  0
  158.8199  134.7629  187.9681 C   0  0  0  0  0  0  0  0  0  0  0  0
  159.6196  133.5132  188.1993 C   0  0  0  0  0  0  0  0  0  0  0  0
  159.3990  132.9067  189.4076 O   0  0  0  0  0  0  0  0  0  0  0  0
  158.0845  132.7128  189.7477 C   0  0  0  0  0  0  0  0  0  0  0  0
  157.1989  133.0526  188.5280 C   0  0  0  0  0  0  0  0  0  0  0  0
  154.5151  140.2648  183.6016 N   0  0  0  0  0  0  0  0  0  0  0  0
  155.8358  140.5011  183.1263 C   0  0  0  0  0  0  0  0  0  0  0  0
  156.7371  139.6051  183.1623 O   0  0  0  0  0  0  0  0  0  0  0  0
  153.7825  141.0343  183.4757 H   0  0  0  0  0  0  0  0  0  0  0  0
  156.1706  141.8269  182.6095 C   0  0  0  0  0  0  0  0  0  0  0  0
  155.5926  142.9974  182.9161 C   0  0  0  0  0  0  0  0  0  0  0  0
  156.0511  144.1996  182.3779 C   0  0  0  0  0  0  0  0  0  0  0  0
  157.1193  144.1714  181.5113 C   0  0  0  0  0  0  0  0  0  0  0  0
  157.7243  142.9907  181.1812 C   0  0  0  0  0  0  0  0  0  0  0  0
  157.2539  141.8105  181.7289 C   0  0  0  0  0  0  0  0  0  0  0  0
  158.8857  142.9265  180.2488 C   0  0  0  0  0  0  0  0  0  0  0  0
  158.5179  142.2999  179.0952 F   0  0  0  0  0  0  0  0  0  0  0  0
  159.3760  144.1856  180.0311 F   0  0  0  0  0  0  0  0  0  0  0  0
  159.8873  142.1510  180.8402 F   0  0  0  0  0  0  0  0  0  0  0  0
  1  2  1  0  0  0
  2  3  2  0  0  0
  3  4  1  0  0  0
  4  5  2  0  0  0
  5 23  1  0  0  0
 23 24  1  0  0  0
 24 25  2  0  0  0
 24 27  1  0  0  0
 27 28  2  0  0  0
 28 29  1  0  0  0
 29 30  2  0  0  0
 30 31  1  0  0  0
 31 32  2  0  0  0
 31 33  1  0  0  0
 33 34  1  0  0  0
 33 35  1  0  0  0
 33 36  1  0  0  0
  5  6  1  0  0  0
  6  7  2  0  0  0
  7  8  1  0  0  0
  8  9  1  0  0  0
  9 10  2  0  0  0
 10 17  1  0  0  0
 17 18  1  0  0  0
 18 19  1  0  0  0
 19 20  1  0  0  0
 20 21  1  0  0  0
 21 22  1  0  0  0
 10 11  1  0  0  0
 11 12  2  0  0  0
 12 13  1  0  0  0
 13 14  2  0  0  0
 14 15  1  0  0  0
 15 16  1  0  0  0
  7  2  1  0  0  0
 16  8  2  0  0  0
 32 27  1  0  0  0
 22 17  1  0  0  0
 15 11  1  0  0  0
 23 26  1  0  0  0
M  END
> <minimizedAffinity>
-8.81873

> <CNNscore>
0.4107432961

> <CNNaffinity>
6.2796764374

> <CNN_VS>
2.5793349743

> <CNNaffinity_variance>
0.0505627915

$$$$
[H]c1nc2c(N3C([H])([H])C([H])([H])OC([H])([H])C3([H])[H])c([H])c(-c3c([H])c(N([H])C(=O)c4c([H])c([H])c([H])c(C(F)(F)F)c4[H])c([H])c([H])c3C([H])([H])[H])c([H])n2c1[H]


 36 40  0  0  0  0  0  0  0  0999 V2000
  152.1342  136.5531  186.2861 C   0  0  0  0  0  0  0  0  0  0  0  0
  153.1397  137.4934  185.7086 C   0  0  0  0  0  0  0  0  0  0  0  0
  152.8866  137.9552  184.4156 C   0  0  0  0  0  0  0  0  0  0  0  0
  153.7925  138.7246  183.7547 C   0  0  0  0  0  0  0  0  0  0  0  0
  154.9728  139.0332  184.4000 C   0  0  0  0  0  0  0  0  0  0  0  0
  155.2331  138.5825  185.7032 C   0  0  0  0  0  0  0  0  0  0  0  0
  154.2992  137.7955  186.3726 C   0  0  0  0  0  0  0  0  0  0  0  0
  154.5638  137.2557  187.7237 C   0  0  0  0  0  0  0  0  0  0  0  0
  153.6449  137.3181  188.7297 C   0  0  0  0  0  0  0  0  0  0  0  0
  153.8924  136.7007  189.9697 C   0  0  0  0  0  0  0  0  0  0  0  0
  155.0721  136.0344  190.1830 C   0  0  0  0  0  0  0  0  0  0  0  0
  155.5984  135.3563  191.2446 N   0  0  0  0  0  0  0  0  0  0  0  0
  156.8203  134.8735  190.9512 C   0  0  0  0  0  0  0  0  0  0  0  0
  157.0412  135.2831  189.6366 C   0  0  0  0  0  0  0  0  0  0  0  0
  155.9812  135.9834  189.1900 N   0  0  0  0  0  0  0  0  0  0  0  0
  155.7386  136.5785  187.9804 C   0  0  0  0  0  0  0  0  0  0  0  0
  152.8666  136.7577  190.9218 N   0  0  0  0  0  0  0  0  0  0  0  0
  151.5552  136.1530  190.6090 C   0  0  0  0  0  0  0  0  0  0  0  0
  150.7567  136.1210  191.8803 C   0  0  0  0  0  0  0  0  0  0  0  0
  151.4257  135.6187  192.9650 O   0  0  0  0  0  0  0  0  0  0  0  0
  152.6756  136.1373  193.1888 C   0  0  0  0  0  0  0  0  0  0  0  0
  152.8930  137.3394  192.2427 C   0  0  0  0  0  0  0  0  0  0  0  0
  156.0017  139.6562  183.6582 N   0  0  0  0  0  0  0  0  0  0  0  0
  156.0683  141.0299  183.2915 C   0  0  0  0  0  0  0  0  0  0  0  0
  155.2051  141.8767  183.6848 O   0  0  0  0  0  0  0  0  0  0  0  0
  156.7983  139.0088  183.3568 H   0  0  0  0  0  0  0  0  0  0  0  0
  157.1476  141.4710  182.4098 C   0  0  0  0  0  0  0  0  0  0  0  0
  157.7563  140.7691  181.4429 C   0  0  0  0  0  0  0  0  0  0  0  0
  158.7458  141.3386  180.6419 C   0  0  0  0  0  0  0  0  0  0  0  0
  159.0996  142.6501  180.8599 C   0  0  0  0  0  0  0  0  0  0  0  0
  158.4955  143.3862  181.8408 C   0  0  0  0  0  0  0  0  0  0  0  0
  157.5149  142.8012  182.6220 C   0  0  0  0  0  0  0  0  0  0  0  0
  158.8531  144.8101  182.0999 C   0  0  0  0  0  0  0  0  0  0  0  0
  159.7092  144.8863  183.1582 F   0  0  0  0  0  0  0  0  0  0  0  0
  159.3685  145.3730  180.9639 F   0  0  0  0  0  0  0  0  0  0  0  0
  157.6915  145.5016  182.4562 F   0  0  0  0  0  0  0  0  0  0  0  0
  1  2  1  0  0  0
  2  3  2  0  0  0
  3  4  1  0  0  0
  4  5  2  0  0  0
  5 23  1  0  0  0
 23 24  1  0  0  0
 24 25  2  0  0  0
 24 27  1  0  0  0
 27 28  2  0  0  0
 28 29  1  0  0  0
 29 30  2  0  0  0
 30 31  1  0  0  0
 31 32  2  0  0  0
 31 33  1  0  0  0
 33 34  1  0  0  0
 33 35  1  0  0  0
 33 36  1  0  0  0
  5  6  1  0  0  0
  6  7  2  0  0  0
  7  8  1  0  0  0
  8  9  1  0  0  0
  9 10  2  0  0  0
 10 17  1  0  0  0
 17 18  1  0  0  0
 18 19  1  0  0  0
 19 20  1  0  0  0
 20 21  1  0  0  0
 21 22  1  0  0  0
 10 11  1  0  0  0
 11 12  2  0  0  0
 12 13  1  0  0  0
 13 14  2  0  0  0
 14 15  1  0  0  0
 15 16  1  0  0  0
  7  2  1  0  0  0
 16  8  2  0  0  0
 32 27  1  0  0  0
 22 17  1  0  0  0
 15 11  1  0  0  0
 23 26  1  0  0  0
M  END
> <minimizedAffinity>
-9.23473

> <CNNscore>
0.3639439940

> <CNNaffinity>
6.2029213905

> <CNN_VS>
2.2575159073

> <CNNaffinity_variance>
0.0884025246

$$$$
[H]c1nc2c(N3C([H])([H])C([H])([H])OC([H])([H])C3([H])[H])c([H])c(-c3c([H])c(N([H])C(=O)c4c([H])c([H])c([H])c(C(F)(F)F)c4[H])c([H])c([H])c3C([H])([H])[H])c([H])n2c1[H]


 36 40  0  0  0  0  0  0  0  0999 V2000
  154.9114  140.3884  182.8291 C   0  0  0  0  0  0  0  0  0  0  0  0
  155.0293  139.4706  184.0006 C   0  0  0  0  0  0  0  0  0  0  0  0
  153.9471  138.6202  184.2341 C   0  0  0  0  0  0  0  0  0  0  0  0
  153.9033  137.8258  185.3370 C   0  0  0  0  0  0  0  0  0  0  0  0
  154.9607  137.8877  186.2218 C   0  0  0  0  0  0  0  0  0  0  0  0
  156.0580  138.7316  185.9917 C   0  0  0  0  0  0  0  0  0  0  0  0
  156.0946  139.5413  184.8591 C   0  0  0  0  0  0  0  0  0  0  0  0
  157.2071  140.4841  184.6135 C   0  0  0  0  0  0  0  0  0  0  0  0
  157.3331  141.1796  183.4471 C   0  0  0  0  0  0  0  0  0  0  0  0
  158.3446  142.1452  183.2907 C   0  0  0  0  0  0  0  0  0  0  0  0
  159.2253  142.3905  184.3131 C   0  0  0  0  0  0  0  0  0  0  0  0
  160.2873  143.2346  184.4665 N   0  0  0  0  0  0  0  0  0  0  0  0
  160.8439  143.0939  185.6840 C   0  0  0  0  0  0  0  0  0  0  0  0
  160.0712  142.1096  186.2996 C   0  0  0  0  0  0  0  0  0  0  0  0
  159.1034  141.6944  185.4601 N   0  0  0  0  0  0  0  0  0  0  0  0
  158.1151  140.7590  185.6158 C   0  0  0  0  0  0  0  0  0  0  0  0
  158.3587  142.8585  182.0853 N   0  0  0  0  0  0  0  0  0  0  0  0
  159.0694  144.1522  182.0187 C   0  0  0  0  0  0  0  0  0  0  0  0
  159.1506  144.5503  180.5731 C   0  0  0  0  0  0  0  0  0  0  0  0
  159.5857  143.5623  179.7299 O   0  0  0  0  0  0  0  0  0  0  0  0
  158.9668  142.3458  179.8653 C   0  0  0  0  0  0  0  0  0  0  0  0
  157.7619  142.5031  180.8197 C   0  0  0  0  0  0  0  0  0  0  0  0
  154.8379  137.2253  187.4640 N   0  0  0  0  0  0  0  0  0  0  0  0
  154.2885  137.7655  188.6608 C   0  0  0  0  0  0  0  0  0  0  0  0
  153.7617  138.9220  188.7003 O   0  0  0  0  0  0  0  0  0  0  0  0
  155.1995  136.2185  187.4779 H   0  0  0  0  0  0  0  0  0  0  0  0
  154.3619  136.9745  189.8880 C   0  0  0  0  0  0  0  0  0  0  0  0
  155.2760  136.0494  190.2148 C   0  0  0  0  0  0  0  0  0  0  0  0
  155.2489  135.4030  191.4503 C   0  0  0  0  0  0  0  0  0  0  0  0
  154.2553  135.7275  192.3449 C   0  0  0  0  0  0  0  0  0  0  0  0
  153.3105  136.6656  192.0345 C   0  0  0  0  0  0  0  0  0  0  0  0
  153.3581  137.2957  190.8037 C   0  0  0  0  0  0  0  0  0  0  0  0
  152.2236  137.0426  192.9826 C   0  0  0  0  0  0  0  0  0  0  0  0
  152.1622  136.1362  193.9991 F   0  0  0  0  0  0  0  0  0  0  0  0
  152.4200  138.3215  193.4285 F   0  0  0  0  0  0  0  0  0  0  0  0
  151.0030  136.9866  192.3034 F   0  0  0  0  0  0  0  0  0  0  0  0
  1  2  1  0  0  0
  2  3  2  0  0  0
  3  4  1  0  0  0
  4  5  2  0  0  0
  5 23  1  0  0  0
 23 24  1  0  0  0
 24 25  2  0  0  0
 24 27  1  0  0  0
 27 28  2  0  0  0
 28 29  1  0  0  0
 29 30  2  0  0  0
 30 31  1  0  0  0
 31 32  2  0  0  0
 31 33  1  0  0  0
 33 34  1  0  0  0
 33 35  1  0  0  0
 33 36  1  0  0  0
  5  6  1  0  0  0
  6  7  2  0  0  0
  7  8  1  0  0  0
  8  9  1  0  0  0
  9 10  2  0  0  0
 10 17  1  0  0  0
 17 18  1  0  0  0
 18 19  1  0  0  0
 19 20  1  0  0  0
 20 21  1  0  0  0
 21 22  1  0  0  0
 10 11  1  0  0  0
 11 12  2  0  0  0
 12 13  1  0  0  0
 13 14  2  0  0  0
 14 15  1  0  0  0
 15 16  1  0  0  0
  7  2  1  0  0  0
 16  8  2  0  0  0
 32 27  1  0  0  0
 22 17  1  0  0  0
 15 11  1  0  0  0
 23 26  1  0  0  0
M  END
> <minimizedAffinity>
-10.02788

> <CNNscore>
0.3455107212

> <CNNaffinity>
6.5614728928

> <CNN_VS>
2.2670593262

> <CNNaffinity_variance>
0.0323580317

$$$$
[H]c1nc2c(N3C([H])([H])C([H])([H])OC([H])([H])C3([H])[H])c([H])c(-c3c([H])c(N([H])C(=O)c4c([H])c([H])c([H])c(C(F)(F)F)c4[H])c([H])c([H])c3C([H])([H])[H])c([H])n2c1[H]


 36 40  0  0  0  0  0  0  0  0999 V2000
  154.3876  141.0842  181.8270 C   0  0  0  0  0  0  0  0  0  0  0  0
  154.5100  140.1495  182.9845 C   0  0  0  0  0  0  0  0  0  0  0  0
  153.4702  139.2337  183.1555 C   0  0  0  0  0  0  0  0  0  0  0  0
  153.4270  138.4145  184.2400 C   0  0  0  0  0  0  0  0  0  0  0  0
  154.4417  138.5175  185.1699 C   0  0  0  0  0  0  0  0  0  0  0  0
  155.4968  139.4275  185.0028 C   0  0  0  0  0  0  0  0  0  0  0  0
  155.5331  140.2622  183.8886 C   0  0  0  0  0  0  0  0  0  0  0  0
  156.5982  141.2722  183.7086 C   0  0  0  0  0  0  0  0  0  0  0  0
  157.7016  141.3229  184.5085 C   0  0  0  0  0  0  0  0  0  0  0  0
  158.7433  142.2304  184.2412 C   0  0  0  0  0  0  0  0  0  0  0  0
  158.6534  143.0850  183.1723 C   0  0  0  0  0  0  0  0  0  0  0  0
  159.4679  144.0561  182.6649 N   0  0  0  0  0  0  0  0  0  0  0  0
  158.9176  144.6283  181.5777 C   0  0  0  0  0  0  0  0  0  0  0  0
  157.7028  143.9618  181.4207 C   0  0  0  0  0  0  0  0  0  0  0  0
  157.5574  143.0385  182.3902 N   0  0  0  0  0  0  0  0  0  0  0  0
  156.5459  142.1510  182.6457 C   0  0  0  0  0  0  0  0  0  0  0  0
  159.8676  142.1677  185.0743 N   0  0  0  0  0  0  0  0  0  0  0  0
  161.2147  142.1234  184.4689 C   0  0  0  0  0  0  0  0  0  0  0  0
  162.2133  142.3318  185.5708 C   0  0  0  0  0  0  0  0  0  0  0  0
  161.9421  143.3896  186.3978 O   0  0  0  0  0  0  0  0  0  0  0  0
  160.6611  143.4552  186.8836 C   0  0  0  0  0  0  0  0  0  0  0  0
  159.9216  142.1491  186.5168 C   0  0  0  0  0  0  0  0  0  0  0  0
  154.3064  137.8224  186.3928 N   0  0  0  0  0  0  0  0  0  0  0  0
  153.4444  138.1673  187.4717 C   0  0  0  0  0  0  0  0  0  0  0  0
  152.6216  139.1337  187.3966 O   0  0  0  0  0  0  0  0  0  0  0  0
  154.9228  136.9535  186.4904 H   0  0  0  0  0  0  0  0  0  0  0  0
  153.5327  137.4028  188.7145 C   0  0  0  0  0  0  0  0  0  0  0  0
  152.5658  136.6893  189.3098 C   0  0  0  0  0  0  0  0  0  0  0  0
  152.8080  135.9655  190.4770 C   0  0  0  0  0  0  0  0  0  0  0  0
  154.0705  135.9939  191.0229 C   0  0  0  0  0  0  0  0  0  0  0  0
  155.0727  136.7154  190.4363 C   0  0  0  0  0  0  0  0  0  0  0  0
  154.8101  137.4243  189.2775 C   0  0  0  0  0  0  0  0  0  0  0  0
  156.4519  136.7638  191.0001 C   0  0  0  0  0  0  0  0  0  0  0  0
  157.0257  137.9672  190.7148 F   0  0  0  0  0  0  0  0  0  0  0  0
  156.4132  136.5040  192.3432 F   0  0  0  0  0  0  0  0  0  0  0  0
  157.2220  135.7790  190.3745 F   0  0  0  0  0  0  0  0  0  0  0  0
  1  2  1  0  0  0
  2  3  2  0  0  0
  3  4  1  0  0  0
  4  5  2  0  0  0
  5 23  1  0  0  0
 23 24  1  0  0  0
 24 25  2  0  0  0
 24 27  1  0  0  0
 27 28  2  0  0  0
 28 29  1  0  0  0
 29 30  2  0  0  0
 30 31  1  0  0  0
 31 32  2  0  0  0
 31 33  1  0  0  0
 33 34  1  0  0  0
 33 35  1  0  0  0
 33 36  1  0  0  0
  5  6  1  0  0  0
  6  7  2  0  0  0
  7  8  1  0  0  0
  8  9  1  0  0  0
  9 10  2  0  0  0
 10 17  1  0  0  0
 17 18  1  0  0  0
 18 19  1  0  0  0
 19 20  1  0  0  0
 20 21  1  0  0  0
 21 22  1  0  0  0
 10 11  1  0  0  0
 11 12  2  0  0  0
 12 13  1  0  0  0
 13 14  2  0  0  0
 14 15  1  0  0  0
 15 16  1  0  0  0
  7  2  1  0  0  0
 16  8  2  0  0  0
 32 27  1  0  0  0
 22 17  1  0  0  0
 15 11  1  0  0  0
 23 26  1  0  0  0
M  END
> <minimizedAffinity>
-10.03350

> <CNNscore>
0.3207424581

> <CNNaffinity>
6.7017898560

> <CNN_VS>
2.1495485306

> <CNNaffinity_variance>
0.0524979755

$$$$
[H]c1nc2c(N3C([H])([H])C([H])([H])OC([H])([H])C3([H])[H])c([H])c(-c3c([H])c(N([H])C(=O)c4c([H])c([H])c([H])c(C(F)(F)F)c4[H])c([H])c([H])c3C([H])([H])[H])c([H])n2c1[H]


 36 40  0  0  0  0  0  0  0  0999 V2000
  155.0692  140.7148  182.8488 C   0  0  0  0  0  0  0  0  0  0  0  0
  155.2115  139.7442  183.9740 C   0  0  0  0  0  0  0  0  0  0  0  0
  154.1294  138.8909  184.1981 C   0  0  0  0  0  0  0  0  0  0  0  0
  154.1092  138.0476  185.2648 C   0  0  0  0  0  0  0  0  0  0  0  0
  155.1904  138.0626  186.1225 C   0  0  0  0  0  0  0  0  0  0  0  0
  156.2875  138.9091  185.9011 C   0  0  0  0  0  0  0  0  0  0  0  0
  156.2999  139.7690  184.8056 C   0  0  0  0  0  0  0  0  0  0  0  0
  157.4125  140.7149  184.5728 C   0  0  0  0  0  0  0  0  0  0  0  0
  157.5071  141.4693  183.4406 C   0  0  0  0  0  0  0  0  0  0  0  0
  158.5219  142.4341  183.3012 C   0  0  0  0  0  0  0  0  0  0  0  0
  159.4376  142.6190  184.3054 C   0  0  0  0  0  0  0  0  0  0  0  0
  160.5117  143.4459  184.4674 N   0  0  0  0  0  0  0  0  0  0  0  0
  161.1062  143.2377  185.6571 C   0  0  0  0  0  0  0  0  0  0  0  0
  160.3448  142.2286  186.2458 C   0  0  0  0  0  0  0  0  0  0  0  0
  159.3465  141.8650  185.4182 N   0  0  0  0  0  0  0  0  0  0  0  0
  158.3551  140.9302  185.5576 C   0  0  0  0  0  0  0  0  0  0  0  0
  158.5035  143.2091  182.1346 N   0  0  0  0  0  0  0  0  0  0  0  0
  159.1919  144.5164  182.1239 C   0  0  0  0  0  0  0  0  0  0  0  0
  159.2415  144.9903  180.6999 C   0  0  0  0  0  0  0  0  0  0  0  0
  159.6777  144.0549  179.7992 O   0  0  0  0  0  0  0  0  0  0  0  0
  159.0810  142.8227  179.8811 C   0  0  0  0  0  0  0  0  0  0  0  0
  157.8906  142.9098  180.8623 C   0  0  0  0  0  0  0  0  0  0  0  0
  155.0958  137.3453  187.3364 N   0  0  0  0  0  0  0  0  0  0  0  0
  154.4561  137.7825  188.5304 C   0  0  0  0  0  0  0  0  0  0  0  0
  153.8131  138.8777  188.5902 O   0  0  0  0  0  0  0  0  0  0  0  0
  155.5575  136.3802  187.3292 H   0  0  0  0  0  0  0  0  0  0  0  0
  154.5702  136.9577  189.7319 C   0  0  0  0  0  0  0  0  0  0  0  0
  153.7352  136.9146  190.7802 C   0  0  0  0  0  0  0  0  0  0  0  0
  153.9457  136.0374  191.8439 C   0  0  0  0  0  0  0  0  0  0  0  0
  155.0400  135.2044  191.8075 C   0  0  0  0  0  0  0  0  0  0  0  0
  155.9073  135.2307  190.7510 C   0  0  0  0  0  0  0  0  0  0  0  0
  155.6774  136.1077  189.7058 C   0  0  0  0  0  0  0  0  0  0  0  0
  157.0996  134.3388  190.6792 C   0  0  0  0  0  0  0  0  0  0  0  0
  157.8189  134.4353  191.8334 F   0  0  0  0  0  0  0  0  0  0  0  0
  156.7041  133.0564  190.4108 F   0  0  0  0  0  0  0  0  0  0  0  0
  157.9230  134.7813  189.6398 F   0  0  0  0  0  0  0  0  0  0  0  0
  1  2  1  0  0  0
  2  3  2  0  0  0
  3  4  1  0  0  0
  4  5  2  0  0  0
  5 23  1  0  0  0
 23 24  1  0  0  0
 24 25  2  0  0  0
 24 27  1  0  0  0
 27 28  2  0  0  0
 28 29  1  0  0  0
 29 30  2  0  0  0
 30 31  1  0  0  0
 31 32  2  0  0  0
 31 33  1  0  0  0
 33 34  1  0  0  0
 33 35  1  0  0  0
 33 36  1  0  0  0
  5  6  1  0  0  0
  6  7  2  0  0  0
  7  8  1  0  0  0
  8  9  1  0  0  0
  9 10  2  0  0  0
 10 17  1  0  0  0
 17 18  1  0  0  0
 18 19  1  0  0  0
 19 20  1  0  0  0
 20 21  1  0  0  0
 21 22  1  0  0  0
 10 11  1  0  0  0
 11 12  2  0  0  0
 12 13  1  0  0  0
 13 14  2  0  0  0
 14 15  1  0  0  0
 15 16  1  0  0  0
  7  2  1  0  0  0
 16  8  2  0  0  0
 32 27  1  0  0  0
 22 17  1  0  0  0
 15 11  1  0  0  0
 23 26  1  0  0  0
M  END
> <minimizedAffinity>
-9.51711

> <CNNscore>
0.3202781975

> <CNNaffinity>
6.6911239624

> <CNN_VS>
2.1430211067

> <CNNaffinity_variance>
0.0282744206

$$$$
[H]c1c([H])c([H])c2c(c1[H])c(C([H])([H])[C@@]([H])(C(=O)N1C([H])([H])C([H])([H])C([H])([H])[C@@]1([H])C(=O)N([H])[C@]([H])(C(=O)N([H])[C@]([H])(C(=O)N([H])[H])C([H])([H])C([H])(C([H])([H])[H])C([H])([H])[H])C([H])([H])c1c([H])n([H])c3c([H])c([H])c([H])c([H])c13)N([H])[H])c([H])n2[H]


 52 56  0  0  0  0  0  0  0  0999 V2000
  153.8791  138.4493  184.9957 C   0  0  0  0  0  0  0  0  0  0  0  0
  152.2413  138.0978  183.0697 N   0  0  0  0  0  0  0  0  0  0  0  0
  152.6357  137.8664  184.3967 C   0  0  0  0  0  0  0  0  0  0  0  0
  151.9215  137.1375  185.1318 O   0  0  0  0  0  0  0  0  0  0  0  0
  152.8379  138.7113  182.4720 H   0  0  0  0  0  0  0  0  0  0  0  0
  151.0148  137.5062  182.4865 C   0  0  0  0  0  0  0  0  0  0  0  0
  151.4624  136.3156  181.7617 C   0  0  0  0  0  0  0  0  0  0  0  0
  152.8223  136.0080  181.4969 N   0  0  0  0  0  0  0  0  0  0  0  0
  150.6021  135.4912  181.3275 O   0  0  0  0  0  0  0  0  0  0  0  0
  153.4973  136.7769  181.3631 H   0  0  0  0  0  0  0  0  0  0  0  0
  153.1450  135.0303  181.4366 H   0  0  0  0  0  0  0  0  0  0  0  0
  150.3910  138.5896  181.6761 C   0  0  0  0  0  0  0  0  0  0  0  0
  151.7457  139.7724  179.9273 C   0  0  0  0  0  0  0  0  0  0  0  0
  150.7346  138.6849  180.2402 C   0  0  0  0  0  0  0  0  0  0  0  0
  149.6285  138.6993  179.2596 C   0  0  0  0  0  0  0  0  0  0  0  0
  154.1433  139.7576  184.4564 N   0  0  0  0  0  0  0  0  0  0  0  0
  155.4585  140.3285  184.3393 C   0  0  0  0  0  0  0  0  0  0  0  0
  156.3833  139.6068  184.7461 O   0  0  0  0  0  0  0  0  0  0  0  0
  153.3278  140.3130  184.1290 H   0  0  0  0  0  0  0  0  0  0  0  0
  155.5985  141.6568  183.7775 C   0  0  0  0  0  0  0  0  0  0  0  0
  154.2315  142.1463  183.2512 C   0  0  0  0  0  0  0  0  0  0  0  0
  154.6020  143.2136  182.2859 C   0  0  0  0  0  0  0  0  0  0  0  0
  156.1064  143.2159  182.1763 C   0  0  0  0  0  0  0  0  0  0  0  0
  156.4417  141.8769  182.6614 N   0  0  0  0  0  0  0  0  0  0  0  0
  157.4782  141.1174  182.0767 C   0  0  0  0  0  0  0  0  0  0  0  0
  157.7745  140.0101  182.6499 O   0  0  0  0  0  0  0  0  0  0  0  0
  158.2377  141.4943  180.8850 C   0  0  0  0  0  0  0  0  0  0  0  0
  157.2155  141.4783  179.7807 N   0  0  0  0  0  0  0  0  0  0  0  0
  156.5695  140.6838  179.9387 H   0  0  0  0  0  0  0  0  0  0  0  0
  157.6967  141.4866  178.8630 H   0  0  0  0  0  0  0  0  0  0  0  0
  158.8096  142.8553  180.8040 C   0  0  0  0  0  0  0  0  0  0  0  0
  159.2679  143.5256  182.0056 C   0  0  0  0  0  0  0  0  0  0  0  0
  159.0082  144.8432  182.3699 C   0  0  0  0  0  0  0  0  0  0  0  0
  159.6318  145.0916  183.5240 N   0  0  0  0  0  0  0  0  0  0  0  0
  160.2954  144.0025  183.9487 C   0  0  0  0  0  0  0  0  0  0  0  0
  161.0672  143.7265  185.0551 C   0  0  0  0  0  0  0  0  0  0  0  0
  161.6312  142.4739  185.2486 C   0  0  0  0  0  0  0  0  0  0  0  0
  161.4180  141.4905  184.3229 C   0  0  0  0  0  0  0  0  0  0  0  0
  160.6456  141.7735  183.2184 C   0  0  0  0  0  0  0  0  0  0  0  0
  160.0739  143.0188  183.0065 C   0  0  0  0  0  0  0  0  0  0  0  0
  159.6455  145.9923  184.0796 H   0  0  0  0  0  0  0  0  0  0  0  0
  153.7012  138.4921  186.5108 C   0  0  0  0  0  0  0  0  0  0  0  0
  154.7405  137.8334  187.2796 C   0  0  0  0  0  0  0  0  0  0  0  0
  155.6435  136.8667  186.8189 C   0  0  0  0  0  0  0  0  0  0  0  0
  156.4206  136.4620  187.8329 N   0  0  0  0  0  0  0  0  0  0  0  0
  156.0813  137.1121  188.9464 C   0  0  0  0  0  0  0  0  0  0  0  0
  156.6149  137.0303  190.2175 C   0  0  0  0  0  0  0  0  0  0  0  0
  156.0891  137.8364  191.1990 C   0  0  0  0  0  0  0  0  0  0  0  0
  155.0585  138.7027  190.9232 C   0  0  0  0  0  0  0  0  0  0  0  0
  154.5431  138.7642  189.6459 C   0  0  0  0  0  0  0  0  0  0  0  0
  155.0322  137.9733  188.6148 C   0  0  0  0  0  0  0  0  0  0  0  0
  157.1640  135.7449  187.7163 H   0  0  0  0  0  0  0  0  0  0  0  0
 13 14  1  0  0  0
 14 15  1  0  0  0
 14 12  1  0  0  0
 12  6  1  0  0  0
  6  2  1  0  0  0
  2  3  1  0  0  0
  3  4  2  0  0  0
  3  1  1  0  0  0
  1 42  1  0  0  0
 42 43  1  0  0  0
 43 44  2  0  0  0
 44 45  1  0  0  0
 45 46  1  0  0  0
 46 47  2  0  0  0
 47 48  1  0  0  0
 48 49  2  0  0  0
 49 50  1  0  0  0
 50 51  2  0  0  0
  1 16  1  0  0  0
 16 17  1  0  0  0
 17 18  2  0  0  0
 17 20  1  0  0  0
 20 21  1  0  0  0
 21 22  1  0  0  0
 22 23  1  0  0  0
 23 24  1  0  0  0
 24 25  1  0  0  0
 25 26  2  0  0  0
 25 27  1  0  0  0
 27 28  1  0  0  0
 27 31  1  0  0  0
 31 32  1  0  0  0
 32 33  2  0  0  0
 33 34  1  0  0  0
 34 35  1  0  0  0
 35 36  2  0  0  0
 36 37  1  0  0  0
 37 38  2  0  0  0
 38 39  1  0  0  0
 39 40  2  0  0  0
  6  7  1  0  0  0
  7  8  1  0  0  0
  7  9  2  0  0  0
 51 43  1  0  0  0
 24 20  1  0  0  0
 40 32  1  0  0  0
 51 46  1  0  0  0
 40 35  1  0  0  0
  2  5  1  0  0  0
 45 52  1  0  0  0
 16 19  1  0  0  0
 28 29  1  0  0  0
 28 30  1  0  0  0
 34 41  1  0  0  0
  8 10  1  0  0  0
  8 11  1  0  0  0
M  END
> <minimizedAffinity>
-9.98429

> <CNNscore>
0.5137842894

> <CNNaffinity>
7.4820923805

> <CNN_VS>
3.8441815376

> <CNNaffinity_variance>
0.4752669334

$$$$
[H]c1c([H])c([H])c2c(c1[H])c(C([H])([H])[C@@]([H])(C(=O)N1C([H])([H])C([H])([H])C([H])([H])[C@@]1([H])C(=O)N([H])[C@]([H])(C(=O)N([H])[C@]([H])(C(=O)N([H])[H])C([H])([H])C([H])(C([H])([H])[H])C([H])([H])[H])C([H])([H])c1c([H])n([H])c3c([H])c([H])c([H])c([H])c13)N([H])[H])c([H])n2[H]


 52 56  0  0  0  0  0  0  0  0999 V2000
  154.7677  138.4606  186.0451 C   0  0  0  0  0  0  0  0  0  0  0  0
  156.5354  139.5525  184.5625 N   0  0  0  0  0  0  0  0  0  0  0  0
  155.2092  139.1552  184.7932 C   0  0  0  0  0  0  0  0  0  0  0  0
  154.3371  139.3867  183.9171 O   0  0  0  0  0  0  0  0  0  0  0  0
  157.2485  139.3625  185.3007 H   0  0  0  0  0  0  0  0  0  0  0  0
  156.9608  140.2290  183.3151 C   0  0  0  0  0  0  0  0  0  0  0  0
  158.3071  139.7249  183.0375 C   0  0  0  0  0  0  0  0  0  0  0  0
  159.2897  139.4861  184.0332 N   0  0  0  0  0  0  0  0  0  0  0  0
  158.6458  139.4816  181.8399 O   0  0  0  0  0  0  0  0  0  0  0  0
  159.3004  140.0714  184.8830 H   0  0  0  0  0  0  0  0  0  0  0  0
  159.9910  138.7384  183.9205 H   0  0  0  0  0  0  0  0  0  0  0  0
  156.8336  141.6886  183.5847 C   0  0  0  0  0  0  0  0  0  0  0  0
  157.1423  143.5986  181.9881 C   0  0  0  0  0  0  0  0  0  0  0  0
  156.2076  142.5456  182.5540 C   0  0  0  0  0  0  0  0  0  0  0  0
  154.8790  143.1252  182.8442 C   0  0  0  0  0  0  0  0  0  0  0  0
  153.7112  137.5236  185.7662 N   0  0  0  0  0  0  0  0  0  0  0  0
  152.4501  137.5040  186.4581 C   0  0  0  0  0  0  0  0  0  0  0  0
  152.3212  138.3675  187.3410 O   0  0  0  0  0  0  0  0  0  0  0  0
  153.8773  136.8265  185.0130 H   0  0  0  0  0  0  0  0  0  0  0  0
  151.4620  136.5114  186.0866 C   0  0  0  0  0  0  0  0  0  0  0  0
  150.0460  137.0461  186.3936 C   0  0  0  0  0  0  0  0  0  0  0  0
  149.2248  135.8098  186.4656 C   0  0  0  0  0  0  0  0  0  0  0  0
  150.1675  134.6383  186.3471 C   0  0  0  0  0  0  0  0  0  0  0  0
  151.4449  135.2458  186.7213 N   0  0  0  0  0  0  0  0  0  0  0  0
  152.3955  134.5481  187.4976 C   0  0  0  0  0  0  0  0  0  0  0  0
  153.5300  135.1191  187.6687 O   0  0  0  0  0  0  0  0  0  0  0  0
  152.1924  133.2353  188.1093 C   0  0  0  0  0  0  0  0  0  0  0  0
  153.5100  132.5347  187.9154 N   0  0  0  0  0  0  0  0  0  0  0  0
  153.8857  132.7875  186.9836 H   0  0  0  0  0  0  0  0  0  0  0  0
  153.3916  131.5198  188.0886 H   0  0  0  0  0  0  0  0  0  0  0  0
  151.9719  133.1544  189.5691 C   0  0  0  0  0  0  0  0  0  0  0  0
  151.2096  134.1841  190.2488 C   0  0  0  0  0  0  0  0  0  0  0  0
  149.8483  134.4361  190.1085 C   0  0  0  0  0  0  0  0  0  0  0  0
  149.5331  135.4837  190.8739 N   0  0  0  0  0  0  0  0  0  0  0  0
  150.6189  135.9435  191.5194 C   0  0  0  0  0  0  0  0  0  0  0  0
  150.8343  136.9666  192.4153 C   0  0  0  0  0  0  0  0  0  0  0  0
  152.0927  137.2090  192.9466 C   0  0  0  0  0  0  0  0  0  0  0  0
  153.1432  136.4168  192.5748 C   0  0  0  0  0  0  0  0  0  0  0  0
  152.9208  135.3957  191.6779 C   0  0  0  0  0  0  0  0  0  0  0  0
  151.6713  135.1377  191.1352 C   0  0  0  0  0  0  0  0  0  0  0  0
  148.5865  135.9396  191.0013 H   0  0  0  0  0  0  0  0  0  0  0  0
  155.9827  137.7705  186.6589 C   0  0  0  0  0  0  0  0  0  0  0  0
  155.9152  137.5457  188.0906 C   0  0  0  0  0  0  0  0  0  0  0  0
  155.3534  138.3972  189.0506 C   0  0  0  0  0  0  0  0  0  0  0  0
  155.5232  137.8689  190.2704 N   0  0  0  0  0  0  0  0  0  0  0  0
  156.1690  136.7068  190.1710 C   0  0  0  0  0  0  0  0  0  0  0  0
  156.5436  135.8143  191.1560 C   0  0  0  0  0  0  0  0  0  0  0  0
  157.1909  134.6614  190.7801 C   0  0  0  0  0  0  0  0  0  0  0  0
  157.4587  134.4021  189.4573 C   0  0  0  0  0  0  0  0  0  0  0  0
  157.0748  135.3103  188.4935 C   0  0  0  0  0  0  0  0  0  0  0  0
  156.4200  136.4921  188.8133 C   0  0  0  0  0  0  0  0  0  0  0  0
  155.1826  138.3356  191.1345 H   0  0  0  0  0  0  0  0  0  0  0  0
 13 14  1  0  0  0
 14 15  1  0  0  0
 14 12  1  0  0  0
 12  6  1  0  0  0
  6  2  1  0  0  0
  2  3  1  0  0  0
  3  4  2  0  0  0
  3  1  1  0  0  0
  1 42  1  0  0  0
 42 43  1  0  0  0
 43 44  2  0  0  0
 44 45  1  0  0  0
 45 46  1  0  0  0
 46 47  2  0  0  0
 47 48  1  0  0  0
 48 49  2  0  0  0
 49 50  1  0  0  0
 50 51  2  0  0  0
  1 16  1  0  0  0
 16 17  1  0  0  0
 17 18  2  0  0  0
 17 20  1  0  0  0
 20 21  1  0  0  0
 21 22  1  0  0  0
 22 23  1  0  0  0
 23 24  1  0  0  0
 24 25  1  0  0  0
 25 26  2  0  0  0
 25 27  1  0  0  0
 27 28  1  0  0  0
 27 31  1  0  0  0
 31 32  1  0  0  0
 32 33  2  0  0  0
 33 34  1  0  0  0
 34 35  1  0  0  0
 35 36  2  0  0  0
 36 37  1  0  0  0
 37 38  2  0  0  0
 38 39  1  0  0  0
 39 40  2  0  0  0
  6  7  1  0  0  0
  7  8  1  0  0  0
  7  9  2  0  0  0
 51 43  1  0  0  0
 24 20  1  0  0  0
 40 32  1  0  0  0
 51 46  1  0  0  0
 40 35  1  0  0  0
  2  5  1  0  0  0
 45 52  1  0  0  0
 16 19  1  0  0  0
 28 29  1  0  0  0
 28 30  1  0  0  0
 34 41  1  0  0  0
  8 10  1  0  0  0
  8 11  1  0  0  0
M  END
> <minimizedAffinity>
-7.42535

> <CNNscore>
0.3748629689

> <CNNaffinity>
6.5754384995

> <CNN_VS>
2.4648883343

> <CNNaffinity_variance>
0.2570495605

$$$$
[H]c1c([H])c([H])c2c(c1[H])c(C([H])([H])[C@@]([H])(C(=O)N1C([H])([H])C([H])([H])C([H])([H])[C@@]1([H])C(=O)N([H])[C@]([H])(C(=O)N([H])[C@]([H])(C(=O)N([H])[H])C([H])([H])C([H])(C([H])([H])[H])C([H])([H])[H])C([H])([H])c1c([H])n([H])c3c([H])c([H])c([H])c([H])c13)N([H])[H])c([H])n2[H]


 52 56  0  0  0  0  0  0  0  0999 V2000
  154.5573  138.1842  185.1815 C   0  0  0  0  0  0  0  0  0  0  0  0
  156.4352  139.5333  184.1005 N   0  0  0  0  0  0  0  0  0  0  0  0
  155.0775  139.3587  184.4104 C   0  0  0  0  0  0  0  0  0  0  0  0
  154.2447  140.2211  184.0306 O   0  0  0  0  0  0  0  0  0  0  0  0
  157.1179  138.8150  184.4285 H   0  0  0  0  0  0  0  0  0  0  0  0
  156.9351  140.6941  183.3277 C   0  0  0  0  0  0  0  0  0  0  0  0
  157.8808  140.1390  182.3577 C   0  0  0  0  0  0  0  0  0  0  0  0
  158.0504  140.6322  181.0378 N   0  0  0  0  0  0  0  0  0  0  0  0
  158.6046  139.1518  182.6890 O   0  0  0  0  0  0  0  0  0  0  0  0
  157.2437  141.0473  180.5462 H   0  0  0  0  0  0  0  0  0  0  0  0
  158.9651  140.5822  180.5643 H   0  0  0  0  0  0  0  0  0  0  0  0
  157.4872  141.6418  184.3359 C   0  0  0  0  0  0  0  0  0  0  0  0
  159.5386  141.8467  185.7650 C   0  0  0  0  0  0  0  0  0  0  0  0
  158.9489  141.8678  184.3669 C   0  0  0  0  0  0  0  0  0  0  0  0
  159.4951  142.9969  183.5844 C   0  0  0  0  0  0  0  0  0  0  0  0
  154.4861  138.4847  186.5875 N   0  0  0  0  0  0  0  0  0  0  0  0
  155.2564  137.8059  187.5950 C   0  0  0  0  0  0  0  0  0  0  0  0
  156.0088  136.9143  187.1699 O   0  0  0  0  0  0  0  0  0  0  0  0
  153.8400  139.2443  186.8816 H   0  0  0  0  0  0  0  0  0  0  0  0
  155.0994  138.1989  188.9808 C   0  0  0  0  0  0  0  0  0  0  0  0
  156.4676  138.1461  189.6952 C   0  0  0  0  0  0  0  0  0  0  0  0
  156.0971  138.0535  191.1313 C   0  0  0  0  0  0  0  0  0  0  0  0
  154.5966  137.9162  191.1988 C   0  0  0  0  0  0  0  0  0  0  0  0
  154.2808  137.4399  189.8519 N   0  0  0  0  0  0  0  0  0  0  0  0
  153.2787  136.4713  189.6268 C   0  0  0  0  0  0  0  0  0  0  0  0
  152.9941  136.2104  188.4048 O   0  0  0  0  0  0  0  0  0  0  0  0
  152.5421  135.7551  190.6677 C   0  0  0  0  0  0  0  0  0  0  0  0
  153.5964  135.3963  191.6797 N   0  0  0  0  0  0  0  0  0  0  0  0
  154.4645  135.1382  191.1765 H   0  0  0  0  0  0  0  0  0  0  0  0
  153.2251  134.6773  192.3270 H   0  0  0  0  0  0  0  0  0  0  0  0
  151.5367  136.4898  191.4648 C   0  0  0  0  0  0  0  0  0  0  0  0
  150.5672  135.7638  192.2624 C   0  0  0  0  0  0  0  0  0  0  0  0
  150.4349  135.8062  193.6470 C   0  0  0  0  0  0  0  0  0  0  0  0
  149.4523  134.9746  194.0016 N   0  0  0  0  0  0  0  0  0  0  0  0
  148.9213  134.3790  192.9198 C   0  0  0  0  0  0  0  0  0  0  0  0
  147.9034  133.4705  192.7339 C   0  0  0  0  0  0  0  0  0  0  0  0
  147.5506  133.0297  191.4668 C   0  0  0  0  0  0  0  0  0  0  0  0
  148.2259  133.5056  190.3774 C   0  0  0  0  0  0  0  0  0  0  0  0
  149.2432  134.4136  190.5704 C   0  0  0  0  0  0  0  0  0  0  0  0
  149.6114  134.8659  191.8284 C   0  0  0  0  0  0  0  0  0  0  0  0
  149.0916  134.7652  194.9742 H   0  0  0  0  0  0  0  0  0  0  0  0
  153.1888  137.8138  184.6165 C   0  0  0  0  0  0  0  0  0  0  0  0
  152.6320  136.5642  185.0996 C   0  0  0  0  0  0  0  0  0  0  0  0
  153.2423  135.3037  185.0699 C   0  0  0  0  0  0  0  0  0  0  0  0
  152.3986  134.3871  185.5636 N   0  0  0  0  0  0  0  0  0  0  0  0
  151.2566  134.9743  185.9223 C   0  0  0  0  0  0  0  0  0  0  0  0
  150.1199  134.4302  186.4871 C   0  0  0  0  0  0  0  0  0  0  0  0
  149.0730  135.2699  186.7844 C   0  0  0  0  0  0  0  0  0  0  0  0
  149.1546  136.6174  186.5269 C   0  0  0  0  0  0  0  0  0  0  0  0
  150.3005  137.1351  185.9615 C   0  0  0  0  0  0  0  0  0  0  0  0
  151.3889  136.3359  185.6380 C   0  0  0  0  0  0  0  0  0  0  0  0
  152.6461  133.3801  185.6354 H   0  0  0  0  0  0  0  0  0  0  0  0
 13 14  1  0  0  0
 14 15  1  0  0  0
 14 12  1  0  0  0
 12  6  1  0  0  0
  6  2  1  0  0  0
  2  3  1  0  0  0
  3  4  2  0  0  0
  3  1  1  0  0  0
  1 42  1  0  0  0
 42 43  1  0  0  0
 43 44  2  0  0  0
 44 45  1  0  0  0
 45 46  1  0  0  0
 46 47  2  0  0  0
 47 48  1  0  0  0
 48 49  2  0  0  0
 49 50  1  0  0  0
 50 51  2  0  0  0
  1 16  1  0  0  0
 16 17  1  0  0  0
 17 18  2  0  0  0
 17 20  1  0  0  0
 20 21  1  0  0  0
 21 22  1  0  0  0
 22 23  1  0  0  0
 23 24  1  0  0  0
 24 25  1  0  0  0
 25 26  2  0  0  0
 25 27  1  0  0  0
 27 28  1  0  0  0
 27 31  1  0  0  0
 31 32  1  0  0  0
 32 33  2  0  0  0
 33 34  1  0  0  0
 34 35  1  0  0  0
 35 36  2  0  0  0
 36 37  1  0  0  0
 37 38  2  0  0  0
 38 39  1  0  0  0
 39 40  2  0  0  0
  6  7  1  0  0  0
  7  8  1  0  0  0
  7  9  2  0  0  0
 51 43  1  0  0  0
 24 20  1  0  0  0
 40 32  1  0  0  0
 51 46  1  0  0  0
 40 35  1  0  0  0
  2  5  1  0  0  0
 45 52  1  0  0  0
 16 19  1  0  0  0
 28 29  1  0  0  0
 28 30  1  0  0  0
 34 41  1  0  0  0
  8 10  1  0  0  0
  8 11  1  0  0  0
M  END
> <minimizedAffinity>
-7.82872

> <CNNscore>
0.3091535866

> <CNNaffinity>
6.6041870117

> <CNN_VS>
2.0417079926

> <CNNaffinity_variance>
0.1651597768

$$$$
[H]c1c([H])c([H])c2c(c1[H])c(C([H])([H])[C@@]([H])(C(=O)N1C([H])([H])C([H])([H])C([H])([H])[C@@]1([H])C(=O)N([H])[C@]([H])(C(=O)N([H])[C@]([H])(C(=O)N([H])[H])C([H])([H])C([H])(C([H])([H])[H])C([H])([H])[H])C([H])([H])c1c([H])n([H])c3c([H])c([H])c([H])c([H])c13)N([H])[H])c([H])n2[H]


 52 56  0  0  0  0  0  0  0  0999 V2000
  156.7003  140.9773  183.6844 C   0  0  0  0  0  0  0  0  0  0  0  0
  158.0233  142.1316  181.8318 N   0  0  0  0  0  0  0  0  0  0  0  0
  156.8947  142.0556  182.6626 C   0  0  0  0  0  0  0  0  0  0  0  0
  155.9943  142.9273  182.5572 O   0  0  0  0  0  0  0  0  0  0  0  0
  158.7678  141.4072  181.9345 H   0  0  0  0  0  0  0  0  0  0  0  0
  158.1981  143.1972  180.8176 C   0  0  0  0  0  0  0  0  0  0  0  0
  158.2801  142.5022  179.5316 C   0  0  0  0  0  0  0  0  0  0  0  0
  157.4187  141.4440  179.1412 N   0  0  0  0  0  0  0  0  0  0  0  0
  159.1703  142.8435  178.6954 O   0  0  0  0  0  0  0  0  0  0  0  0
  157.0391  140.8099  179.8613 H   0  0  0  0  0  0  0  0  0  0  0  0
  157.1673  141.3000  178.1515 H   0  0  0  0  0  0  0  0  0  0  0  0
  159.4019  143.9648  181.2430 C   0  0  0  0  0  0  0  0  0  0  0  0
  160.0009  144.9347  183.4775 C   0  0  0  0  0  0  0  0  0  0  0  0
  159.2245  145.0931  182.1833 C   0  0  0  0  0  0  0  0  0  0  0  0
  157.8497  145.5661  182.4509 C   0  0  0  0  0  0  0  0  0  0  0  0
  155.7838  139.9760  183.2051 N   0  0  0  0  0  0  0  0  0  0  0  0
  154.3534  140.0723  183.3237 C   0  0  0  0  0  0  0  0  0  0  0  0
  153.9401  141.1003  183.8841 O   0  0  0  0  0  0  0  0  0  0  0  0
  156.1903  139.1390  182.7414 H   0  0  0  0  0  0  0  0  0  0  0  0
  153.5328  138.9988  182.8004 C   0  0  0  0  0  0  0  0  0  0  0  0
  152.2968  139.5888  182.0866 C   0  0  0  0  0  0  0  0  0  0  0  0
  151.3381  138.4535  182.0743 C   0  0  0  0  0  0  0  0  0  0  0  0
  151.9597  137.3336  182.8709 C   0  0  0  0  0  0  0  0  0  0  0  0
  152.9459  138.0540  183.6767 N   0  0  0  0  0  0  0  0  0  0  0  0
  153.2005  137.7030  185.0202 C   0  0  0  0  0  0  0  0  0  0  0  0
  154.1662  138.3129  185.6015 O   0  0  0  0  0  0  0  0  0  0  0  0
  152.4616  136.7032  185.7906 C   0  0  0  0  0  0  0  0  0  0  0  0
  153.5313  135.7859  186.3187 N   0  0  0  0  0  0  0  0  0  0  0  0
  154.2555  135.6659  185.5875 H   0  0  0  0  0  0  0  0  0  0  0  0
  153.0974  134.9109  186.6651 H   0  0  0  0  0  0  0  0  0  0  0  0
  151.7425  137.1300  187.0098 C   0  0  0  0  0  0  0  0  0  0  0  0
  152.1748  136.6611  188.3123 C   0  0  0  0  0  0  0  0  0  0  0  0
  151.6673  135.5696  189.0105 C   0  0  0  0  0  0  0  0  0  0  0  0
  152.3029  135.4868  190.1818 N   0  0  0  0  0  0  0  0  0  0  0  0
  153.2115  136.4705  190.2992 C   0  0  0  0  0  0  0  0  0  0  0  0
  154.1168  136.8217  191.2754 C   0  0  0  0  0  0  0  0  0  0  0  0
  154.9655  137.9076  191.1171 C   0  0  0  0  0  0  0  0  0  0  0  0
  154.9040  138.6468  189.9685 C   0  0  0  0  0  0  0  0  0  0  0  0
  153.9958  138.2904  188.9965 C   0  0  0  0  0  0  0  0  0  0  0  0
  153.1388  137.2094  189.1359 C   0  0  0  0  0  0  0  0  0  0  0  0
  152.1624  134.7764  190.9536 H   0  0  0  0  0  0  0  0  0  0  0  0
  158.0662  140.3789  184.0090 C   0  0  0  0  0  0  0  0  0  0  0  0
  158.8469  141.1043  184.9934 C   0  0  0  0  0  0  0  0  0  0  0  0
  158.4078  141.5681  186.2401 C   0  0  0  0  0  0  0  0  0  0  0  0
  159.4020  142.2326  186.8450 N   0  0  0  0  0  0  0  0  0  0  0  0
  160.4825  142.2334  186.0639 C   0  0  0  0  0  0  0  0  0  0  0  0
  161.7325  142.7785  186.2815 C   0  0  0  0  0  0  0  0  0  0  0  0
  162.6921  142.6189  185.3103 C   0  0  0  0  0  0  0  0  0  0  0  0
  162.4156  141.9337  184.1515 C   0  0  0  0  0  0  0  0  0  0  0  0
  161.1591  141.4001  183.9586 C   0  0  0  0  0  0  0  0  0  0  0  0
  160.1496  141.5309  184.9029 C   0  0  0  0  0  0  0  0  0  0  0  0
  159.2958  142.6645  187.7845 H   0  0  0  0  0  0  0  0  0  0  0  0
 13 14  1  0  0  0
 14 15  1  0  0  0
 14 12  1  0  0  0
 12  6  1  0  0  0
  6  2  1  0  0  0
  2  3  1  0  0  0
  3  4  2  0  0  0
  3  1  1  0  0  0
  1 42  1  0  0  0
 42 43  1  0  0  0
 43 44  2  0  0  0
 44 45  1  0  0  0
 45 46  1  0  0  0
 46 47  2  0  0  0
 47 48  1  0  0  0
 48 49  2  0  0  0
 49 50  1  0  0  0
 50 51  2  0  0  0
  1 16  1  0  0  0
 16 17  1  0  0  0
 17 18  2  0  0  0
 17 20  1  0  0  0
 20 21  1  0  0  0
 21 22  1  0  0  0
 22 23  1  0  0  0
 23 24  1  0  0  0
 24 25  1  0  0  0
 25 26  2  0  0  0
 25 27  1  0  0  0
 27 28  1  0  0  0
 27 31  1  0  0  0
 31 32  1  0  0  0
 32 33  2  0  0  0
 33 34  1  0  0  0
 34 35  1  0  0  0
 35 36  2  0  0  0
 36 37  1  0  0  0
 37 38  2  0  0  0
 38 39  1  0  0  0
 39 40  2  0  0  0
  6  7  1  0  0  0
  7  8  1  0  0  0
  7  9  2  0  0  0
 51 43  1  0  0  0
 24 20  1  0  0  0
 40 32  1  0  0  0
 51 46  1  0  0  0
 40 35  1  0  0  0
  2  5  1  0  0  0
 45 52  1  0  0  0
 16 19  1  0  0  0
 28 29  1  0  0  0
 28 30  1  0  0  0
 34 41  1  0  0  0
  8 10  1  0  0  0
  8 11  1  0  0  0
M  END
> <minimizedAffinity>
-9.52356

> <CNNscore>
0.3055535257

> <CNNaffinity>
7.1529402733

> <CNN_VS>
2.1856060028

> <CNNaffinity_variance>
0.4778928757

$$$$
[H]c1c([H])c([H])c2c(c1[H])c(C([H])([H])[C@@]([H])(C(=O)N1C([H])([H])C([H])([H])C([H])([H])[C@@]1([H])C(=O)N([H])[C@]([H])(C(=O)N([H])[C@]([H])(C(=O)N([H])[H])C([H])([H])C([H])(C([H])([H])[H])C([H])([H])[H])C([H])([H])c1c([H])n([H])c3c([H])c([H])c([H])c([H])c13)N([H])[H])c([H])n2[H]


 52 56  0  0  0  0  0  0  0  0999 V2000
  154.1250  136.4263  186.7124 C   0  0  0  0  0  0  0  0  0  0  0  0
  153.2210  135.1762  188.7458 N   0  0  0  0  0  0  0  0  0  0  0  0
  153.2168  136.2935  187.8965 C   0  0  0  0  0  0  0  0  0  0  0  0
  152.4175  137.2369  188.1262 O   0  0  0  0  0  0  0  0  0  0  0  0
  153.8830  134.3958  188.5400 H   0  0  0  0  0  0  0  0  0  0  0  0
  152.3250  135.0623  189.9201 C   0  0  0  0  0  0  0  0  0  0  0  0
  151.0053  134.7405  189.3740 C   0  0  0  0  0  0  0  0  0  0  0  0
  149.9184  135.6519  189.3269 N   0  0  0  0  0  0  0  0  0  0  0  0
  150.7895  133.5799  188.9107 O   0  0  0  0  0  0  0  0  0  0  0  0
  149.8305  136.3716  190.0611 H   0  0  0  0  0  0  0  0  0  0  0  0
  149.2174  135.6058  188.5719 H   0  0  0  0  0  0  0  0  0  0  0  0
  152.4517  136.3545  190.6505 C   0  0  0  0  0  0  0  0  0  0  0  0
  153.2272  135.0813  192.6679 C   0  0  0  0  0  0  0  0  0  0  0  0
  152.5473  136.3253  192.1265 C   0  0  0  0  0  0  0  0  0  0  0  0
  151.3336  136.6421  192.9087 C   0  0  0  0  0  0  0  0  0  0  0  0
  153.7753  137.5795  185.9249 N   0  0  0  0  0  0  0  0  0  0  0  0
  153.7195  137.5849  184.4874 C   0  0  0  0  0  0  0  0  0  0  0  0
  154.0025  136.5039  183.9461 O   0  0  0  0  0  0  0  0  0  0  0  0
  153.5452  138.4551  186.4359 H   0  0  0  0  0  0  0  0  0  0  0  0
  153.3526  138.8092  183.8048 C   0  0  0  0  0  0  0  0  0  0  0  0
  152.9029  138.4866  182.3629 C   0  0  0  0  0  0  0  0  0  0  0  0
  153.0631  139.7854  181.6590 C   0  0  0  0  0  0  0  0  0  0  0  0
  153.7071  140.7442  182.6291 C   0  0  0  0  0  0  0  0  0  0  0  0
  154.3138  139.8274  183.5945 N   0  0  0  0  0  0  0  0  0  0  0  0
  155.5764  140.0892  184.1692 C   0  0  0  0  0  0  0  0  0  0  0  0
  155.9656  139.2903  185.0926 O   0  0  0  0  0  0  0  0  0  0  0  0
  156.4629  141.1933  183.8029 C   0  0  0  0  0  0  0  0  0  0  0  0
  155.5535  142.3914  183.7571 N   0  0  0  0  0  0  0  0  0  0  0  0
  154.6440  142.1019  183.3542 H   0  0  0  0  0  0  0  0  0  0  0  0
  156.0309  143.1702  183.2676 H   0  0  0  0  0  0  0  0  0  0  0  0
  157.5224  141.6022  184.7495 C   0  0  0  0  0  0  0  0  0  0  0  0
  158.9132  141.5828  184.3389 C   0  0  0  0  0  0  0  0  0  0  0  0
  159.4156  141.0945  183.1366 C   0  0  0  0  0  0  0  0  0  0  0  0
  160.7444  141.2239  183.1521 N   0  0  0  0  0  0  0  0  0  0  0  0
  161.1539  141.7760  184.3073 C   0  0  0  0  0  0  0  0  0  0  0  0
  162.3853  142.1281  184.8129 C   0  0  0  0  0  0  0  0  0  0  0  0
  162.5124  142.7119  186.0649 C   0  0  0  0  0  0  0  0  0  0  0  0
  161.3931  142.9440  186.8151 C   0  0  0  0  0  0  0  0  0  0  0  0
  160.1648  142.5889  186.3036 C   0  0  0  0  0  0  0  0  0  0  0  0
  160.0167  142.0039  185.0553 C   0  0  0  0  0  0  0  0  0  0  0  0
  161.4371  140.9519  182.3996 H   0  0  0  0  0  0  0  0  0  0  0  0
  155.5610  136.5092  187.2224 C   0  0  0  0  0  0  0  0  0  0  0  0
  155.7113  136.9644  188.5917 C   0  0  0  0  0  0  0  0  0  0  0  0
  155.4879  138.2592  189.0774 C   0  0  0  0  0  0  0  0  0  0  0  0
  155.7769  138.3018  190.3852 N   0  0  0  0  0  0  0  0  0  0  0  0
  156.1805  137.0992  190.7957 C   0  0  0  0  0  0  0  0  0  0  0  0
  156.5621  136.6743  192.0531 C   0  0  0  0  0  0  0  0  0  0  0  0
  156.9194  135.3570  192.2161 C   0  0  0  0  0  0  0  0  0  0  0  0
  156.8975  134.4837  191.1551 C   0  0  0  0  0  0  0  0  0  0  0  0
  156.5135  134.9338  189.9098 C   0  0  0  0  0  0  0  0  0  0  0  0
  156.1439  136.2531  189.6844 C   0  0  0  0  0  0  0  0  0  0  0  0
  155.6830  139.1688  190.9510 H   0  0  0  0  0  0  0  0  0  0  0  0
 13 14  1  0  0  0
 14 15  1  0  0  0
 14 12  1  0  0  0
 12  6  1  0  0  0
  6  2  1  0  0  0
  2  3  1  0  0  0
  3  4  2  0  0  0
  3  1  1  0  0  0
  1 42  1  0  0  0
 42 43  1  0  0  0
 43 44  2  0  0  0
 44 45  1  0  0  0
 45 46  1  0  0  0
 46 47  2  0  0  0
 47 48  1  0  0  0
 48 49  2  0  0  0
 49 50  1  0  0  0
 50 51  2  0  0  0
  1 16  1  0  0  0
 16 17  1  0  0  0
 17 18  2  0  0  0
 17 20  1  0  0  0
 20 21  1  0  0  0
 21 22  1  0  0  0
 22 23  1  0  0  0
 23 24  1  0  0  0
 24 25  1  0  0  0
 25 26  2  0  0  0
 25 27  1  0  0  0
 27 28  1  0  0  0
 27 31  1  0  0  0
 31 32  1  0  0  0
 32 33  2  0  0  0
 33 34  1  0  0  0
 34 35  1  0  0  0
 35 36  2  0  0  0
 36 37  1  0  0  0
 37 38  2  0  0  0
 38 39  1  0  0  0
 39 40  2  0  0  0
  6  7  1  0  0  0
  7  8  1  0  0  0
  7  9  2  0  0  0
 51 43  1  0  0  0
 24 20  1  0  0  0
 40 32  1  0  0  0
 51 46  1  0  0  0
 40 35  1  0  0  0
  2  5  1  0  0  0
 45 52  1  0  0  0
 16 19  1  0  0  0
 28 29  1  0  0  0
 28 30  1  0  0  0
 34 41  1  0  0  0
  8 10  1  0  0  0
  8 11  1  0  0  0
M  END
> <minimizedAffinity>
-9.08364

> <CNNscore>
0.2817637026

> <CNNaffinity>
7.0417466164

> <CNN_VS>
1.9841085672

> <CNNaffinity_variance>
0.1306869984

$$$$
[H]c1c([H])c([H])c2c(c1[H])c(C([H])([H])[C@@]([H])(C(=O)N1C([H])([H])C([H])([H])C([H])([H])[C@@]1([H])C(=O)N([H])[C@]([H])(C(=O)N([H])[C@]([H])(C(=O)N([H])[H])C([H])([H])C([H])(C([H])([H])[H])C([H])([H])[H])C([H])([H])c1c([H])n([H])c3c([H])c([H])c([H])c([H])c13)N([H])[H])c([H])n2[H]


 52 56  0  0  0  0  0  0  0  0999 V2000
  156.8885  139.9474  184.6625 C   0  0  0  0  0  0  0  0  0  0  0  0
  156.1236  142.2218  183.7922 N   0  0  0  0  0  0  0  0  0  0  0  0
  156.4578  140.8770  183.5693 C   0  0  0  0  0  0  0  0  0  0  0  0
  156.3974  140.4142  182.4015 O   0  0  0  0  0  0  0  0  0  0  0  0
  156.1695  142.5920  184.7671 H   0  0  0  0  0  0  0  0  0  0  0  0
  155.7097  143.1333  182.7002 C   0  0  0  0  0  0  0  0  0  0  0  0
  154.2766  142.8970  182.5168 C   0  0  0  0  0  0  0  0  0  0  0  0
  153.7245  141.6817  182.0345 N   0  0  0  0  0  0  0  0  0  0  0  0
  153.4529  143.8204  182.7943 O   0  0  0  0  0  0  0  0  0  0  0  0
  154.2646  141.1125  181.3644 H   0  0  0  0  0  0  0  0  0  0  0  0
  152.7945  141.3601  182.3430 H   0  0  0  0  0  0  0  0  0  0  0  0
  156.5958  142.8094  181.5473 C   0  0  0  0  0  0  0  0  0  0  0  0
  158.7221  143.1704  180.2663 C   0  0  0  0  0  0  0  0  0  0  0  0
  157.6803  143.7547  181.2022 C   0  0  0  0  0  0  0  0  0  0  0  0
  158.3243  144.5056  182.3007 C   0  0  0  0  0  0  0  0  0  0  0  0
  156.0100  138.8099  184.7439 N   0  0  0  0  0  0  0  0  0  0  0  0
  154.5745  138.9017  184.7563 C   0  0  0  0  0  0  0  0  0  0  0  0
  154.1207  140.0557  184.6941 O   0  0  0  0  0  0  0  0  0  0  0  0
  156.4498  137.8690  184.7902 H   0  0  0  0  0  0  0  0  0  0  0  0
  153.7949  137.6831  184.8400 C   0  0  0  0  0  0  0  0  0  0  0  0
  152.4141  137.9024  184.1838 C   0  0  0  0  0  0  0  0  0  0  0  0
  151.5810  136.8251  184.7785 C   0  0  0  0  0  0  0  0  0  0  0  0
  152.4220  136.1328  185.8218 C   0  0  0  0  0  0  0  0  0  0  0  0
  153.4415  137.1445  186.1009 N   0  0  0  0  0  0  0  0  0  0  0  0
  153.9272  137.3627  187.4084 C   0  0  0  0  0  0  0  0  0  0  0  0
  154.9039  138.1834  187.5303 O   0  0  0  0  0  0  0  0  0  0  0  0
  153.4139  136.7268  188.6213 C   0  0  0  0  0  0  0  0  0  0  0  0
  154.2848  135.5116  188.7928 N   0  0  0  0  0  0  0  0  0  0  0  0
  154.4804  135.1096  187.8582 H   0  0  0  0  0  0  0  0  0  0  0  0
  153.8473  134.8650  189.4742 H   0  0  0  0  0  0  0  0  0  0  0  0
  153.5535  137.4343  189.9120 C   0  0  0  0  0  0  0  0  0  0  0  0
  153.5634  136.6872  191.1549 C   0  0  0  0  0  0  0  0  0  0  0  0
  154.6805  136.1615  191.7969 C   0  0  0  0  0  0  0  0  0  0  0  0
  154.2717  135.5153  192.8915 N   0  0  0  0  0  0  0  0  0  0  0  0
  152.9347  135.5847  193.0119 C   0  0  0  0  0  0  0  0  0  0  0  0
  152.0344  135.1116  193.9400 C   0  0  0  0  0  0  0  0  0  0  0  0
  150.6740  135.3537  193.8160 C   0  0  0  0  0  0  0  0  0  0  0  0
  150.2145  136.0770  192.7507 C   0  0  0  0  0  0  0  0  0  0  0  0
  151.1203  136.5467  191.8259 C   0  0  0  0  0  0  0  0  0  0  0  0
  152.4832  136.3151  191.9315 C   0  0  0  0  0  0  0  0  0  0  0  0
  154.8597  135.0004  193.6051 H   0  0  0  0  0  0  0  0  0  0  0  0
  158.3291  139.5257  184.3872 C   0  0  0  0  0  0  0  0  0  0  0  0
  159.2572  140.6098  184.1258 C   0  0  0  0  0  0  0  0  0  0  0  0
  159.8754  140.9127  182.9058 C   0  0  0  0  0  0  0  0  0  0  0  0
  160.7005  141.9558  183.0700 N   0  0  0  0  0  0  0  0  0  0  0  0
  160.6619  142.3642  184.3386 C   0  0  0  0  0  0  0  0  0  0  0  0
  161.3285  143.4047  184.9550 C   0  0  0  0  0  0  0  0  0  0  0  0
  161.0929  143.6306  186.2903 C   0  0  0  0  0  0  0  0  0  0  0  0
  160.2157  142.8415  186.9951 C   0  0  0  0  0  0  0  0  0  0  0  0
  159.5638  141.8084  186.3560 C   0  0  0  0  0  0  0  0  0  0  0  0
  159.7630  141.5314  185.0101 C   0  0  0  0  0  0  0  0  0  0  0  0
  161.2646  142.3508  182.2913 H   0  0  0  0  0  0  0  0  0  0  0  0
 13 14  1  0  0  0
 14 15  1  0  0  0
 14 12  1  0  0  0
 12  6  1  0  0  0
  6  2  1  0  0  0
  2  3  1  0  0  0
  3  4  2  0  0  0
  3  1  1  0  0  0
  1 42  1  0  0  0
 42 43  1  0  0  0
 43 44  2  0  0  0
 44 45  1  0  0  0
 45 46  1  0  0  0
 46 47  2  0  0  0
 47 48  1  0  0  0
 48 49  2  0  0  0
 49 50  1  0  0  0
 50 51  2  0  0  0
  1 16  1  0  0  0
 16 17  1  0  0  0
 17 18  2  0  0  0
 17 20  1  0  0  0
 20 21  1  0  0  0
 21 22  1  0  0  0
 22 23  1  0  0  0
 23 24  1  0  0  0
 24 25  1  0  0  0
 25 26  2  0  0  0
 25 27  1  0  0  0
 27 28  1  0  0  0
 27 31  1  0  0  0
 31 32  1  0  0  0
 32 33  2  0  0  0
 33 34  1  0  0  0
 34 35  1  0  0  0
 35 36  2  0  0  0
 36 37  1  0  0  0
 37 38  2  0  0  0
 38 39  1  0  0  0
 39 40  2  0  0  0
  6  7  1  0  0  0
  7  8  1  0  0  0
  7  9  2  0  0  0
 51 43  1  0  0  0
 24 20  1  0  0  0
 40 32  1  0  0  0
 51 46  1  0  0  0
 40 35  1  0  0  0
  2  5  1  0  0  0
 45 52  1  0  0  0
 16 19  1  0  0  0
 28 29  1  0  0  0
 28 30  1  0  0  0
 34 41  1  0  0  0
  8 10  1  0  0  0
  8 11  1  0  0  0
M  END
> <minimizedAffinity>
-9.32787

> <CNNscore>
0.2767169774

> <CNNaffinity>
6.7438812256

> <CNN_VS>
1.8661464453

> <CNNaffinity_variance>
0.3020886779

$$$$
[H]c1c([H])c([H])c2c(c1[H])c(C([H])([H])[C@@]([H])(C(=O)N1C([H])([H])C([H])([H])C([H])([H])[C@@]1([H])C(=O)N([H])[C@]([H])(C(=O)N([H])[C@]([H])(C(=O)N([H])[H])C([H])([H])C([H])(C([H])([H])[H])C([H])([H])[H])C([H])([H])c1c([H])n([H])c3c([H])c([H])c([H])c([H])c13)N([H])[H])c([H])n2[H]


 52 56  0  0  0  0  0  0  0  0999 V2000
  154.2891  137.9416  185.0509 C   0  0  0  0  0  0  0  0  0  0  0  0
  156.2048  139.4680  184.3331 N   0  0  0  0  0  0  0  0  0  0  0  0
  154.9118  138.9568  184.1419 C   0  0  0  0  0  0  0  0  0  0  0  0
  154.2295  139.3605  183.1656 O   0  0  0  0  0  0  0  0  0  0  0  0
  156.7581  139.1315  185.1518 H   0  0  0  0  0  0  0  0  0  0  0  0
  156.8129  140.4637  183.4203 C   0  0  0  0  0  0  0  0  0  0  0  0
  158.2020  140.0356  183.2454 C   0  0  0  0  0  0  0  0  0  0  0  0
  159.2868  140.5100  184.0280 N   0  0  0  0  0  0  0  0  0  0  0  0
  158.4840  139.1913  182.3421 O   0  0  0  0  0  0  0  0  0  0  0  0
  159.2583  141.4719  184.4003 H   0  0  0  0  0  0  0  0  0  0  0  0
  160.1005  139.9093  184.2295 H   0  0  0  0  0  0  0  0  0  0  0  0
  156.5958  141.7884  184.0665 C   0  0  0  0  0  0  0  0  0  0  0  0
  154.5500  142.7757  183.0024 C   0  0  0  0  0  0  0  0  0  0  0  0
  156.0428  142.8909  183.2495 C   0  0  0  0  0  0  0  0  0  0  0  0
  156.7532  143.2598  182.0067 C   0  0  0  0  0  0  0  0  0  0  0  0
  154.3614  138.3697  186.4234 N   0  0  0  0  0  0  0  0  0  0  0  0
  155.1242  137.6927  187.4379 C   0  0  0  0  0  0  0  0  0  0  0  0
  155.7345  136.6830  187.0510 O   0  0  0  0  0  0  0  0  0  0  0  0
  153.8311  139.2246  186.6859 H   0  0  0  0  0  0  0  0  0  0  0  0
  155.1205  138.2209  188.7872 C   0  0  0  0  0  0  0  0  0  0  0  0
  156.5222  138.0570  189.4144 C   0  0  0  0  0  0  0  0  0  0  0  0
  156.2525  138.1367  190.8735 C   0  0  0  0  0  0  0  0  0  0  0  0
  154.7557  138.1972  191.0497 C   0  0  0  0  0  0  0  0  0  0  0  0
  154.2844  137.6500  189.7772 N   0  0  0  0  0  0  0  0  0  0  0  0
  153.1588  136.8005  189.7100 C   0  0  0  0  0  0  0  0  0  0  0  0
  152.7536  136.4731  188.5390 O   0  0  0  0  0  0  0  0  0  0  0  0
  152.4218  136.2762  190.8592 C   0  0  0  0  0  0  0  0  0  0  0  0
  151.0848  135.8871  190.2885 N   0  0  0  0  0  0  0  0  0  0  0  0
  150.8083  136.5923  189.5817 H   0  0  0  0  0  0  0  0  0  0  0  0
  150.4086  135.7392  191.0597 H   0  0  0  0  0  0  0  0  0  0  0  0
  152.8951  135.0327  191.5038 C   0  0  0  0  0  0  0  0  0  0  0  0
  153.7255  134.1003  190.7660 C   0  0  0  0  0  0  0  0  0  0  0  0
  153.2847  133.1010  189.9037 C   0  0  0  0  0  0  0  0  0  0  0  0
  154.3502  132.4370  189.4492 N   0  0  0  0  0  0  0  0  0  0  0  0
  155.4821  132.9455  189.9662 C   0  0  0  0  0  0  0  0  0  0  0  0
  156.8177  132.6449  189.8185 C   0  0  0  0  0  0  0  0  0  0  0  0
  157.7987  133.3677  190.4817 C   0  0  0  0  0  0  0  0  0  0  0  0
  157.4348  134.4009  191.2999 C   0  0  0  0  0  0  0  0  0  0  0  0
  156.0973  134.6957  191.4435 C   0  0  0  0  0  0  0  0  0  0  0  0
  155.1019  133.9852  190.7901 C   0  0  0  0  0  0  0  0  0  0  0  0
  154.3739  131.6190  188.7782 H   0  0  0  0  0  0  0  0  0  0  0  0
  152.8454  137.7270  184.6050 C   0  0  0  0  0  0  0  0  0  0  0  0
  152.2189  136.5096  185.0847 C   0  0  0  0  0  0  0  0  0  0  0  0
  152.6991  135.2019  184.9382 C   0  0  0  0  0  0  0  0  0  0  0  0
  151.8214  134.3413  185.4719 N   0  0  0  0  0  0  0  0  0  0  0  0
  150.7805  135.0106  185.9682 C   0  0  0  0  0  0  0  0  0  0  0  0
  149.6552  134.5435  186.6182 C   0  0  0  0  0  0  0  0  0  0  0  0
  148.7272  135.4585  187.0554 C   0  0  0  0  0  0  0  0  0  0  0  0
  148.9137  136.8048  186.8514 C   0  0  0  0  0  0  0  0  0  0  0  0
  150.0456  137.2448  186.1986 C   0  0  0  0  0  0  0  0  0  0  0  0
  151.0162  136.3677  185.7332 C   0  0  0  0  0  0  0  0  0  0  0  0
  151.9762  133.3134  185.4738 H   0  0  0  0  0  0  0  0  0  0  0  0
 13 14  1  0  0  0
 14 15  1  0  0  0
 14 12  1  0  0  0
 12  6  1  0  0  0
  6  2  1  0  0  0
  2  3  1  0  0  0
  3  4  2  0  0  0
  3  1  1  0  0  0
  1 42  1  0  0  0
 42 43  1  0  0  0
 43 44  2  0  0  0
 44 45  1  0  0  0
 45 46  1  0  0  0
 46 47  2  0  0  0
 47 48  1  0  0  0
 48 49  2  0  0  0
 49 50  1  0  0  0
 50 51  2  0  0  0
  1 16  1  0  0  0
 16 17  1  0  0  0
 17 18  2  0  0  0
 17 20  1  0  0  0
 20 21  1  0  0  0
 21 22  1  0  0  0
 22 23  1  0  0  0
 23 24  1  0  0  0
 24 25  1  0  0  0
 25 26  2  0  0  0
 25 27  1  0  0  0
 27 28  1  0  0  0
 27 31  1  0  0  0
 31 32  1  0  0  0
 32 33  2  0  0  0
 33 34  1  0  0  0
 34 35  1  0  0  0
 35 36  2  0  0  0
 36 37  1  0  0  0
 37 38  2  0  0  0
 38 39  1  0  0  0
 39 40  2  0  0  0
  6  7  1  0  0  0
  7  8  1  0  0  0
  7  9  2  0  0  0
 51 43  1  0  0  0
 24 20  1  0  0  0
 40 32  1  0  0  0
 51 46  1  0  0  0
 40 35  1  0  0  0
  2  5  1  0  0  0
 45 52  1  0  0  0
 16 19  1  0  0  0
 28 29  1  0  0  0
 28 30  1  0  0  0
 34 41  1  0  0  0
  8 10  1  0  0  0
  8 11  1  0  0  0
M  END
> <minimizedAffinity>
-6.96190

> <CNNscore>
0.2444974929

> <CNNaffinity>
6.5112457275

> <CNN_VS>
1.5919831991

> <CNNaffinity_variance>
0.3699139059

$$$$
[H]c1c([H])c([H])c2c(c1[H])c(C([H])([H])[C@@]([H])(C(=O)N1C([H])([H])C([H])([H])C([H])([H])[C@@]1([H])C(=O)N([H])[C@]([H])(C(=O)N([H])[C@]([H])(C(=O)N([H])[H])C([H])([H])C([H])(C([H])([H])[H])C([H])([H])[H])C([H])([H])c1c([H])n([H])c3c([H])c([H])c([H])c([H])c13)N([H])[H])c([H])n2[H]


 52 56  0  0  0  0  0  0  0  0999 V2000
  154.5769  138.0280  184.5745 C   0  0  0  0  0  0  0  0  0  0  0  0
  153.5984  137.4717  186.8654 N   0  0  0  0  0  0  0  0  0  0  0  0
  154.7028  137.6370  186.0153 C   0  0  0  0  0  0  0  0  0  0  0  0
  155.8610  137.4525  186.4696 O   0  0  0  0  0  0  0  0  0  0  0  0
  152.6427  137.6359  186.4789 H   0  0  0  0  0  0  0  0  0  0  0  0
  153.7363  137.0741  188.2857 C   0  0  0  0  0  0  0  0  0  0  0  0
  152.5117  136.3382  188.6056 C   0  0  0  0  0  0  0  0  0  0  0  0
  151.7961  135.5394  187.6761 N   0  0  0  0  0  0  0  0  0  0  0  0
  152.0348  136.4036  189.7788 O   0  0  0  0  0  0  0  0  0  0  0  0
  151.8005  135.7999  186.6776 H   0  0  0  0  0  0  0  0  0  0  0  0
  151.2735  134.7049  187.9828 H   0  0  0  0  0  0  0  0  0  0  0  0
  153.9743  138.3385  189.0368 C   0  0  0  0  0  0  0  0  0  0  0  0
  156.0176  137.1725  189.9073 C   0  0  0  0  0  0  0  0  0  0  0  0
  155.1717  138.4323  189.9007 C   0  0  0  0  0  0  0  0  0  0  0  0
  155.0007  138.9563  191.2723 C   0  0  0  0  0  0  0  0  0  0  0  0
  153.5120  137.2990  183.9367 N   0  0  0  0  0  0  0  0  0  0  0  0
  153.3589  135.8705  184.0099 C   0  0  0  0  0  0  0  0  0  0  0  0
  154.2276  135.2817  184.6734 O   0  0  0  0  0  0  0  0  0  0  0  0
  152.8129  137.8483  183.3978 H   0  0  0  0  0  0  0  0  0  0  0  0
  152.2429  135.2492  183.3256 C   0  0  0  0  0  0  0  0  0  0  0  0
  152.4591  135.3285  181.7985 C   0  0  0  0  0  0  0  0  0  0  0  0
  151.0882  135.1543  181.2523 C   0  0  0  0  0  0  0  0  0  0  0  0
  150.1394  135.1243  182.4245 C   0  0  0  0  0  0  0  0  0  0  0  0
  150.9349  135.7727  183.4673 N   0  0  0  0  0  0  0  0  0  0  0  0
  150.3504  136.6565  184.4001 C   0  0  0  0  0  0  0  0  0  0  0  0
  151.1055  137.0768  185.3465 O   0  0  0  0  0  0  0  0  0  0  0  0
  148.9633  137.1196  184.3762 C   0  0  0  0  0  0  0  0  0  0  0  0
  148.6218  137.3238  185.8275 N   0  0  0  0  0  0  0  0  0  0  0  0
  149.0656  136.5693  186.3816 H   0  0  0  0  0  0  0  0  0  0  0  0
  147.5945  137.4099  185.9329 H   0  0  0  0  0  0  0  0  0  0  0  0
  148.6590  138.4305  183.7639 C   0  0  0  0  0  0  0  0  0  0  0  0
  148.8210  138.6227  182.3356 C   0  0  0  0  0  0  0  0  0  0  0  0
  147.8400  138.4641  181.3615 C   0  0  0  0  0  0  0  0  0  0  0  0
  148.3902  138.6986  180.1678 N   0  0  0  0  0  0  0  0  0  0  0  0
  149.6922  139.0071  180.2979 C   0  0  0  0  0  0  0  0  0  0  0  0
  150.6879  139.3383  179.4065 C   0  0  0  0  0  0  0  0  0  0  0  0
  151.9740  139.6316  179.8359 C   0  0  0  0  0  0  0  0  0  0  0  0
  152.2620  139.5919  181.1719 C   0  0  0  0  0  0  0  0  0  0  0  0
  151.2615  139.2593  182.0579 C   0  0  0  0  0  0  0  0  0  0  0  0
  149.9705  138.9622  181.6488 C   0  0  0  0  0  0  0  0  0  0  0  0
  147.9282  138.6641  179.2163 H   0  0  0  0  0  0  0  0  0  0  0  0
  154.3430  139.5347  184.5100 C   0  0  0  0  0  0  0  0  0  0  0  0
  155.4290  140.3107  183.9414 C   0  0  0  0  0  0  0  0  0  0  0  0
  156.7852  139.9619  183.9084 C   0  0  0  0  0  0  0  0  0  0  0  0
  157.4878  140.9531  183.3429 N   0  0  0  0  0  0  0  0  0  0  0  0
  156.6669  141.9448  182.9961 C   0  0  0  0  0  0  0  0  0  0  0  0
  156.9429  143.1474  182.3759 C   0  0  0  0  0  0  0  0  0  0  0  0
  155.8972  143.9981  182.1074 C   0  0  0  0  0  0  0  0  0  0  0  0
  154.6087  143.6612  182.4469 C   0  0  0  0  0  0  0  0  0  0  0  0
  154.3605  142.4547  183.0663 C   0  0  0  0  0  0  0  0  0  0  0  0
  155.3763  141.5562  183.3642 C   0  0  0  0  0  0  0  0  0  0  0  0
  158.5185  140.9065  183.2162 H   0  0  0  0  0  0  0  0  0  0  0  0
 13 14  1  0  0  0
 14 15  1  0  0  0
 14 12  1  0  0  0
 12  6  1  0  0  0
  6  2  1  0  0  0
  2  3  1  0  0  0
  3  4  2  0  0  0
  3  1  1  0  0  0
  1 42  1  0  0  0
 42 43  1  0  0  0
 43 44  2  0  0  0
 44 45  1  0  0  0
 45 46  1  0  0  0
 46 47  2  0  0  0
 47 48  1  0  0  0
 48 49  2  0  0  0
 49 50  1  0  0  0
 50 51  2  0  0  0
  1 16  1  0  0  0
 16 17  1  0  0  0
 17 18  2  0  0  0
 17 20  1  0  0  0
 20 21  1  0  0  0
 21 22  1  0  0  0
 22 23  1  0  0  0
 23 24  1  0  0  0
 24 25  1  0  0  0
 25 26  2  0  0  0
 25 27  1  0  0  0
 27 28  1  0  0  0
 27 31  1  0  0  0
 31 32  1  0  0  0
 32 33  2  0  0  0
 33 34  1  0  0  0
 34 35  1  0  0  0
 35 36  2  0  0  0
 36 37  1  0  0  0
 37 38  2  0  0  0
 38 39  1  0  0  0
 39 40  2  0  0  0
  6  7  1  0  0  0
  7  8  1  0  0  0
  7  9  2  0  0  0
 51 43  1  0  0  0
 24 20  1  0  0  0
 40 32  1  0  0  0
 51 46  1  0  0  0
 40 35  1  0  0  0
  2  5  1  0  0  0
 45 52  1  0  0  0
 16 19  1  0  0  0
 28 29  1  0  0  0
 28 30  1  0  0  0
 34 41  1  0  0  0
  8 10  1  0  0  0
  8 11  1  0  0  0
M  END
> <minimizedAffinity>
-8.20684

> <CNNscore>
0.2408562303

> <CNNaffinity>
6.4687371254

> <CNN_VS>
1.5580356121

> <CNNaffinity_variance>
0.5517122149

$$$$
[H]c1c([H])c([H])c2c(c1[H])c(C([H])([H])[C@@]([H])(C(=O)N1C([H])([H])C([H])([H])C([H])([H])[C@@]1([H])C(=O)N([H])[C@]([H])(C(=O)N([H])[C@]([H])(C(=O)N([H])[H])C([H])([H])C([H])(C([H])([H])[H])C([H])([H])[H])C([H])([H])c1c([H])n([H])c3c([H])c([H])c([H])c([H])c13)N([H])[H])c([H])n2[H]


 52 56  0  0  0  0  0  0  0  0999 V2000
  154.6216  138.3514  185.0422 C   0  0  0  0  0  0  0  0  0  0  0  0
  156.8655  139.4611  184.5434 N   0  0  0  0  0  0  0  0  0  0  0  0
  155.4629  139.4619  184.4913 C   0  0  0  0  0  0  0  0  0  0  0  0
  154.8683  140.4348  183.9604 O   0  0  0  0  0  0  0  0  0  0  0  0
  157.3472  138.6521  184.9939 H   0  0  0  0  0  0  0  0  0  0  0  0
  157.6860  140.5608  183.9848 C   0  0  0  0  0  0  0  0  0  0  0  0
  157.8143  140.2653  182.5567 C   0  0  0  0  0  0  0  0  0  0  0  0
  157.0175  140.8613  181.5447 N   0  0  0  0  0  0  0  0  0  0  0  0
  158.6813  139.4241  182.1706 O   0  0  0  0  0  0  0  0  0  0  0  0
  156.0470  141.1360  181.7623 H   0  0  0  0  0  0  0  0  0  0  0  0
  157.3931  141.0236  180.5980 H   0  0  0  0  0  0  0  0  0  0  0  0
  158.9437  140.5707  184.7832 C   0  0  0  0  0  0  0  0  0  0  0  0
  160.8473  142.1799  184.5020 C   0  0  0  0  0  0  0  0  0  0  0  0
  159.5217  141.8751  185.1748 C   0  0  0  0  0  0  0  0  0  0  0  0
  159.5751  142.2085  186.6140 C   0  0  0  0  0  0  0  0  0  0  0  0
  154.4172  138.5168  186.4575 N   0  0  0  0  0  0  0  0  0  0  0  0
  155.2935  137.9811  187.4647 C   0  0  0  0  0  0  0  0  0  0  0  0
  156.2667  137.3440  187.0303 O   0  0  0  0  0  0  0  0  0  0  0  0
  153.5859  139.0634  186.7595 H   0  0  0  0  0  0  0  0  0  0  0  0
  154.9832  138.2155  188.8605 C   0  0  0  0  0  0  0  0  0  0  0  0
  156.2780  138.1503  189.6998 C   0  0  0  0  0  0  0  0  0  0  0  0
  155.7785  137.8871  191.0743 C   0  0  0  0  0  0  0  0  0  0  0  0
  154.2886  137.6734  190.9762 C   0  0  0  0  0  0  0  0  0  0  0  0
  154.1301  137.3300  189.5628 N   0  0  0  0  0  0  0  0  0  0  0  0
  153.2107  136.3455  189.1404 C   0  0  0  0  0  0  0  0  0  0  0  0
  153.0590  136.2041  187.8757 O   0  0  0  0  0  0  0  0  0  0  0  0
  152.4205  135.4881  190.0232 C   0  0  0  0  0  0  0  0  0  0  0  0
  151.2387  135.0884  189.1816 N   0  0  0  0  0  0  0  0  0  0  0  0
  150.9522  135.9007  188.6057 H   0  0  0  0  0  0  0  0  0  0  0  0
  150.5000  134.6890  189.7888 H   0  0  0  0  0  0  0  0  0  0  0  0
  152.9877  134.1931  190.4558 C   0  0  0  0  0  0  0  0  0  0  0  0
  154.1336  133.6329  189.7657 C   0  0  0  0  0  0  0  0  0  0  0  0
  154.1086  132.8676  188.6038 C   0  0  0  0  0  0  0  0  0  0  0  0
  155.3612  132.5145  188.3052 N   0  0  0  0  0  0  0  0  0  0  0  0
  156.2222  133.0081  189.2119 C   0  0  0  0  0  0  0  0  0  0  0  0
  157.5900  132.9507  189.3590 C   0  0  0  0  0  0  0  0  0  0  0  0
  158.2308  133.5853  190.4131 C   0  0  0  0  0  0  0  0  0  0  0  0
  157.4913  134.2833  191.3270 C   0  0  0  0  0  0  0  0  0  0  0  0
  156.1236  134.3362  191.1743 C   0  0  0  0  0  0  0  0  0  0  0  0
  155.4645  133.7084  190.1284 C   0  0  0  0  0  0  0  0  0  0  0  0
  155.6998  131.9317  187.4893 H   0  0  0  0  0  0  0  0  0  0  0  0
  153.2985  138.3359  184.2818 C   0  0  0  0  0  0  0  0  0  0  0  0
  153.1118  137.2169  183.3775 C   0  0  0  0  0  0  0  0  0  0  0  0
  152.4211  137.2258  182.1589 C   0  0  0  0  0  0  0  0  0  0  0  0
  152.4255  135.9928  181.6339 N   0  0  0  0  0  0  0  0  0  0  0  0
  153.0861  135.1627  182.4415 C   0  0  0  0  0  0  0  0  0  0  0  0
  153.3537  133.8154  182.3003 C   0  0  0  0  0  0  0  0  0  0  0  0
  154.0842  133.1888  183.2818 C   0  0  0  0  0  0  0  0  0  0  0  0
  154.5376  133.8850  184.3766 C   0  0  0  0  0  0  0  0  0  0  0  0
  154.2557  135.2294  184.4939 C   0  0  0  0  0  0  0  0  0  0  0  0
  153.5211  135.9151  183.5356 C   0  0  0  0  0  0  0  0  0  0  0  0
  151.9677  135.7689  180.7279 H   0  0  0  0  0  0  0  0  0  0  0  0
 13 14  1  0  0  0
 14 15  1  0  0  0
 14 12  1  0  0  0
 12  6  1  0  0  0
  6  2  1  0  0  0
  2  3  1  0  0  0
  3  4  2  0  0  0
  3  1  1  0  0  0
  1 42  1  0  0  0
 42 43  1  0  0  0
 43 44  2  0  0  0
 44 45  1  0  0  0
 45 46  1  0  0  0
 46 47  2  0  0  0
 47 48  1  0  0  0
 48 49  2  0  0  0
 49 50  1  0  0  0
 50 51  2  0  0  0
  1 16  1  0  0  0
 16 17  1  0  0  0
 17 18  2  0  0  0
 17 20  1  0  0  0
 20 21  1  0  0  0
 21 22  1  0  0  0
 22 23  1  0  0  0
 23 24  1  0  0  0
 24 25  1  0  0  0
 25 26  2  0  0  0
 25 27  1  0  0  0
 27 28  1  0  0  0
 27 31  1  0  0  0
 31 32  1  0  0  0
 32 33  2  0  0  0
 33 34  1  0  0  0
 34 35  1  0  0  0
 35 36  2  0  0  0
 36 37  1  0  0  0
 37 38  2  0  0  0
 38 39  1  0  0  0
 39 40  2  0  0  0
  6  7  1  0  0  0
  7  8  1  0  0  0
  7  9  2  0  0  0
 51 43  1  0  0  0
 24 20  1  0  0  0
 40 32  1  0  0  0
 51 46  1  0  0  0
 40 35  1  0  0  0
  2  5  1  0  0  0
 45 52  1  0  0  0
 16 19  1  0  0  0
 28 29  1  0  0  0
 28 30  1  0  0  0
 34 41  1  0  0  0
  8 10  1  0  0  0
  8 11  1  0  0  0
M  END
> <minimizedAffinity>
-7.53236

> <CNNscore>
0.2243704945

> <CNNaffinity>
6.4680891037

> <CNN_VS>
1.4512484074

> <CNNaffinity_variance>
0.5159304142

$$$$
[H]c1c([H])c(Cl)c([H])c(S(=O)(=O)N([H])c2c([H])c([H])c3c(c2[H])c(C([H])([H])C([H])([H])N(C([H])([H])[H])C([H])([H])[H])c([H])n3[H])c1[H]


 27 29  0  0  0  0  0  0  0  0999 V2000
  160.0378  143.1947  183.8537 C   0  0  0  0  0  0  0  0  0  0  0  0
  160.4544  144.4904  183.6824 C   0  0  0  0  0  0  0  0  0  0  0  0
  159.5256  145.1339  182.9546 N   0  0  0  0  0  0  0  0  0  0  0  0
  158.5198  144.3172  182.6417 C   0  0  0  0  0  0  0  0  0  0  0  0
  157.3409  144.4313  181.9369 C   0  0  0  0  0  0  0  0  0  0  0  0
  156.4561  143.3667  181.7687 C   0  0  0  0  0  0  0  0  0  0  0  0
  156.7567  142.1576  182.3198 C   0  0  0  0  0  0  0  0  0  0  0  0
  157.9561  142.0290  183.0403 C   0  0  0  0  0  0  0  0  0  0  0  0
  158.8097  143.0906  183.1912 C   0  0  0  0  0  0  0  0  0  0  0  0
  159.5731  146.1381  182.6664 H   0  0  0  0  0  0  0  0  0  0  0  0
  155.9806  140.9915  182.2086 N   0  0  0  0  0  0  0  0  0  0  0  0
  156.2313  140.3409  181.3989 H   0  0  0  0  0  0  0  0  0  0  0  0
  154.7220  140.5807  183.2455 S   0  0  0  0  0  0  0  0  0  0  0  0
  155.2893  139.7041  184.3683 O   0  0  0  0  0  0  0  0  0  0  0  0
  154.1480  141.8310  183.9351 O   0  0  0  0  0  0  0  0  0  0  0  0
  153.4180  139.7410  182.4592 C   0  0  0  0  0  0  0  0  0  0  0  0
  152.9552  138.5151  182.9508 C   0  0  0  0  0  0  0  0  0  0  0  0
  151.9219  137.8719  182.3065 C   0  0  0  0  0  0  0  0  0  0  0  0
  151.3182  138.4125  181.1682 C   0  0  0  0  0  0  0  0  0  0  0  0
  151.7662  139.6198  180.6754 C   0  0  0  0  0  0  0  0  0  0  0  0
  151.0137  140.3008  179.2515 Cl  0  0  0  0  0  0  0  0  0  0  0  0
  152.8095  140.2598  181.3335 C   0  0  0  0  0  0  0  0  0  0  0  0
  160.7168  142.0825  184.5869 C   0  0  0  0  0  0  0  0  0  0  0  0
  162.0258  142.4719  185.1618 C   0  0  0  0  0  0  0  0  0  0  0  0
  160.7872  142.9768  187.1608 C   0  0  0  0  0  0  0  0  0  0  0  0
  162.0450  142.9473  186.4931 N   0  0  0  0  0  0  0  0  0  0  0  0
  163.1572  142.5806  187.2940 C   0  0  0  0  0  0  0  0  0  0  0  0
 25 26  1  0  0  0
 26 27  1  0  0  0
 26 24  1  0  0  0
 24 23  1  0  0  0
 23  1  1  0  0  0
  1  2  2  0  0  0
  2  3  1  0  0  0
  3  4  1  0  0  0
  4  5  2  0  0  0
  5  6  1  0  0  0
  6  7  2  0  0  0
  7 11  1  0  0  0
 11 13  1  0  0  0
 13 14  2  0  0  0
 13 15  2  0  0  0
 13 16  1  0  0  0
 16 17  2  0  0  0
 17 18  1  0  0  0
 18 19  2  0  0  0
 19 20  1  0  0  0
 20 21  1  0  0  0
 20 22  2  0  0  0
  7  8  1  0  0  0
  8  9  2  0  0  0
  9  1  1  0  0  0
  9  4  1  0  0  0
 22 16  1  0  0  0
  3 10  1  0  0  0
 11 12  1  0  0  0
M  END
> <minimizedAffinity>
-8.06360

> <CNNscore>
0.5700049996

> <CNNaffinity>
6.5830507278

> <CNN_VS>
3.7523717880

> <CNNaffinity_variance>
0.0755796209

$$$$
[H]c1c([H])c(Cl)c([H])c(S(=O)(=O)N([H])c2c([H])c([H])c3c(c2[H])c(C([H])([H])C([H])([H])N(C([H])([H])[H])C([H])([H])[H])c([H])n3[H])c1[H]


 27 29  0  0  0  0  0  0  0  0999 V2000
  153.5066  137.8919  186.3759 C   0  0  0  0  0  0  0  0  0  0  0  0
  152.5412  136.9310  186.5391 C   0  0  0  0  0  0  0  0  0  0  0  0
  151.9084  136.7724  185.3639 N   0  0  0  0  0  0  0  0  0  0  0  0
  152.4163  137.5867  184.4389 C   0  0  0  0  0  0  0  0  0  0  0  0
  152.1658  137.8441  183.1084 C   0  0  0  0  0  0  0  0  0  0  0  0
  152.8842  138.7868  182.3737 C   0  0  0  0  0  0  0  0  0  0  0  0
  153.8790  139.4894  182.9842 C   0  0  0  0  0  0  0  0  0  0  0  0
  154.1434  139.2359  184.3407 C   0  0  0  0  0  0  0  0  0  0  0  0
  153.4226  138.3043  185.0413 C   0  0  0  0  0  0  0  0  0  0  0  0
  151.1233  136.1048  185.1859 H   0  0  0  0  0  0  0  0  0  0  0  0
  154.6637  140.4881  182.3831 N   0  0  0  0  0  0  0  0  0  0  0  0
  154.4211  140.7236  181.3696 H   0  0  0  0  0  0  0  0  0  0  0  0
  155.9206  141.3028  183.1476 S   0  0  0  0  0  0  0  0  0  0  0  0
  155.3202  142.4394  183.9834 O   0  0  0  0  0  0  0  0  0  0  0  0
  156.6454  140.3824  184.1455 O   0  0  0  0  0  0  0  0  0  0  0  0
  157.0990  141.9545  182.0473 C   0  0  0  0  0  0  0  0  0  0  0  0
  157.4861  141.2416  180.9068 C   0  0  0  0  0  0  0  0  0  0  0  0
  158.4227  141.7819  180.0541 C   0  0  0  0  0  0  0  0  0  0  0  0
  159.0016  143.0302  180.2969 C   0  0  0  0  0  0  0  0  0  0  0  0
  158.6275  143.7412  181.4176 C   0  0  0  0  0  0  0  0  0  0  0  0
  159.3484  145.3040  181.7258 Cl  0  0  0  0  0  0  0  0  0  0  0  0
  157.6815  143.1862  182.2711 C   0  0  0  0  0  0  0  0  0  0  0  0
  154.4748  138.4261  187.3822 C   0  0  0  0  0  0  0  0  0  0  0  0
  155.5614  137.4747  187.7135 C   0  0  0  0  0  0  0  0  0  0  0  0
  156.9030  136.4838  189.4464 C   0  0  0  0  0  0  0  0  0  0  0  0
  155.6385  137.0003  189.0432 N   0  0  0  0  0  0  0  0  0  0  0  0
  154.9296  137.7306  190.0316 C   0  0  0  0  0  0  0  0  0  0  0  0
 25 26  1  0  0  0
 26 27  1  0  0  0
 26 24  1  0  0  0
 24 23  1  0  0  0
 23  1  1  0  0  0
  1  2  2  0  0  0
  2  3  1  0  0  0
  3  4  1  0  0  0
  4  5  2  0  0  0
  5  6  1  0  0  0
  6  7  2  0  0  0
  7 11  1  0  0  0
 11 13  1  0  0  0
 13 14  2  0  0  0
 13 15  2  0  0  0
 13 16  1  0  0  0
 16 17  2  0  0  0
 17 18  1  0  0  0
 18 19  2  0  0  0
 19 20  1  0  0  0
 20 21  1  0  0  0
 20 22  2  0  0  0
  7  8  1  0  0  0
  8  9  2  0  0  0
  9  1  1  0  0  0
  9  4  1  0  0  0
 22 16  1  0  0  0
  3 10  1  0  0  0
 11 12  1  0  0  0
M  END
> <minimizedAffinity>
-6.62485

> <CNNscore>
0.4919774830

> <CNNaffinity>
5.8352060318

> <CNN_VS>
2.8707900047

> <CNNaffinity_variance>
0.0107968030

$$$$
[H]c1c([H])c(Cl)c([H])c(S(=O)(=O)N([H])c2c([H])c([H])c3c(c2[H])c(C([H])([H])C([H])([H])N(C([H])([H])[H])C([H])([H])[H])c([H])n3[H])c1[H]


 27 29  0  0  0  0  0  0  0  0999 V2000
  150.4702  137.4302  183.1884 C   0  0  0  0  0  0  0  0  0  0  0  0
  149.1782  137.1306  182.8378 C   0  0  0  0  0  0  0  0  0  0  0  0
  148.8558  137.8710  181.7634 N   0  0  0  0  0  0  0  0  0  0  0  0
  149.8789  138.6419  181.3953 C   0  0  0  0  0  0  0  0  0  0  0  0
  150.1061  139.5689  180.4010 C   0  0  0  0  0  0  0  0  0  0  0  0
  151.3194  140.2415  180.2592 C   0  0  0  0  0  0  0  0  0  0  0  0
  152.3316  139.9803  181.1327 C   0  0  0  0  0  0  0  0  0  0  0  0
  152.1116  139.0374  182.1510 C   0  0  0  0  0  0  0  0  0  0  0  0
  150.9096  138.3897  182.2696 C   0  0  0  0  0  0  0  0  0  0  0  0
  147.9320  137.8541  181.2733 H   0  0  0  0  0  0  0  0  0  0  0  0
  153.5930  140.5995  181.1331 N   0  0  0  0  0  0  0  0  0  0  0  0
  154.1109  140.6012  180.1985 H   0  0  0  0  0  0  0  0  0  0  0  0
  154.3056  141.3120  182.4793 S   0  0  0  0  0  0  0  0  0  0  0  0
  153.7505  142.7340  182.6224 O   0  0  0  0  0  0  0  0  0  0  0  0
  153.9072  140.5717  183.7683 O   0  0  0  0  0  0  0  0  0  0  0  0
  156.0414  141.3745  182.3972 C   0  0  0  0  0  0  0  0  0  0  0  0
  156.6867  142.2784  181.5456 C   0  0  0  0  0  0  0  0  0  0  0  0
  158.0628  142.3044  181.5003 C   0  0  0  0  0  0  0  0  0  0  0  0
  158.8384  141.4479  182.2860 C   0  0  0  0  0  0  0  0  0  0  0  0
  158.2130  140.5534  183.1287 C   0  0  0  0  0  0  0  0  0  0  0  0
  159.1791  139.4799  184.1143 Cl  0  0  0  0  0  0  0  0  0  0  0  0
  156.8240  140.5359  183.1661 C   0  0  0  0  0  0  0  0  0  0  0  0
  151.2875  136.8762  184.3111 C   0  0  0  0  0  0  0  0  0  0  0  0
  152.1056  135.7046  183.9188 C   0  0  0  0  0  0  0  0  0  0  0  0
  154.0126  137.0148  184.5757 C   0  0  0  0  0  0  0  0  0  0  0  0
  153.5116  135.8521  183.9231 N   0  0  0  0  0  0  0  0  0  0  0  0
  154.2842  134.6738  184.0886 C   0  0  0  0  0  0  0  0  0  0  0  0
 25 26  1  0  0  0
 26 27  1  0  0  0
 26 24  1  0  0  0
 24 23  1  0  0  0
 23  1  1  0  0  0
  1  2  2  0  0  0
  2  3  1  0  0  0
  3  4  1  0  0  0
  4  5  2  0  0  0
  5  6  1  0  0  0
  6  7  2  0  0  0
  7 11  1  0  0  0
 11 13  1  0  0  0
 13 14  2  0  0  0
 13 15  2  0  0  0
 13 16  1  0  0  0
 16 17  2  0  0  0
 17 18  1  0  0  0
 18 19  2  0  0  0
 19 20  1  0  0  0
 20 21  1  0  0  0
 20 22  2  0  0  0
  7  8  1  0  0  0
  8  9  2  0  0  0
  9  1  1  0  0  0
  9  4  1  0  0  0
 22 16  1  0  0  0
  3 10  1  0  0  0
 11 12  1  0  0  0
M  END
> <minimizedAffinity>
-6.23633

> <CNNscore>
0.4786213934

> <CNNaffinity>
5.6879768372

> <CNN_VS>
2.7223873138

> <CNNaffinity_variance>
0.0952192694

$$$$
[H]c1c([H])c(Cl)c([H])c(S(=O)(=O)N([H])c2c([H])c([H])c3c(c2[H])c(C([H])([H])C([H])([H])N(C([H])([H])[H])C([H])([H])[H])c([H])n3[H])c1[H]


 27 29  0  0  0  0  0  0  0  0999 V2000
  159.3084  141.4359  182.0938 C   0  0  0  0  0  0  0  0  0  0  0  0
  160.5077  141.5291  182.7531 C   0  0  0  0  0  0  0  0  0  0  0  0
  160.3503  141.0049  183.9807 N   0  0  0  0  0  0  0  0  0  0  0  0
  159.1014  140.5729  184.1543 C   0  0  0  0  0  0  0  0  0  0  0  0
  158.4003  139.9714  185.1772 C   0  0  0  0  0  0  0  0  0  0  0  0
  157.0545  139.6232  185.0670 C   0  0  0  0  0  0  0  0  0  0  0  0
  156.3928  139.8819  183.9046 C   0  0  0  0  0  0  0  0  0  0  0  0
  157.0970  140.4953  182.8547 C   0  0  0  0  0  0  0  0  0  0  0  0
  158.4198  140.8283  182.9879 C   0  0  0  0  0  0  0  0  0  0  0  0
  161.0973  140.9387  184.7096 H   0  0  0  0  0  0  0  0  0  0  0  0
  155.0349  139.6169  183.6590 N   0  0  0  0  0  0  0  0  0  0  0  0
  154.6284  138.7660  184.1614 H   0  0  0  0  0  0  0  0  0  0  0  0
  154.0507  140.5355  182.6513 S   0  0  0  0  0  0  0  0  0  0  0  0
  153.5371  141.7409  183.4475 O   0  0  0  0  0  0  0  0  0  0  0  0
  154.8575  141.1178  181.4773 O   0  0  0  0  0  0  0  0  0  0  0  0
  152.7000  139.6524  182.0035 C   0  0  0  0  0  0  0  0  0  0  0  0
  152.1675  138.5536  182.6875 C   0  0  0  0  0  0  0  0  0  0  0  0
  151.0985  137.8722  182.1497 C   0  0  0  0  0  0  0  0  0  0  0  0
  150.5265  138.2494  180.9319 C   0  0  0  0  0  0  0  0  0  0  0  0
  151.0432  139.3305  180.2496 C   0  0  0  0  0  0  0  0  0  0  0  0
  150.3305  139.8070  178.7256 Cl  0  0  0  0  0  0  0  0  0  0  0  0
  152.1219  140.0106  180.8018 C   0  0  0  0  0  0  0  0  0  0  0  0
  158.9662  141.8768  180.7068 C   0  0  0  0  0  0  0  0  0  0  0  0
  158.6296  143.3170  180.6152 C   0  0  0  0  0  0  0  0  0  0  0  0
  159.0480  145.0695  182.2085 C   0  0  0  0  0  0  0  0  0  0  0  0
  158.2309  143.9767  181.8004 N   0  0  0  0  0  0  0  0  0  0  0  0
  156.8374  144.1391  182.0117 C   0  0  0  0  0  0  0  0  0  0  0  0
 25 26  1  0  0  0
 26 27  1  0  0  0
 26 24  1  0  0  0
 24 23  1  0  0  0
 23  1  1  0  0  0
  1  2  2  0  0  0
  2  3  1  0  0  0
  3  4  1  0  0  0
  4  5  2  0  0  0
  5  6  1  0  0  0
  6  7  2  0  0  0
  7 11  1  0  0  0
 11 13  1  0  0  0
 13 14  2  0  0  0
 13 15  2  0  0  0
 13 16  1  0  0  0
 16 17  2  0  0  0
 17 18  1  0  0  0
 18 19  2  0  0  0
 19 20  1  0  0  0
 20 21  1  0  0  0
 20 22  2  0  0  0
  7  8  1  0  0  0
  8  9  2  0  0  0
  9  1  1  0  0  0
  9  4  1  0  0  0
 22 16  1  0  0  0
  3 10  1  0  0  0
 11 12  1  0  0  0
M  END
> <minimizedAffinity>
-7.10451

> <CNNscore>
0.4774194956

> <CNNaffinity>
6.3157243729

> <CNN_VS>
3.0152499676

> <CNNaffinity_variance>
0.2232420444

$$$$
[H]c1c([H])c(Cl)c([H])c(S(=O)(=O)N([H])c2c([H])c([H])c3c(c2[H])c(C([H])([H])C([H])([H])N(C([H])([H])[H])C([H])([H])[H])c([H])n3[H])c1[H]


 27 29  0  0  0  0  0  0  0  0999 V2000
  156.7971  141.7060  183.5474 C   0  0  0  0  0  0  0  0  0  0  0  0
  157.7385  141.3607  184.4834 C   0  0  0  0  0  0  0  0  0  0  0  0
  157.3173  140.2469  185.1068 N   0  0  0  0  0  0  0  0  0  0  0  0
  156.1422  139.8479  184.6206 C   0  0  0  0  0  0  0  0  0  0  0  0
  155.2727  138.8089  184.8741 C   0  0  0  0  0  0  0  0  0  0  0  0
  154.0734  138.6426  184.1822 C   0  0  0  0  0  0  0  0  0  0  0  0
  153.7351  139.5367  183.2116 C   0  0  0  0  0  0  0  0  0  0  0  0
  154.6134  140.6005  182.9445 C   0  0  0  0  0  0  0  0  0  0  0  0
  155.7865  140.7425  183.6390 C   0  0  0  0  0  0  0  0  0  0  0  0
  157.8316  139.7507  185.8704 H   0  0  0  0  0  0  0  0  0  0  0  0
  152.5508  139.5155  182.4557 N   0  0  0  0  0  0  0  0  0  0  0  0
  152.2672  140.4435  182.0085 H   0  0  0  0  0  0  0  0  0  0  0  0
  151.5897  138.1547  182.2264 S   0  0  0  0  0  0  0  0  0  0  0  0
  152.3386  137.1856  181.3041 O   0  0  0  0  0  0  0  0  0  0  0  0
  151.3806  137.4002  183.5513 O   0  0  0  0  0  0  0  0  0  0  0  0
  150.0294  138.5108  181.5463 C   0  0  0  0  0  0  0  0  0  0  0  0
  149.0045  139.0375  182.3407 C   0  0  0  0  0  0  0  0  0  0  0  0
  147.7784  139.3083  181.7752 C   0  0  0  0  0  0  0  0  0  0  0  0
  147.5269  139.0705  180.4214 C   0  0  0  0  0  0  0  0  0  0  0  0
  148.5296  138.5519  179.6296 C   0  0  0  0  0  0  0  0  0  0  0  0
  148.2202  138.2530  177.9348 Cl  0  0  0  0  0  0  0  0  0  0  0  0
  149.7627  138.2824  180.2109 C   0  0  0  0  0  0  0  0  0  0  0  0
  156.7999  142.8624  182.5997 C   0  0  0  0  0  0  0  0  0  0  0  0
  157.9650  142.8679  181.6842 C   0  0  0  0  0  0  0  0  0  0  0  0
  158.2800  142.4066  179.3448 C   0  0  0  0  0  0  0  0  0  0  0  0
  157.9922  141.9073  180.6473 N   0  0  0  0  0  0  0  0  0  0  0  0
  158.5488  140.6393  180.9560 C   0  0  0  0  0  0  0  0  0  0  0  0
 25 26  1  0  0  0
 26 27  1  0  0  0
 26 24  1  0  0  0
 24 23  1  0  0  0
 23  1  1  0  0  0
  1  2  2  0  0  0
  2  3  1  0  0  0
  3  4  1  0  0  0
  4  5  2  0  0  0
  5  6  1  0  0  0
  6  7  2  0  0  0
  7 11  1  0  0  0
 11 13  1  0  0  0
 13 14  2  0  0  0
 13 15  2  0  0  0
 13 16  1  0  0  0
 16 17  2  0  0  0
 17 18  1  0  0  0
 18 19  2  0  0  0
 19 20  1  0  0  0
 20 21  1  0  0  0
 20 22  2  0  0  0
  7  8  1  0  0  0
  8  9  2  0  0  0
  9  1  1  0  0  0
  9  4  1  0  0  0
 22 16  1  0  0  0
  3 10  1  0  0  0
 11 12  1  0  0  0
M  END
> <minimizedAffinity>
-6.97025

> <CNNscore>
0.4533134401

> <CNNaffinity>
5.9419412613

> <CNN_VS>
2.6935617924

> <CNNaffinity_variance>
0.0127306078

$$$$
[H]c1c([H])c(Cl)c([H])c(S(=O)(=O)N([H])c2c([H])c([H])c3c(c2[H])c(C([H])([H])C([H])([H])N(C([H])([H])[H])C([H])([H])[H])c([H])n3[H])c1[H]


 27 29  0  0  0  0  0  0  0  0999 V2000
  152.3899  139.1902  181.8986 C   0  0  0  0  0  0  0  0  0  0  0  0
  152.6983  140.2887  181.1372 C   0  0  0  0  0  0  0  0  0  0  0  0
  153.7741  140.8836  181.6805 N   0  0  0  0  0  0  0  0  0  0  0  0
  154.1836  140.2235  182.7636 C   0  0  0  0  0  0  0  0  0  0  0  0
  155.1982  140.3741  183.6842 C   0  0  0  0  0  0  0  0  0  0  0  0
  155.3855  139.4963  184.7514 C   0  0  0  0  0  0  0  0  0  0  0  0
  154.5378  138.4405  184.9017 C   0  0  0  0  0  0  0  0  0  0  0  0
  153.4991  138.2768  183.9696 C   0  0  0  0  0  0  0  0  0  0  0  0
  153.3358  139.1538  182.9292 C   0  0  0  0  0  0  0  0  0  0  0  0
  154.2369  141.7467  181.3136 H   0  0  0  0  0  0  0  0  0  0  0  0
  154.5835  137.4953  185.9404 N   0  0  0  0  0  0  0  0  0  0  0  0
  155.2434  136.6686  185.7888 H   0  0  0  0  0  0  0  0  0  0  0  0
  153.6858  137.5925  187.3590 S   0  0  0  0  0  0  0  0  0  0  0  0
  152.9264  138.9244  187.3584 O   0  0  0  0  0  0  0  0  0  0  0  0
  152.6099  136.4931  187.4048 O   0  0  0  0  0  0  0  0  0  0  0  0
  154.6492  137.4770  188.8020 C   0  0  0  0  0  0  0  0  0  0  0  0
  155.9221  138.0556  188.8623 C   0  0  0  0  0  0  0  0  0  0  0  0
  156.6632  137.9469  190.0179 C   0  0  0  0  0  0  0  0  0  0  0  0
  156.1769  137.2705  191.1397 C   0  0  0  0  0  0  0  0  0  0  0  0
  154.9240  136.6966  191.0913 C   0  0  0  0  0  0  0  0  0  0  0  0
  154.3106  135.8496  192.4926 Cl  0  0  0  0  0  0  0  0  0  0  0  0
  154.1852  136.8126  189.9201 C   0  0  0  0  0  0  0  0  0  0  0  0
  151.2830  138.2027  181.7115 C   0  0  0  0  0  0  0  0  0  0  0  0
  149.9446  138.7547  182.0271 C   0  0  0  0  0  0  0  0  0  0  0  0
  149.4231  138.6735  179.6805 C   0  0  0  0  0  0  0  0  0  0  0  0
  149.1693  139.2547  180.9558 N   0  0  0  0  0  0  0  0  0  0  0  0
  147.8124  139.5652  181.2303 C   0  0  0  0  0  0  0  0  0  0  0  0
 25 26  1  0  0  0
 26 27  1  0  0  0
 26 24  1  0  0  0
 24 23  1  0  0  0
 23  1  1  0  0  0
  1  2  2  0  0  0
  2  3  1  0  0  0
  3  4  1  0  0  0
  4  5  2  0  0  0
  5  6  1  0  0  0
  6  7  2  0  0  0
  7 11  1  0  0  0
 11 13  1  0  0  0
 13 14  2  0  0  0
 13 15  2  0  0  0
 13 16  1  0  0  0
 16 17  2  0  0  0
 17 18  1  0  0  0
 18 19  2  0  0  0
 19 20  1  0  0  0
 20 21  1  0  0  0
 20 22  2  0  0  0
  7  8  1  0  0  0
  8  9  2  0  0  0
  9  1  1  0  0  0
  9  4  1  0  0  0
 22 16  1  0  0  0
  3 10  1  0  0  0
 11 12  1  0  0  0
M  END
> <minimizedAffinity>
-6.71518

> <CNNscore>
0.4198985398

> <CNNaffinity>
5.2482523918

> <CNN_VS>
2.2037334442

> <CNNaffinity_variance>
0.1856936067

$$$$
[H]c1c([H])c(Cl)c([H])c(S(=O)(=O)N([H])c2c([H])c([H])c3c(c2[H])c(C([H])([H])C([H])([H])N(C([H])([H])[H])C([H])([H])[H])c([H])n3[H])c1[H]


 27 29  0  0  0  0  0  0  0  0999 V2000
  152.1080  137.4067  182.8505 C   0  0  0  0  0  0  0  0  0  0  0  0
  151.6804  136.4535  183.7395 C   0  0  0  0  0  0  0  0  0  0  0  0
  152.4171  136.5666  184.8580 N   0  0  0  0  0  0  0  0  0  0  0  0
  153.3078  137.5511  184.7408 C   0  0  0  0  0  0  0  0  0  0  0  0
  154.2875  138.0941  185.5438 C   0  0  0  0  0  0  0  0  0  0  0  0
  155.0939  139.1566  185.1370 C   0  0  0  0  0  0  0  0  0  0  0  0
  154.9159  139.6906  183.8964 C   0  0  0  0  0  0  0  0  0  0  0  0
  153.9203  139.1450  183.0684 C   0  0  0  0  0  0  0  0  0  0  0  0
  153.1408  138.1001  183.4913 C   0  0  0  0  0  0  0  0  0  0  0  0
  152.3155  135.9702  185.7112 H   0  0  0  0  0  0  0  0  0  0  0  0
  155.6696  140.7378  183.3400 N   0  0  0  0  0  0  0  0  0  0  0  0
  155.1078  141.5506  182.9332 H   0  0  0  0  0  0  0  0  0  0  0  0
  157.3497  140.7778  183.2818 S   0  0  0  0  0  0  0  0  0  0  0  0
  157.8645  141.3473  184.6090 O   0  0  0  0  0  0  0  0  0  0  0  0
  157.9299  139.3561  183.1792 O   0  0  0  0  0  0  0  0  0  0  0  0
  157.9786  141.7227  181.9645 C   0  0  0  0  0  0  0  0  0  0  0  0
  158.1067  141.1719  180.6843 C   0  0  0  0  0  0  0  0  0  0  0  0
  158.6094  141.9436  179.6605 C   0  0  0  0  0  0  0  0  0  0  0  0
  158.9979  143.2701  179.8650 C   0  0  0  0  0  0  0  0  0  0  0  0
  158.8759  143.8229  181.1223 C   0  0  0  0  0  0  0  0  0  0  0  0
  159.3601  145.4827  181.3834 Cl  0  0  0  0  0  0  0  0  0  0  0  0
  158.3675  143.0350  182.1478 C   0  0  0  0  0  0  0  0  0  0  0  0
  151.6093  137.6893  181.4697 C   0  0  0  0  0  0  0  0  0  0  0  0
  150.5474  138.7220  181.4293 C   0  0  0  0  0  0  0  0  0  0  0  0
  151.3522  139.8905  179.4872 C   0  0  0  0  0  0  0  0  0  0  0  0
  150.2500  139.3121  180.1794 N   0  0  0  0  0  0  0  0  0  0  0  0
  149.2907  138.6548  179.3668 C   0  0  0  0  0  0  0  0  0  0  0  0
 25 26  1  0  0  0
 26 27  1  0  0  0
 26 24  1  0  0  0
 24 23  1  0  0  0
 23  1  1  0  0  0
  1  2  2  0  0  0
  2  3  1  0  0  0
  3  4  1  0  0  0
  4  5  2  0  0  0
  5  6  1  0  0  0
  6  7  2  0  0  0
  7 11  1  0  0  0
 11 13  1  0  0  0
 13 14  2  0  0  0
 13 15  2  0  0  0
 13 16  1  0  0  0
 16 17  2  0  0  0
 17 18  1  0  0  0
 18 19  2  0  0  0
 19 20  1  0  0  0
 20 21  1  0  0  0
 20 22  2  0  0  0
  7  8  1  0  0  0
  8  9  2  0  0  0
  9  1  1  0  0  0
  9  4  1  0  0  0
 22 16  1  0  0  0
  3 10  1  0  0  0
 11 12  1  0  0  0
M  END
> <minimizedAffinity>
-6.84982

> <CNNscore>
0.4107080996

> <CNNaffinity>
5.9578547478

> <CNN_VS>
2.4469392300

> <CNNaffinity_variance>
0.0584888048

$$$$
[H]c1c([H])c(Cl)c([H])c(S(=O)(=O)N([H])c2c([H])c([H])c3c(c2[H])c(C([H])([H])C([H])([H])N(C([H])([H])[H])C([H])([H])[H])c([H])n3[H])c1[H]


 27 29  0  0  0  0  0  0  0  0999 V2000
  157.8269  141.3760  184.1280 C   0  0  0  0  0  0  0  0  0  0  0  0
  157.6387  142.4574  183.3052 C   0  0  0  0  0  0  0  0  0  0  0  0
  156.3860  142.4000  182.8216 N   0  0  0  0  0  0  0  0  0  0  0  0
  155.7459  141.3293  183.2909 C   0  0  0  0  0  0  0  0  0  0  0  0
  154.4881  140.7873  183.1367 C   0  0  0  0  0  0  0  0  0  0  0  0
  154.0885  139.6137  183.7753 C   0  0  0  0  0  0  0  0  0  0  0  0
  154.9680  138.9661  184.5895 C   0  0  0  0  0  0  0  0  0  0  0  0
  156.2535  139.5089  184.7542 C   0  0  0  0  0  0  0  0  0  0  0  0
  156.6225  140.6637  184.1150 C   0  0  0  0  0  0  0  0  0  0  0  0
  155.9591  143.0942  182.1661 H   0  0  0  0  0  0  0  0  0  0  0  0
  154.7188  137.7633  185.2718 N   0  0  0  0  0  0  0  0  0  0  0  0
  155.1193  136.8810  184.8215 H   0  0  0  0  0  0  0  0  0  0  0  0
  153.8532  137.6432  186.7086 S   0  0  0  0  0  0  0  0  0  0  0  0
  152.8268  138.7814  186.7494 O   0  0  0  0  0  0  0  0  0  0  0  0
  153.0384  136.3383  186.7517 O   0  0  0  0  0  0  0  0  0  0  0  0
  154.8513  137.7135  188.1308 C   0  0  0  0  0  0  0  0  0  0  0  0
  156.0450  136.9867  188.2054 C   0  0  0  0  0  0  0  0  0  0  0  0
  156.8145  137.0604  189.3451 C   0  0  0  0  0  0  0  0  0  0  0  0
  156.4345  137.8457  190.4366 C   0  0  0  0  0  0  0  0  0  0  0  0
  155.2603  138.5659  190.3738 C   0  0  0  0  0  0  0  0  0  0  0  0
  154.7807  139.5506  191.7368 Cl  0  0  0  0  0  0  0  0  0  0  0  0
  154.4919  138.4839  189.2189 C   0  0  0  0  0  0  0  0  0  0  0  0
  159.0464  140.9902  184.9021 C   0  0  0  0  0  0  0  0  0  0  0  0
  159.4627  142.0136  185.8896 C   0  0  0  0  0  0  0  0  0  0  0  0
  160.7658  143.6652  184.7238 C   0  0  0  0  0  0  0  0  0  0  0  0
  160.7197  142.6338  185.7050 N   0  0  0  0  0  0  0  0  0  0  0  0
  161.5084  142.8525  186.8638 C   0  0  0  0  0  0  0  0  0  0  0  0
 25 26  1  0  0  0
 26 27  1  0  0  0
 26 24  1  0  0  0
 24 23  1  0  0  0
 23  1  1  0  0  0
  1  2  2  0  0  0
  2  3  1  0  0  0
  3  4  1  0  0  0
  4  5  2  0  0  0
  5  6  1  0  0  0
  6  7  2  0  0  0
  7 11  1  0  0  0
 11 13  1  0  0  0
 13 14  2  0  0  0
 13 15  2  0  0  0
 13 16  1  0  0  0
 16 17  2  0  0  0
 17 18  1  0  0  0
 18 19  2  0  0  0
 19 20  1  0  0  0
 20 21  1  0  0  0
 20 22  2  0  0  0
  7  8  1  0  0  0
  8  9  2  0  0  0
  9  1  1  0  0  0
  9  4  1  0  0  0
 22 16  1  0  0  0
  3 10  1  0  0  0
 11 12  1  0  0  0
M  END
> <minimizedAffinity>
-7.75557

> <CNNscore>
0.3811810017

> <CNNaffinity>
6.1525664330

> <CNN_VS>
2.3452415466

> <CNNaffinity_variance>
0.0799319074

$$$$
[H]c1c([H])c(Cl)c([H])c(S(=O)(=O)N([H])c2c([H])c([H])c3c(c2[H])c(C([H])([H])C([H])([H])N(C([H])([H])[H])C([H])([H])[H])c([H])n3[H])c1[H]


 27 29  0  0  0  0  0  0  0  0999 V2000
  155.4312  141.3338  183.1687 C   0  0  0  0  0  0  0  0  0  0  0  0
  154.8088  141.8978  182.0841 C   0  0  0  0  0  0  0  0  0  0  0  0
  153.7854  141.1015  181.7304 N   0  0  0  0  0  0  0  0  0  0  0  0
  153.7102  140.0415  182.5349 C   0  0  0  0  0  0  0  0  0  0  0  0
  152.8911  138.9377  182.6361 C   0  0  0  0  0  0  0  0  0  0  0  0
  153.0614  137.9586  183.6144 C   0  0  0  0  0  0  0  0  0  0  0  0
  154.0756  138.0866  184.5150 C   0  0  0  0  0  0  0  0  0  0  0  0
  154.9177  139.2075  184.4215 C   0  0  0  0  0  0  0  0  0  0  0  0
  154.7298  140.1561  183.4502 C   0  0  0  0  0  0  0  0  0  0  0  0
  153.1298  141.2779  180.9349 H   0  0  0  0  0  0  0  0  0  0  0  0
  154.3875  137.1691  185.5325 N   0  0  0  0  0  0  0  0  0  0  0  0
  155.1562  136.4632  185.3033 H   0  0  0  0  0  0  0  0  0  0  0  0
  153.6407  137.1245  187.0386 S   0  0  0  0  0  0  0  0  0  0  0  0
  152.5243  138.1753  187.0542 O   0  0  0  0  0  0  0  0  0  0  0  0
  152.9483  135.7695  187.2686 O   0  0  0  0  0  0  0  0  0  0  0  0
  154.7280  137.4163  188.3639 C   0  0  0  0  0  0  0  0  0  0  0  0
  155.9682  136.7710  188.4291 C   0  0  0  0  0  0  0  0  0  0  0  0
  156.8081  137.0204  189.4915 C   0  0  0  0  0  0  0  0  0  0  0  0
  156.4548  137.9056  190.5132 C   0  0  0  0  0  0  0  0  0  0  0  0
  155.2354  138.5470  190.4590 C   0  0  0  0  0  0  0  0  0  0  0  0
  154.7888  139.6561  191.7348 Cl  0  0  0  0  0  0  0  0  0  0  0  0
  154.3959  138.2876  189.3824 C   0  0  0  0  0  0  0  0  0  0  0  0
  156.6174  141.8316  183.9306 C   0  0  0  0  0  0  0  0  0  0  0  0
  157.7259  142.2866  183.0588 C   0  0  0  0  0  0  0  0  0  0  0  0
  158.4564  140.9909  181.1687 C   0  0  0  0  0  0  0  0  0  0  0  0
  158.6078  141.3060  182.5494 N   0  0  0  0  0  0  0  0  0  0  0  0
  159.9415  141.3232  183.0329 C   0  0  0  0  0  0  0  0  0  0  0  0
 25 26  1  0  0  0
 26 27  1  0  0  0
 26 24  1  0  0  0
 24 23  1  0  0  0
 23  1  1  0  0  0
  1  2  2  0  0  0
  2  3  1  0  0  0
  3  4  1  0  0  0
  4  5  2  0  0  0
  5  6  1  0  0  0
  6  7  2  0  0  0
  7 11  1  0  0  0
 11 13  1  0  0  0
 13 14  2  0  0  0
 13 15  2  0  0  0
 13 16  1  0  0  0
 16 17  2  0  0  0
 17 18  1  0  0  0
 18 19  2  0  0  0
 19 20  1  0  0  0
 20 21  1  0  0  0
 20 22  2  0  0  0
  7  8  1  0  0  0
  8  9  2  0  0  0
  9  1  1  0  0  0
  9  4  1  0  0  0
 22 16  1  0  0  0
  3 10  1  0  0  0
 11 12  1  0  0  0
M  END
> <minimizedAffinity>
-7.28539

> <CNNscore>
0.3322914839

> <CNNaffinity>
5.7769365311

> <CNN_VS>
1.9196268320

> <CNNaffinity_variance>
0.0465254374

$$$$
[H]C1=C(C(=O)[O-])N2C(=O)/C(=C(\[H])c3sc4c(c3[H])C(=O)OC4([H])[H])[C@@]2([H])S1


 21 24  0  0  0  0  0  0  0  0999 V2000
  152.2424  137.2278  186.4861 C   0  0  0  0  0  0  0  0  0  0  0  0
  152.9940  138.0157  187.2114 C   0  0  0  0  0  0  0  0  0  0  0  0
  154.0937  138.8689  186.0972 S   0  0  0  0  0  0  0  0  0  0  0  0
  153.7482  137.8063  184.7006 C   0  0  0  0  0  0  0  0  0  0  0  0
  152.4582  137.2570  185.1094 N   0  0  0  0  0  0  0  0  0  0  0  0
  152.2037  137.0849  183.7337 C   0  0  0  0  0  0  0  0  0  0  0  0
  151.5830  136.3419  182.9365 O   0  0  0  0  0  0  0  0  0  0  0  0
  153.0697  138.2829  183.5302 C   0  0  0  0  0  0  0  0  0  0  0  0
  153.0650  139.2223  182.6328 C   0  0  0  0  0  0  0  0  0  0  0  0
  154.0645  140.2908  182.6858 C   0  0  0  0  0  0  0  0  0  0  0  0
  155.4137  140.1695  182.9643 C   0  0  0  0  0  0  0  0  0  0  0  0
  156.1602  141.2841  182.9198 C   0  0  0  0  0  0  0  0  0  0  0  0
  157.5825  141.6720  183.1292 C   0  0  0  0  0  0  0  0  0  0  0  0
  158.5506  140.9114  183.4444 O   0  0  0  0  0  0  0  0  0  0  0  0
  157.7131  143.0224  182.9262 O   0  0  0  0  0  0  0  0  0  0  0  0
  156.4987  143.6085  182.5991 C   0  0  0  0  0  0  0  0  0  0  0  0
  155.5345  142.4528  182.6027 C   0  0  0  0  0  0  0  0  0  0  0  0
  153.9176  141.9674  182.3756 S   0  0  0  0  0  0  0  0  0  0  0  0
  150.0975  135.9588  186.5135 O   0  0  0  0  0  0  0  0  0  0  0  0
  151.2393  136.4030  187.1595 C   0  0  0  0  0  0  0  0  0  0  0  0
  151.3969  136.0768  188.3498 O   0  0  0  0  0  0  0  0  0  0  0  0
 19 20  1  0  0  0
 20 21  2  0  0  0
 20  1  1  0  0  0
  1  2  2  0  0  0
  2  3  1  0  0  0
  3  4  1  0  0  0
  4  5  1  0  0  0
  5  6  1  0  0  0
  6  7  2  0  0  0
  6  8  1  0  0  0
  8  9  2  0  0  0
  9 10  1  0  0  0
 10 11  2  0  0  0
 11 12  1  0  0  0
 12 13  1  0  0  0
 13 14  2  0  0  0
 13 15  1  0  0  0
 15 16  1  0  0  0
 16 17  1  0  0  0
 17 18  1  0  0  0
  5  1  1  0  0  0
 18 10  1  0  0  0
  8  4  1  0  0  0
 17 12  2  0  0  0
M  CHG 1  19  -1
M  END
> <minimizedAffinity>
-4.99167

> <CNNscore>
0.3010222912

> <CNNaffinity>
4.7019824982

> <CNN_VS>
1.4154015779

> <CNNaffinity_variance>
0.1887562722

$$$$
[H]C1=C(C(=O)[O-])N2C(=O)/C(=C(\[H])c3sc4c(c3[H])C(=O)OC4([H])[H])[C@@]2([H])S1


 21 24  0  0  0  0  0  0  0  0999 V2000
  155.1829  137.4506  188.6852 C   0  0  0  0  0  0  0  0  0  0  0  0
  154.4038  138.4873  188.8595 C   0  0  0  0  0  0  0  0  0  0  0  0
  153.1830  138.4544  187.5605 S   0  0  0  0  0  0  0  0  0  0  0  0
  154.0374  137.2259  186.5810 C   0  0  0  0  0  0  0  0  0  0  0  0
  154.8795  136.6192  187.6084 N   0  0  0  0  0  0  0  0  0  0  0  0
  154.8590  135.4608  186.8054 C   0  0  0  0  0  0  0  0  0  0  0  0
  155.5578  134.4642  186.5035 O   0  0  0  0  0  0  0  0  0  0  0  0
  153.5035  135.9109  186.3734 C   0  0  0  0  0  0  0  0  0  0  0  0
  152.4425  135.2583  186.0043 C   0  0  0  0  0  0  0  0  0  0  0  0
  151.2311  135.9862  185.6219 C   0  0  0  0  0  0  0  0  0  0  0  0
  150.2284  136.4495  186.4542 C   0  0  0  0  0  0  0  0  0  0  0  0
  149.2195  137.1326  185.8913 C   0  0  0  0  0  0  0  0  0  0  0  0
  147.9628  137.8052  186.3222 C   0  0  0  0  0  0  0  0  0  0  0  0
  147.5010  137.8926  187.5030 O   0  0  0  0  0  0  0  0  0  0  0  0
  147.3428  138.3429  185.2229 O   0  0  0  0  0  0  0  0  0  0  0  0
  148.0599  138.0951  184.0612 C   0  0  0  0  0  0  0  0  0  0  0  0
  149.2574  137.3203  184.5418 C   0  0  0  0  0  0  0  0  0  0  0  0
  150.7011  136.5367  184.0907 S   0  0  0  0  0  0  0  0  0  0  0  0
  156.5878  138.1486  190.6218 O   0  0  0  0  0  0  0  0  0  0  0  0
  156.2830  137.2363  189.6252 C   0  0  0  0  0  0  0  0  0  0  0  0
  156.9794  136.2084  189.5466 O   0  0  0  0  0  0  0  0  0  0  0  0
 19 20  1  0  0  0
 20 21  2  0  0  0
 20  1  1  0  0  0
  1  2  2  0  0  0
  2  3  1  0  0  0
  3  4  1  0  0  0
  4  5  1  0  0  0
  5  6  1  0  0  0
  6  7  2  0  0  0
  6  8  1  0  0  0
  8  9  2  0  0  0
  9 10  1  0  0  0
 10 11  2  0  0  0
 11 12  1  0  0  0
 12 13  1  0  0  0
 13 14  2  0  0  0
 13 15  1  0  0  0
 15 16  1  0  0  0
 16 17  1  0  0  0
 17 18  1  0  0  0
  5  1  1  0  0  0
 18 10  1  0  0  0
  8  4  1  0  0  0
 17 12  2  0  0  0
M  CHG 1  19  -1
M  END
> <minimizedAffinity>
-4.20745

> <CNNscore>
0.2924104631

> <CNNaffinity>
4.2606730461

> <CNN_VS>
1.2458653450

> <CNNaffinity_variance>
0.0772112459

$$$$
[H]C1=C(C(=O)[O-])N2C(=O)/C(=C(\[H])c3sc4c(c3[H])C(=O)OC4([H])[H])[C@@]2([H])S1


 21 24  0  0  0  0  0  0  0  0999 V2000
  153.4605  137.3287  189.5421 C   0  0  0  0  0  0  0  0  0  0  0  0
  153.5989  138.1016  188.4955 C   0  0  0  0  0  0  0  0  0  0  0  0
  152.4234  137.5509  187.2734 S   0  0  0  0  0  0  0  0  0  0  0  0
  152.0544  136.0096  188.1022 C   0  0  0  0  0  0  0  0  0  0  0  0
  152.4820  136.3394  189.4591 N   0  0  0  0  0  0  0  0  0  0  0  0
  151.5530  135.3687  189.8851 C   0  0  0  0  0  0  0  0  0  0  0  0
  151.3562  134.5345  190.8006 O   0  0  0  0  0  0  0  0  0  0  0  0
  150.7662  135.7409  188.6730 C   0  0  0  0  0  0  0  0  0  0  0  0
  149.4905  135.7477  188.4273 C   0  0  0  0  0  0  0  0  0  0  0  0
  149.0000  136.1671  187.1132 C   0  0  0  0  0  0  0  0  0  0  0  0
  148.3365  137.3384  186.7960 C   0  0  0  0  0  0  0  0  0  0  0  0
  148.0101  137.5391  185.5096 C   0  0  0  0  0  0  0  0  0  0  0  0
  147.3261  138.5779  184.6909 C   0  0  0  0  0  0  0  0  0  0  0  0
  146.8247  139.6728  185.0971 O   0  0  0  0  0  0  0  0  0  0  0  0
  147.3098  138.1758  183.3795 O   0  0  0  0  0  0  0  0  0  0  0  0
  147.9200  136.9402  183.2176 C   0  0  0  0  0  0  0  0  0  0  0  0
  148.3570  136.5749  184.6107 C   0  0  0  0  0  0  0  0  0  0  0  0
  149.1298  135.4099  185.5840 S   0  0  0  0  0  0  0  0  0  0  0  0
  154.3217  136.7171  191.7995 O   0  0  0  0  0  0  0  0  0  0  0  0
  154.3151  137.5663  190.7053 C   0  0  0  0  0  0  0  0  0  0  0  0
  155.0690  138.5555  190.7338 O   0  0  0  0  0  0  0  0  0  0  0  0
 19 20  1  0  0  0
 20 21  2  0  0  0
 20  1  1  0  0  0
  1  2  2  0  0  0
  2  3  1  0  0  0
  3  4  1  0  0  0
  4  5  1  0  0  0
  5  6  1  0  0  0
  6  7  2  0  0  0
  6  8  1  0  0  0
  8  9  2  0  0  0
  9 10  1  0  0  0
 10 11  2  0  0  0
 11 12  1  0  0  0
 12 13  1  0  0  0
 13 14  2  0  0  0
 13 15  1  0  0  0
 15 16  1  0  0  0
 16 17  1  0  0  0
 17 18  1  0  0  0
  5  1  1  0  0  0
 18 10  1  0  0  0
  8  4  1  0  0  0
 17 12  2  0  0  0
M  CHG 1  19  -1
M  END
> <minimizedAffinity>
-4.10799

> <CNNscore>
0.2666360140

> <CNNaffinity>
4.3021755219

> <CNN_VS>
1.1471149921

> <CNNaffinity_variance>
0.2663561404

$$$$
[H]C1=C(C(=O)[O-])N2C(=O)/C(=C(\[H])c3sc4c(c3[H])C(=O)OC4([H])[H])[C@@]2([H])S1


 21 24  0  0  0  0  0  0  0  0999 V2000
  154.2501  140.6038  182.9505 C   0  0  0  0  0  0  0  0  0  0  0  0
  153.6736  141.2951  182.0009 C   0  0  0  0  0  0  0  0  0  0  0  0
  152.4292  140.2497  181.2679 S   0  0  0  0  0  0  0  0  0  0  0  0
  153.0222  138.7473  182.0361 C   0  0  0  0  0  0  0  0  0  0  0  0
  153.7722  139.3106  183.1555 N   0  0  0  0  0  0  0  0  0  0  0  0
  153.5223  138.0891  183.8130 C   0  0  0  0  0  0  0  0  0  0  0  0
  154.0233  137.3097  184.6582 O   0  0  0  0  0  0  0  0  0  0  0  0
  152.2567  138.0433  183.0238 C   0  0  0  0  0  0  0  0  0  0  0  0
  151.0862  137.5403  183.2780 C   0  0  0  0  0  0  0  0  0  0  0  0
  150.0132  137.6452  182.2874 C   0  0  0  0  0  0  0  0  0  0  0  0
  149.6171  136.6892  181.3698 C   0  0  0  0  0  0  0  0  0  0  0  0
  148.5752  136.9832  180.5764 C   0  0  0  0  0  0  0  0  0  0  0  0
  147.8003  136.3351  179.4824 C   0  0  0  0  0  0  0  0  0  0  0  0
  147.9866  135.1803  178.9853 O   0  0  0  0  0  0  0  0  0  0  0  0
  146.8128  137.1910  179.0650 O   0  0  0  0  0  0  0  0  0  0  0  0
  146.8397  138.3840  179.7728 C   0  0  0  0  0  0  0  0  0  0  0  0
  147.9837  138.2011  180.7335 C   0  0  0  0  0  0  0  0  0  0  0  0
  148.8979  138.9076  181.9852 S   0  0  0  0  0  0  0  0  0  0  0  0
  155.4221  142.6082  183.8561 O   0  0  0  0  0  0  0  0  0  0  0  0
  155.3214  141.2333  183.7225 C   0  0  0  0  0  0  0  0  0  0  0  0
  156.1794  140.5309  184.2866 O   0  0  0  0  0  0  0  0  0  0  0  0
 19 20  1  0  0  0
 20 21  2  0  0  0
 20  1  1  0  0  0
  1  2  2  0  0  0
  2  3  1  0  0  0
  3  4  1  0  0  0
  4  5  1  0  0  0
  5  6  1  0  0  0
  6  7  2  0  0  0
  6  8  1  0  0  0
  8  9  2  0  0  0
  9 10  1  0  0  0
 10 11  2  0  0  0
 11 12  1  0  0  0
 12 13  1  0  0  0
 13 14  2  0  0  0
 13 15  1  0  0  0
 15 16  1  0  0  0
 16 17  1  0  0  0
 17 18  1  0  0  0
  5  1  1  0  0  0
 18 10  1  0  0  0
  8  4  1  0  0  0
 17 12  2  0  0  0
M  CHG 1  19  -1
M  END
> <minimizedAffinity>
-4.64967

> <CNNscore>
0.2419560254

> <CNNaffinity>
4.5867524147

> <CNN_VS>
1.1097923517

> <CNNaffinity_variance>
0.0414989293

$$$$
[H]C1=C(C(=O)[O-])N2C(=O)/C(=C(\[H])c3sc4c(c3[H])C(=O)OC4([H])[H])[C@@]2([H])S1


 21 24  0  0  0  0  0  0  0  0999 V2000
  154.3571  137.1441  188.0356 C   0  0  0  0  0  0  0  0  0  0  0  0
  153.7826  138.3179  187.9702 C   0  0  0  0  0  0  0  0  0  0  0  0
  153.3233  138.5867  186.2686 S   0  0  0  0  0  0  0  0  0  0  0  0
  154.3047  137.2340  185.6315 C   0  0  0  0  0  0  0  0  0  0  0  0
  154.4496  136.4301  186.8421 N   0  0  0  0  0  0  0  0  0  0  0  0
  154.6023  135.3280  185.9767 C   0  0  0  0  0  0  0  0  0  0  0  0
  155.1738  134.2144  185.8981 O   0  0  0  0  0  0  0  0  0  0  0  0
  153.7072  136.0709  185.0421 C   0  0  0  0  0  0  0  0  0  0  0  0
  152.8444  135.6722  184.1564 C   0  0  0  0  0  0  0  0  0  0  0  0
  152.0999  136.6539  183.3655 C   0  0  0  0  0  0  0  0  0  0  0  0
  152.5681  137.4156  182.3103 C   0  0  0  0  0  0  0  0  0  0  0  0
  151.6958  138.2305  181.6968 C   0  0  0  0  0  0  0  0  0  0  0  0
  151.6966  139.2072  180.5728 C   0  0  0  0  0  0  0  0  0  0  0  0
  152.6784  139.5309  179.8336 O   0  0  0  0  0  0  0  0  0  0  0  0
  150.4373  139.7338  180.4360 O   0  0  0  0  0  0  0  0  0  0  0  0
  149.5609  139.2100  181.3755 C   0  0  0  0  0  0  0  0  0  0  0  0
  150.4132  138.2472  182.1579 C   0  0  0  0  0  0  0  0  0  0  0  0
  150.4563  137.1249  183.4385 S   0  0  0  0  0  0  0  0  0  0  0  0
  154.5972  137.3699  190.5060 O   0  0  0  0  0  0  0  0  0  0  0  0
  154.8356  136.6707  189.3344 C   0  0  0  0  0  0  0  0  0  0  0  0
  155.4778  135.6081  189.4130 O   0  0  0  0  0  0  0  0  0  0  0  0
 19 20  1  0  0  0
 20 21  2  0  0  0
 20  1  1  0  0  0
  1  2  2  0  0  0
  2  3  1  0  0  0
  3  4  1  0  0  0
  4  5  1  0  0  0
  5  6  1  0  0  0
  6  7  2  0  0  0
  6  8  1  0  0  0
  8  9  2  0  0  0
  9 10  1  0  0  0
 10 11  2  0  0  0
 11 12  1  0  0  0
 12 13  1  0  0  0
 13 14  2  0  0  0
 13 15  1  0  0  0
 15 16  1  0  0  0
 16 17  1  0  0  0
 17 18  1  0  0  0
  5  1  1  0  0  0
 18 10  1  0  0  0
  8  4  1  0  0  0
 17 12  2  0  0  0
M  CHG 1  19  -1
M  END
> <minimizedAffinity>
-4.33079

> <CNNscore>
0.2194800675

> <CNNaffinity>
4.3524026871

> <CNN_VS>
0.9552656412

> <CNNaffinity_variance>
0.1642187834

$$$$
[H]C1=C(C(=O)[O-])N2C(=O)/C(=C(\[H])c3sc4c(c3[H])C(=O)OC4([H])[H])[C@@]2([H])S1


 21 24  0  0  0  0  0  0  0  0999 V2000
  157.7872  134.7250  188.0892 C   0  0  0  0  0  0  0  0  0  0  0  0
  157.2424  133.9322  187.2022 C   0  0  0  0  0  0  0  0  0  0  0  0
  155.5665  134.4884  186.9558 S   0  0  0  0  0  0  0  0  0  0  0  0
  155.5495  135.5573  188.3898 C   0  0  0  0  0  0  0  0  0  0  0  0
  156.9842  135.7527  188.5808 N   0  0  0  0  0  0  0  0  0  0  0  0
  156.6388  136.9732  189.1957 C   0  0  0  0  0  0  0  0  0  0  0  0
  157.0276  137.7685  190.0841 O   0  0  0  0  0  0  0  0  0  0  0  0
  155.4644  136.9845  188.2751 C   0  0  0  0  0  0  0  0  0  0  0  0
  154.7947  137.9522  187.7249 C   0  0  0  0  0  0  0  0  0  0  0  0
  153.6593  137.6525  186.8506 C   0  0  0  0  0  0  0  0  0  0  0  0
  152.3423  137.4480  187.2200 C   0  0  0  0  0  0  0  0  0  0  0  0
  151.4501  137.2245  186.2425 C   0  0  0  0  0  0  0  0  0  0  0  0
  149.9904  136.9581  186.1167 C   0  0  0  0  0  0  0  0  0  0  0  0
  149.1388  136.8722  187.0560 O   0  0  0  0  0  0  0  0  0  0  0  0
  149.6745  136.8122  184.7897 O   0  0  0  0  0  0  0  0  0  0  0  0
  150.7938  136.9482  183.9812 C   0  0  0  0  0  0  0  0  0  0  0  0
  151.9069  137.2163  184.9583 C   0  0  0  0  0  0  0  0  0  0  0  0
  153.5724  137.5197  185.1466 S   0  0  0  0  0  0  0  0  0  0  0  0
  160.2422  134.9376  187.7162 O   0  0  0  0  0  0  0  0  0  0  0  0
  159.1771  134.4883  188.4791 C   0  0  0  0  0  0  0  0  0  0  0  0
  159.4342  133.8672  189.5260 O   0  0  0  0  0  0  0  0  0  0  0  0
 19 20  1  0  0  0
 20 21  2  0  0  0
 20  1  1  0  0  0
  1  2  2  0  0  0
  2  3  1  0  0  0
  3  4  1  0  0  0
  4  5  1  0  0  0
  5  6  1  0  0  0
  6  7  2  0  0  0
  6  8  1  0  0  0
  8  9  2  0  0  0
  9 10  1  0  0  0
 10 11  2  0  0  0
 11 12  1  0  0  0
 12 13  1  0  0  0
 13 14  2  0  0  0
 13 15  1  0  0  0
 15 16  1  0  0  0
 16 17  1  0  0  0
 17 18  1  0  0  0
  5  1  1  0  0  0
 18 10  1  0  0  0
  8  4  1  0  0  0
 17 12  2  0  0  0
M  CHG 1  19  -1
M  END
> <minimizedAffinity>
-4.51159

> <CNNscore>
0.2130896598

> <CNNaffinity>
4.3566551208

> <CNN_VS>
0.9283581376

> <CNNaffinity_variance>
0.0590790808

$$$$
[H]C1=C(C(=O)[O-])N2C(=O)/C(=C(\[H])c3sc4c(c3[H])C(=O)OC4([H])[H])[C@@]2([H])S1


 21 24  0  0  0  0  0  0  0  0999 V2000
  151.4130  136.7897  182.5249 C   0  0  0  0  0  0  0  0  0  0  0  0
  151.2086  135.7890  183.3428 C   0  0  0  0  0  0  0  0  0  0  0  0
  152.4603  135.8784  184.6094 S   0  0  0  0  0  0  0  0  0  0  0  0
  153.4723  137.0683  183.7381 C   0  0  0  0  0  0  0  0  0  0  0  0
  152.4779  137.6352  182.8311 N   0  0  0  0  0  0  0  0  0  0  0  0
  153.2802  138.7942  182.8298 C   0  0  0  0  0  0  0  0  0  0  0  0
  153.6091  139.7586  182.0986 O   0  0  0  0  0  0  0  0  0  0  0  0
  153.6602  138.4062  184.2197 C   0  0  0  0  0  0  0  0  0  0  0  0
  153.9891  139.1064  185.2633 C   0  0  0  0  0  0  0  0  0  0  0  0
  154.3248  138.4345  186.5200 C   0  0  0  0  0  0  0  0  0  0  0  0
  153.4659  138.0949  187.5495 C   0  0  0  0  0  0  0  0  0  0  0  0
  153.9841  137.4420  188.6015 C   0  0  0  0  0  0  0  0  0  0  0  0
  153.5123  136.8832  189.8986 C   0  0  0  0  0  0  0  0  0  0  0  0
  152.3297  136.9065  190.3633 O   0  0  0  0  0  0  0  0  0  0  0  0
  154.5744  136.3134  190.5537 O   0  0  0  0  0  0  0  0  0  0  0  0
  155.7481  136.4346  189.8237 C   0  0  0  0  0  0  0  0  0  0  0  0
  155.3177  137.1609  188.5777 C   0  0  0  0  0  0  0  0  0  0  0  0
  155.8166  137.8167  187.0869 S   0  0  0  0  0  0  0  0  0  0  0  0
  149.6846  135.9338  180.9464 O   0  0  0  0  0  0  0  0  0  0  0  0
  150.5156  136.9530  181.3813 C   0  0  0  0  0  0  0  0  0  0  0  0
  150.4799  138.0336  180.7657 O   0  0  0  0  0  0  0  0  0  0  0  0
 19 20  1  0  0  0
 20 21  2  0  0  0
 20  1  1  0  0  0
  1  2  2  0  0  0
  2  3  1  0  0  0
  3  4  1  0  0  0
  4  5  1  0  0  0
  5  6  1  0  0  0
  6  7  2  0  0  0
  6  8  1  0  0  0
  8  9  2  0  0  0
  9 10  1  0  0  0
 10 11  2  0  0  0
 11 12  1  0  0  0
 12 13  1  0  0  0
 13 14  2  0  0  0
 13 15  1  0  0  0
 15 16  1  0  0  0
 16 17  1  0  0  0
 17 18  1  0  0  0
  5  1  1  0  0  0
 18 10  1  0  0  0
  8  4  1  0  0  0
 17 12  2  0  0  0
M  CHG 1  19  -1
M  END
> <minimizedAffinity>
-4.62772

> <CNNscore>
0.2042427808

> <CNNaffinity>
4.3331060410

> <CNN_VS>
0.8850056529

> <CNNaffinity_variance>
0.0967195258

$$$$
[H]C1=C(C(=O)[O-])N2C(=O)/C(=C(\[H])c3sc4c(c3[H])C(=O)OC4([H])[H])[C@@]2([H])S1


 21 24  0  0  0  0  0  0  0  0999 V2000
  158.5803  142.9184  180.7488 C   0  0  0  0  0  0  0  0  0  0  0  0
  158.7929  141.6371  180.5908 C   0  0  0  0  0  0  0  0  0  0  0  0
  157.6342  140.7767  181.6376 S   0  0  0  0  0  0  0  0  0  0  0  0
  157.1607  142.2304  182.5659 C   0  0  0  0  0  0  0  0  0  0  0  0
  157.5573  143.2752  181.6257 N   0  0  0  0  0  0  0  0  0  0  0  0
  156.5670  144.0692  182.2388 C   0  0  0  0  0  0  0  0  0  0  0  0
  156.2976  145.2630  182.5128 O   0  0  0  0  0  0  0  0  0  0  0  0
  155.8419  142.7887  182.4866 C   0  0  0  0  0  0  0  0  0  0  0  0
  154.5774  142.5020  182.5671 C   0  0  0  0  0  0  0  0  0  0  0  0
  154.1538  141.1257  182.8315 C   0  0  0  0  0  0  0  0  0  0  0  0
  154.5386  140.3127  183.8821 C   0  0  0  0  0  0  0  0  0  0  0  0
  153.9921  139.0889  183.9534 C   0  0  0  0  0  0  0  0  0  0  0  0
  154.0685  137.8930  184.8374 C   0  0  0  0  0  0  0  0  0  0  0  0
  154.7793  137.7502  185.8812 O   0  0  0  0  0  0  0  0  0  0  0  0
  153.2295  136.9225  184.3516 O   0  0  0  0  0  0  0  0  0  0  0  0
  152.5800  137.3405  183.1990 C   0  0  0  0  0  0  0  0  0  0  0  0
  153.0981  138.7375  182.9864 C   0  0  0  0  0  0  0  0  0  0  0  0
  153.0428  140.1247  181.9993 S   0  0  0  0  0  0  0  0  0  0  0  0
  159.9212  143.5558  178.7470 O   0  0  0  0  0  0  0  0  0  0  0  0
  159.4050  143.8627  179.9951 C   0  0  0  0  0  0  0  0  0  0  0  0
  159.6627  144.9833  180.4703 O   0  0  0  0  0  0  0  0  0  0  0  0
 19 20  1  0  0  0
 20 21  2  0  0  0
 20  1  1  0  0  0
  1  2  2  0  0  0
  2  3  1  0  0  0
  3  4  1  0  0  0
  4  5  1  0  0  0
  5  6  1  0  0  0
  6  7  2  0  0  0
  6  8  1  0  0  0
  8  9  2  0  0  0
  9 10  1  0  0  0
 10 11  2  0  0  0
 11 12  1  0  0  0
 12 13  1  0  0  0
 13 14  2  0  0  0
 13 15  1  0  0  0
 15 16  1  0  0  0
 16 17  1  0  0  0
 17 18  1  0  0  0
  5  1  1  0  0  0
 18 10  1  0  0  0
  8  4  1  0  0  0
 17 12  2  0  0  0
M  CHG 1  19  -1
M  END
> <minimizedAffinity>
-5.93898

> <CNNscore>
0.1980566978

> <CNNaffinity>
5.1821460724

> <CNN_VS>
1.0263587236

> <CNNaffinity_variance>
0.1350542009

$$$$
[H]C1=C(C(=O)[O-])N2C(=O)/C(=C(\[H])c3sc4c(c3[H])C(=O)OC4([H])[H])[C@@]2([H])S1


 21 24  0  0  0  0  0  0  0  0999 V2000
  153.4382  138.5970  183.9615 C   0  0  0  0  0  0  0  0  0  0  0  0
  153.1487  139.2584  182.8703 C   0  0  0  0  0  0  0  0  0  0  0  0
  154.4585  140.4388  182.6052 S   0  0  0  0  0  0  0  0  0  0  0  0
  155.1636  140.2514  184.2382 C   0  0  0  0  0  0  0  0  0  0  0  0
  154.6286  138.9415  184.5997 N   0  0  0  0  0  0  0  0  0  0  0  0
  155.7513  138.8223  185.4436 C   0  0  0  0  0  0  0  0  0  0  0  0
  156.1160  138.2971  186.5225 O   0  0  0  0  0  0  0  0  0  0  0  0
  156.4608  139.6761  184.4465 C   0  0  0  0  0  0  0  0  0  0  0  0
  157.7039  139.7347  184.0736 C   0  0  0  0  0  0  0  0  0  0  0  0
  158.1178  140.6999  183.0535 C   0  0  0  0  0  0  0  0  0  0  0  0
  158.3057  142.0613  183.2085 C   0  0  0  0  0  0  0  0  0  0  0  0
  158.7293  142.7558  182.1410 C   0  0  0  0  0  0  0  0  0  0  0  0
  159.0645  144.1662  181.8006 C   0  0  0  0  0  0  0  0  0  0  0  0
  159.0151  145.1772  182.5691 O   0  0  0  0  0  0  0  0  0  0  0  0
  159.4520  144.2299  180.4862 O   0  0  0  0  0  0  0  0  0  0  0  0
  159.4084  142.9822  179.8809 C   0  0  0  0  0  0  0  0  0  0  0  0
  158.9438  142.0689  180.9833 C   0  0  0  0  0  0  0  0  0  0  0  0
  158.5475  140.4690  181.4132 S   0  0  0  0  0  0  0  0  0  0  0  0
  151.5237  137.0446  183.5928 O   0  0  0  0  0  0  0  0  0  0  0  0
  152.5172  137.5539  184.4126 C   0  0  0  0  0  0  0  0  0  0  0  0
  152.6116  137.0939  185.5647 O   0  0  0  0  0  0  0  0  0  0  0  0
 19 20  1  0  0  0
 20 21  2  0  0  0
 20  1  1  0  0  0
  1  2  2  0  0  0
  2  3  1  0  0  0
  3  4  1  0  0  0
  4  5  1  0  0  0
  5  6  1  0  0  0
  6  7  2  0  0  0
  6  8  1  0  0  0
  8  9  2  0  0  0
  9 10  1  0  0  0
 10 11  2  0  0  0
 11 12  1  0  0  0
 12 13  1  0  0  0
 13 14  2  0  0  0
 13 15  1  0  0  0
 15 16  1  0  0  0
 16 17  1  0  0  0
 17 18  1  0  0  0
  5  1  1  0  0  0
 18 10  1  0  0  0
  8  4  1  0  0  0
 17 12  2  0  0  0
M  CHG 1  19  -1
M  END
> <minimizedAffinity>
-6.28681

> <CNNscore>
0.1973582506

> <CNNaffinity>
5.1882057190

> <CNN_VS>
1.0239351988

> <CNNaffinity_variance>
0.3077628613

$$$$
[H]c1nc([C@]2(c3c([H])c([H])c([H])c([H])c3[H])C([H])([H])[C@@]2([H])C([H])([H])N([H])[H])c([H])c([H])c1[H]


 19 21  0  0  0  0  0  0  0  0999 V2000
  158.9404  142.1694  181.1589 C   0  0  0  0  0  0  0  0  0  0  0  0
  158.5849  140.7437  181.5594 C   0  0  0  0  0  0  0  0  0  0  0  0
  158.1436  142.0117  182.3484 C   0  0  0  0  0  0  0  0  0  0  0  0
  156.6870  142.1210  182.4346 C   0  0  0  0  0  0  0  0  0  0  0  0
  156.1711  143.4223  182.4992 C   0  0  0  0  0  0  0  0  0  0  0  0
  154.8331  143.6447  182.5804 C   0  0  0  0  0  0  0  0  0  0  0  0
  153.9571  142.5794  182.6004 C   0  0  0  0  0  0  0  0  0  0  0  0
  154.4571  141.3113  182.5376 C   0  0  0  0  0  0  0  0  0  0  0  0
  155.8114  141.0705  182.4549 C   0  0  0  0  0  0  0  0  0  0  0  0
  158.8184  142.1501  183.6900 C   0  0  0  0  0  0  0  0  0  0  0  0
  159.8804  143.0120  183.8047 C   0  0  0  0  0  0  0  0  0  0  0  0
  160.5283  143.1739  185.0031 C   0  0  0  0  0  0  0  0  0  0  0  0
  160.0827  142.4420  186.1027 C   0  0  0  0  0  0  0  0  0  0  0  0
  159.0103  141.5984  185.9039 C   0  0  0  0  0  0  0  0  0  0  0  0
  158.3840  141.4462  184.7324 N   0  0  0  0  0  0  0  0  0  0  0  0
  157.8255  141.5052  179.1652 N   0  0  0  0  0  0  0  0  0  0  0  0
  158.4624  142.6546  179.8276 C   0  0  0  0  0  0  0  0  0  0  0  0
  157.2271  141.0036  179.8645 H   0  0  0  0  0  0  0  0  0  0  0  0
  158.5689  140.8644  178.7872 H   0  0  0  0  0  0  0  0  0  0  0  0
 16 17  1  0  0  0
 17  1  1  0  0  0
  1  2  1  0  0  0
  2  3  1  0  0  0
  3  4  1  0  0  0
  4  5  2  0  0  0
  5  6  1  0  0  0
  6  7  2  0  0  0
  7  8  1  0  0  0
  8  9  2  0  0  0
  3 10  1  0  0  0
 10 11  2  0  0  0
 11 12  1  0  0  0
 12 13  2  0  0  0
 13 14  1  0  0  0
 14 15  2  0  0  0
  3  1  1  0  0  0
  9  4  1  0  0  0
 15 10  1  0  0  0
 16 18  1  0  0  0
 16 19  1  0  0  0
M  END
> <minimizedAffinity>
-8.16109

> <CNNscore>
0.7430592775

> <CNNaffinity>
6.1977725029

> <CNN_VS>
4.6053123474

> <CNNaffinity_variance>
0.1654059142

$$$$
[H]c1nc([C@]2(c3c([H])c([H])c([H])c([H])c3[H])C([H])([H])[C@@]2([H])C([H])([H])N([H])[H])c([H])c([H])c1[H]


 19 21  0  0  0  0  0  0  0  0999 V2000
  159.0965  142.1177  181.6483 C   0  0  0  0  0  0  0  0  0  0  0  0
  158.9934  140.6817  182.1449 C   0  0  0  0  0  0  0  0  0  0  0  0
  158.4146  141.9142  182.9006 C   0  0  0  0  0  0  0  0  0  0  0  0
  156.9676  141.8076  183.0903 C   0  0  0  0  0  0  0  0  0  0  0  0
  156.4572  140.5077  183.2061 C   0  0  0  0  0  0  0  0  0  0  0  0
  155.1285  140.2878  183.3862 C   0  0  0  0  0  0  0  0  0  0  0  0
  154.2567  141.3542  183.4579 C   0  0  0  0  0  0  0  0  0  0  0  0
  154.7514  142.6210  183.3455 C   0  0  0  0  0  0  0  0  0  0  0  0
  156.0963  142.8593  183.1626 C   0  0  0  0  0  0  0  0  0  0  0  0
  159.1476  142.2340  184.1792 C   0  0  0  0  0  0  0  0  0  0  0  0
  158.7184  141.6509  185.3453 C   0  0  0  0  0  0  0  0  0  0  0  0
  159.3511  141.9090  186.5349 C   0  0  0  0  0  0  0  0  0  0  0  0
  160.4411  142.7781  186.5320 C   0  0  0  0  0  0  0  0  0  0  0  0
  160.8087  143.3218  185.3194 C   0  0  0  0  0  0  0  0  0  0  0  0
  160.1868  143.0652  184.1639 N   0  0  0  0  0  0  0  0  0  0  0  0
  158.0033  141.1680  179.7610 N   0  0  0  0  0  0  0  0  0  0  0  0
  158.4617  142.4435  180.3342 C   0  0  0  0  0  0  0  0  0  0  0  0
  157.5468  140.6044  180.5177 H   0  0  0  0  0  0  0  0  0  0  0  0
  158.8260  140.6503  179.3593 H   0  0  0  0  0  0  0  0  0  0  0  0
 16 17  1  0  0  0
 17  1  1  0  0  0
  1  2  1  0  0  0
  2  3  1  0  0  0
  3  4  1  0  0  0
  4  5  2  0  0  0
  5  6  1  0  0  0
  6  7  2  0  0  0
  7  8  1  0  0  0
  8  9  2  0  0  0
  3 10  1  0  0  0
 10 11  2  0  0  0
 11 12  1  0  0  0
 12 13  2  0  0  0
 13 14  1  0  0  0
 14 15  2  0  0  0
  3  1  1  0  0  0
  9  4  1  0  0  0
 15 10  1  0  0  0
 16 18  1  0  0  0
 16 19  1  0  0  0
M  END
> <minimizedAffinity>
-8.03493

> <CNNscore>
0.6882591248

> <CNNaffinity>
6.1636199951

> <CNN_VS>
4.2421674728

> <CNNaffinity_variance>
0.2035166025

$$$$
[H]c1nc([C@]2(c3c([H])c([H])c([H])c([H])c3[H])C([H])([H])[C@@]2([H])C([H])([H])N([H])[H])c([H])c([H])c1[H]


 19 21  0  0  0  0  0  0  0  0999 V2000
  157.8382  140.3807  183.9754 C   0  0  0  0  0  0  0  0  0  0  0  0
  159.1617  139.7780  183.5232 C   0  0  0  0  0  0  0  0  0  0  0  0
  158.9294  141.2980  183.7700 C   0  0  0  0  0  0  0  0  0  0  0  0
  159.8220  141.8256  184.8026 C   0  0  0  0  0  0  0  0  0  0  0  0
  161.1728  141.9389  184.4477 C   0  0  0  0  0  0  0  0  0  0  0  0
  162.0925  142.4175  185.3261 C   0  0  0  0  0  0  0  0  0  0  0  0
  161.7021  142.8017  186.5920 C   0  0  0  0  0  0  0  0  0  0  0  0
  160.3872  142.6922  186.9399 C   0  0  0  0  0  0  0  0  0  0  0  0
  159.4435  142.2088  186.0597 C   0  0  0  0  0  0  0  0  0  0  0  0
  158.9487  142.1219  182.5070 C   0  0  0  0  0  0  0  0  0  0  0  0
  158.8933  143.4892  182.6144 C   0  0  0  0  0  0  0  0  0  0  0  0
  158.9081  144.2835  181.4960 C   0  0  0  0  0  0  0  0  0  0  0  0
  158.9807  143.6693  180.2466 C   0  0  0  0  0  0  0  0  0  0  0  0
  159.0331  142.2916  180.2252 C   0  0  0  0  0  0  0  0  0  0  0  0
  159.0182  141.5243  181.3201 N   0  0  0  0  0  0  0  0  0  0  0  0
  156.0066  139.2698  185.0099 N   0  0  0  0  0  0  0  0  0  0  0  0
  157.2883  139.9353  185.2927 C   0  0  0  0  0  0  0  0  0  0  0  0
  156.1283  138.6469  184.1758 H   0  0  0  0  0  0  0  0  0  0  0  0
  155.2695  139.9968  184.8244 H   0  0  0  0  0  0  0  0  0  0  0  0
 16 17  1  0  0  0
 17  1  1  0  0  0
  1  2  1  0  0  0
  2  3  1  0  0  0
  3  4  1  0  0  0
  4  5  2  0  0  0
  5  6  1  0  0  0
  6  7  2  0  0  0
  7  8  1  0  0  0
  8  9  2  0  0  0
  3 10  1  0  0  0
 10 11  2  0  0  0
 11 12  1  0  0  0
 12 13  2  0  0  0
 13 14  1  0  0  0
 14 15  2  0  0  0
  3  1  1  0  0  0
  9  4  1  0  0  0
 15 10  1  0  0  0
 16 18  1  0  0  0
 16 19  1  0  0  0
M  END
> <minimizedAffinity>
-8.33525

> <CNNscore>
0.6813461185

> <CNNaffinity>
5.9002699852

> <CNN_VS>
4.0201258659

> <CNNaffinity_variance>
0.0317493863

$$$$
[H]c1nc([C@]2(c3c([H])c([H])c([H])c([H])c3[H])C([H])([H])[C@@]2([H])C([H])([H])N([H])[H])c([H])c([H])c1[H]


 19 21  0  0  0  0  0  0  0  0999 V2000
  158.9530  142.1962  181.1410 C   0  0  0  0  0  0  0  0  0  0  0  0
  158.6188  140.7699  181.5575 C   0  0  0  0  0  0  0  0  0  0  0  0
  158.1694  142.0395  182.3393 C   0  0  0  0  0  0  0  0  0  0  0  0
  156.7124  142.1317  182.4383 C   0  0  0  0  0  0  0  0  0  0  0  0
  156.1805  143.4273  182.4861 C   0  0  0  0  0  0  0  0  0  0  0  0
  154.8407  143.6341  182.5771 C   0  0  0  0  0  0  0  0  0  0  0  0
  153.9786  142.5584  182.6240 C   0  0  0  0  0  0  0  0  0  0  0  0
  154.4942  141.2958  182.5776 C   0  0  0  0  0  0  0  0  0  0  0  0
  155.8506  141.0708  182.4853 C   0  0  0  0  0  0  0  0  0  0  0  0
  158.8550  142.1982  183.6731 C   0  0  0  0  0  0  0  0  0  0  0  0
  158.3720  141.4934  184.7474 C   0  0  0  0  0  0  0  0  0  0  0  0
  158.9601  141.6028  185.9820 C   0  0  0  0  0  0  0  0  0  0  0  0
  160.0607  142.4471  186.1205 C   0  0  0  0  0  0  0  0  0  0  0  0
  160.4835  143.1191  184.9932 C   0  0  0  0  0  0  0  0  0  0  0  0
  159.9048  143.0072  183.7930 N   0  0  0  0  0  0  0  0  0  0  0  0
  157.8266  141.5007  179.1645 N   0  0  0  0  0  0  0  0  0  0  0  0
  158.4566  142.6635  179.8100 C   0  0  0  0  0  0  0  0  0  0  0  0
  157.2408  140.9989  179.8741 H   0  0  0  0  0  0  0  0  0  0  0  0
  158.5736  140.8650  178.7851 H   0  0  0  0  0  0  0  0  0  0  0  0
 16 17  1  0  0  0
 17  1  1  0  0  0
  1  2  1  0  0  0
  2  3  1  0  0  0
  3  4  1  0  0  0
  4  5  2  0  0  0
  5  6  1  0  0  0
  6  7  2  0  0  0
  7  8  1  0  0  0
  8  9  2  0  0  0
  3 10  1  0  0  0
 10 11  2  0  0  0
 11 12  1  0  0  0
 12 13  2  0  0  0
 13 14  1  0  0  0
 14 15  2  0  0  0
  3  1  1  0  0  0
  9  4  1  0  0  0
 15 10  1  0  0  0
 16 18  1  0  0  0
 16 19  1  0  0  0
M  END
> <minimizedAffinity>
-8.34292

> <CNNscore>
0.6599798203

> <CNNaffinity>
6.1357398033

> <CNN_VS>
4.0494642258

> <CNNaffinity_variance>
0.1410375684

$$$$
[H]c1nc([C@]2(c3c([H])c([H])c([H])c([H])c3[H])C([H])([H])[C@@]2([H])C([H])([H])N([H])[H])c([H])c([H])c1[H]


 19 21  0  0  0  0  0  0  0  0999 V2000
  152.6378  135.1373  188.6898 C   0  0  0  0  0  0  0  0  0  0  0  0
  152.1641  136.5818  188.5979 C   0  0  0  0  0  0  0  0  0  0  0  0
  152.8077  135.9493  189.8671 C   0  0  0  0  0  0  0  0  0  0  0  0
  154.0290  136.6497  190.2660 C   0  0  0  0  0  0  0  0  0  0  0  0
  154.9184  135.9245  191.0702 C   0  0  0  0  0  0  0  0  0  0  0  0
  156.0849  136.4733  191.4996 C   0  0  0  0  0  0  0  0  0  0  0  0
  156.4106  137.7657  191.1447 C   0  0  0  0  0  0  0  0  0  0  0  0
  155.5461  138.4739  190.3616 C   0  0  0  0  0  0  0  0  0  0  0  0
  154.3598  137.9305  189.9187 C   0  0  0  0  0  0  0  0  0  0  0  0
  151.8380  135.7733  191.0086 C   0  0  0  0  0  0  0  0  0  0  0  0
  151.6826  136.8032  191.9025 C   0  0  0  0  0  0  0  0  0  0  0  0
  150.8131  136.6930  192.9579 C   0  0  0  0  0  0  0  0  0  0  0  0
  150.0903  135.5097  193.1017 C   0  0  0  0  0  0  0  0  0  0  0  0
  150.3042  134.5239  192.1616 C   0  0  0  0  0  0  0  0  0  0  0  0
  151.1537  134.6390  191.1354 N   0  0  0  0  0  0  0  0  0  0  0  0
  153.8333  135.7528  186.7274 N   0  0  0  0  0  0  0  0  0  0  0  0
  153.7151  134.7003  187.7492 C   0  0  0  0  0  0  0  0  0  0  0  0
  153.8019  136.6868  187.2020 H   0  0  0  0  0  0  0  0  0  0  0  0
  153.0437  135.6609  186.0388 H   0  0  0  0  0  0  0  0  0  0  0  0
 16 17  1  0  0  0
 17  1  1  0  0  0
  1  2  1  0  0  0
  2  3  1  0  0  0
  3  4  1  0  0  0
  4  5  2  0  0  0
  5  6  1  0  0  0
  6  7  2  0  0  0
  7  8  1  0  0  0
  8  9  2  0  0  0
  3 10  1  0  0  0
 10 11  2  0  0  0
 11 12  1  0  0  0
 12 13  2  0  0  0
 13 14  1  0  0  0
 14 15  2  0  0  0
  3  1  1  0  0  0
  9  4  1  0  0  0
 15 10  1  0  0  0
 16 18  1  0  0  0
 16 19  1  0  0  0
M  END
> <minimizedAffinity>
-4.79923

> <CNNscore>
0.6170433760

> <CNNaffinity>
4.4027495384

> <CNN_VS>
2.7166874409

> <CNNaffinity_variance>
0.0212146454

$$$$
[H]c1nc([C@]2(c3c([H])c([H])c([H])c([H])c3[H])C([H])([H])[C@@]2([H])C([H])([H])N([H])[H])c([H])c([H])c1[H]


 19 21  0  0  0  0  0  0  0  0999 V2000
  158.4777  140.4350  184.2431 C   0  0  0  0  0  0  0  0  0  0  0  0
  157.7464  141.6997  184.6734 C   0  0  0  0  0  0  0  0  0  0  0  0
  159.1442  141.6859  183.9868 C   0  0  0  0  0  0  0  0  0  0  0  0
  159.1391  142.4260  182.7245 C   0  0  0  0  0  0  0  0  0  0  0  0
  159.0795  143.8219  182.8309 C   0  0  0  0  0  0  0  0  0  0  0  0
  159.0704  144.6114  181.7250 C   0  0  0  0  0  0  0  0  0  0  0  0
  159.1204  144.0408  180.4702 C   0  0  0  0  0  0  0  0  0  0  0  0
  159.1786  142.6816  180.3641 C   0  0  0  0  0  0  0  0  0  0  0  0
  159.1885  141.8685  181.4766 C   0  0  0  0  0  0  0  0  0  0  0  0
  160.2676  142.1033  184.9022 C   0  0  0  0  0  0  0  0  0  0  0  0
  161.5586  141.9939  184.4489 C   0  0  0  0  0  0  0  0  0  0  0  0
  162.6159  142.3603  185.2426 C   0  0  0  0  0  0  0  0  0  0  0  0
  162.3486  142.8467  186.5214 C   0  0  0  0  0  0  0  0  0  0  0  0
  161.0252  142.9254  186.9004 C   0  0  0  0  0  0  0  0  0  0  0  0
  160.0000  142.5662  186.1208 N   0  0  0  0  0  0  0  0  0  0  0  0
  156.4257  140.0405  183.1063 N   0  0  0  0  0  0  0  0  0  0  0  0
  157.8111  139.5600  183.2301 C   0  0  0  0  0  0  0  0  0  0  0  0
  156.4352  141.0880  183.0721 H   0  0  0  0  0  0  0  0  0  0  0  0
  155.8642  139.7022  183.9287 H   0  0  0  0  0  0  0  0  0  0  0  0
 16 17  1  0  0  0
 17  1  1  0  0  0
  1  2  1  0  0  0
  2  3  1  0  0  0
  3  4  1  0  0  0
  4  5  2  0  0  0
  5  6  1  0  0  0
  6  7  2  0  0  0
  7  8  1  0  0  0
  8  9  2  0  0  0
  3 10  1  0  0  0
 10 11  2  0  0  0
 11 12  1  0  0  0
 12 13  2  0  0  0
 13 14  1  0  0  0
 14 15  2  0  0  0
  3  1  1  0  0  0
  9  4  1  0  0  0
 15 10  1  0  0  0
 16 18  1  0  0  0
 16 19  1  0  0  0
M  END
> <minimizedAffinity>
-8.18853

> <CNNscore>
0.5871605873

> <CNNaffinity>
5.9838533401

> <CNN_VS>
3.5134828091

> <CNNaffinity_variance>
0.0321004838

$$$$
[H]c1nc([C@]2(c3c([H])c([H])c([H])c([H])c3[H])C([H])([H])[C@@]2([H])C([H])([H])N([H])[H])c([H])c([H])c1[H]


 19 21  0  0  0  0  0  0  0  0999 V2000
  157.7958  142.6609  181.1751 C   0  0  0  0  0  0  0  0  0  0  0  0
  157.3534  143.6294  182.2640 C   0  0  0  0  0  0  0  0  0  0  0  0
  158.0159  142.2467  182.5369 C   0  0  0  0  0  0  0  0  0  0  0  0
  159.2633  142.3788  183.2903 C   0  0  0  0  0  0  0  0  0  0  0  0
  160.1709  141.3183  183.1670 C   0  0  0  0  0  0  0  0  0  0  0  0
  161.3622  141.3332  183.8204 C   0  0  0  0  0  0  0  0  0  0  0  0
  161.6956  142.4051  184.6219 C   0  0  0  0  0  0  0  0  0  0  0  0
  160.8134  143.4390  184.7436 C   0  0  0  0  0  0  0  0  0  0  0  0
  159.6018  143.4377  184.0871 C   0  0  0  0  0  0  0  0  0  0  0  0
  157.0733  141.2377  183.1433 C   0  0  0  0  0  0  0  0  0  0  0  0
  157.4091  140.6651  184.3447 C   0  0  0  0  0  0  0  0  0  0  0  0
  156.5858  139.7420  184.9381 C   0  0  0  0  0  0  0  0  0  0  0  0
  155.3991  139.3986  184.2921 C   0  0  0  0  0  0  0  0  0  0  0  0
  155.1356  140.0191  183.0893 C   0  0  0  0  0  0  0  0  0  0  0  0
  155.9434  140.9181  182.5173 N   0  0  0  0  0  0  0  0  0  0  0  0
  158.6680  142.3328  178.9864 N   0  0  0  0  0  0  0  0  0  0  0  0
  158.8371  143.1316  180.2106 C   0  0  0  0  0  0  0  0  0  0  0  0
  157.6450  142.2636  178.7690 H   0  0  0  0  0  0  0  0  0  0  0  0
  159.0805  141.3766  179.1339 H   0  0  0  0  0  0  0  0  0  0  0  0
 16 17  1  0  0  0
 17  1  1  0  0  0
  1  2  1  0  0  0
  2  3  1  0  0  0
  3  4  1  0  0  0
  4  5  2  0  0  0
  5  6  1  0  0  0
  6  7  2  0  0  0
  7  8  1  0  0  0
  8  9  2  0  0  0
  3 10  1  0  0  0
 10 11  2  0  0  0
 11 12  1  0  0  0
 12 13  2  0  0  0
 13 14  1  0  0  0
 14 15  2  0  0  0
  3  1  1  0  0  0
  9  4  1  0  0  0
 15 10  1  0  0  0
 16 18  1  0  0  0
 16 19  1  0  0  0
M  END
> <minimizedAffinity>
-7.16219

> <CNNscore>
0.5661609769

> <CNNaffinity>
6.0327348709

> <CNN_VS>
3.4154989719

> <CNNaffinity_variance>
0.1720120609

$$$$
[H]c1nc([C@]2(c3c([H])c([H])c([H])c([H])c3[H])C([H])([H])[C@@]2([H])C([H])([H])N([H])[H])c([H])c([H])c1[H]


 19 21  0  0  0  0  0  0  0  0999 V2000
  159.0069  142.7356  181.8171 C   0  0  0  0  0  0  0  0  0  0  0  0
  159.2156  141.2399  182.0138 C   0  0  0  0  0  0  0  0  0  0  0  0
  158.4543  142.1579  183.0153 C   0  0  0  0  0  0  0  0  0  0  0  0
  157.0699  141.7248  183.2079 C   0  0  0  0  0  0  0  0  0  0  0  0
  156.1216  142.7459  183.3558 C   0  0  0  0  0  0  0  0  0  0  0  0
  154.8056  142.4617  183.5392 C   0  0  0  0  0  0  0  0  0  0  0  0
  154.3832  141.1493  183.5824 C   0  0  0  0  0  0  0  0  0  0  0  0
  155.3048  140.1533  183.4386 C   0  0  0  0  0  0  0  0  0  0  0  0
  156.6425  140.4264  183.2519 C   0  0  0  0  0  0  0  0  0  0  0  0
  159.1864  142.3644  184.3174 C   0  0  0  0  0  0  0  0  0  0  0  0
  160.2709  143.2057  184.3344 C   0  0  0  0  0  0  0  0  0  0  0  0
  160.9708  143.4273  185.4933 C   0  0  0  0  0  0  0  0  0  0  0  0
  160.5548  142.7776  186.6545 C   0  0  0  0  0  0  0  0  0  0  0  0
  159.4570  141.9496  186.5529 C   0  0  0  0  0  0  0  0  0  0  0  0
  158.7799  141.7387  185.4193 N   0  0  0  0  0  0  0  0  0  0  0  0
  159.1841  143.1349  179.4787 N   0  0  0  0  0  0  0  0  0  0  0  0
  158.2428  143.1754  180.6092 C   0  0  0  0  0  0  0  0  0  0  0  0
  159.7430  142.2502  179.5385 H   0  0  0  0  0  0  0  0  0  0  0  0
  159.8155  143.9750  179.5201 H   0  0  0  0  0  0  0  0  0  0  0  0
 16 17  1  0  0  0
 17  1  1  0  0  0
  1  2  1  0  0  0
  2  3  1  0  0  0
  3  4  1  0  0  0
  4  5  2  0  0  0
  5  6  1  0  0  0
  6  7  2  0  0  0
  7  8  1  0  0  0
  8  9  2  0  0  0
  3 10  1  0  0  0
 10 11  2  0  0  0
 11 12  1  0  0  0
 12 13  2  0  0  0
 13 14  1  0  0  0
 14 15  2  0  0  0
  3  1  1  0  0  0
  9  4  1  0  0  0
 15 10  1  0  0  0
 16 18  1  0  0  0
 16 19  1  0  0  0
M  END
> <minimizedAffinity>
-7.40842

> <CNNscore>
0.5586715341

> <CNNaffinity>
6.0200333595

> <CNN_VS>
3.3632211685

> <CNNaffinity_variance>
0.2139114887

$$$$
[H]c1nc([C@]2(c3c([H])c([H])c([H])c([H])c3[H])C([H])([H])[C@@]2([H])C([H])([H])N([H])[H])c([H])c([H])c1[H]


 19 21  0  0  0  0  0  0  0  0999 V2000
  156.7266  141.8532  181.7116 C   0  0  0  0  0  0  0  0  0  0  0  0
  156.3178  142.8259  182.8099 C   0  0  0  0  0  0  0  0  0  0  0  0
  156.9883  141.4442  183.0676 C   0  0  0  0  0  0  0  0  0  0  0  0
  158.2583  141.5790  183.7820 C   0  0  0  0  0  0  0  0  0  0  0  0
  159.4139  141.3079  183.0373 C   0  0  0  0  0  0  0  0  0  0  0  0
  160.6487  141.4020  183.5966 C   0  0  0  0  0  0  0  0  0  0  0  0
  160.7801  141.7699  184.9195 C   0  0  0  0  0  0  0  0  0  0  0  0
  159.6561  142.0344  185.6467 C   0  0  0  0  0  0  0  0  0  0  0  0
  158.3976  141.9431  185.0929 C   0  0  0  0  0  0  0  0  0  0  0  0
  156.0648  140.4377  183.7064 C   0  0  0  0  0  0  0  0  0  0  0  0
  154.8092  140.2708  183.1777 C   0  0  0  0  0  0  0  0  0  0  0  0
  153.9313  139.3680  183.7220 C   0  0  0  0  0  0  0  0  0  0  0  0
  154.3443  138.6233  184.8257 C   0  0  0  0  0  0  0  0  0  0  0  0
  155.6203  138.8506  185.2960 C   0  0  0  0  0  0  0  0  0  0  0  0
  156.4703  139.7326  184.7597 N   0  0  0  0  0  0  0  0  0  0  0  0
  157.8293  141.2714  179.6856 N   0  0  0  0  0  0  0  0  0  0  0  0
  157.7379  142.3202  180.7139 C   0  0  0  0  0  0  0  0  0  0  0  0
  156.8605  140.9520  179.4445 H   0  0  0  0  0  0  0  0  0  0  0  0
  158.4020  140.4701  180.0544 H   0  0  0  0  0  0  0  0  0  0  0  0
 16 17  1  0  0  0
 17  1  1  0  0  0
  1  2  1  0  0  0
  2  3  1  0  0  0
  3  4  1  0  0  0
  4  5  2  0  0  0
  5  6  1  0  0  0
  6  7  2  0  0  0
  7  8  1  0  0  0
  8  9  2  0  0  0
  3 10  1  0  0  0
 10 11  2  0  0  0
 11 12  1  0  0  0
 12 13  2  0  0  0
 13 14  1  0  0  0
 14 15  2  0  0  0
  3  1  1  0  0  0
  9  4  1  0  0  0
 15 10  1  0  0  0
 16 18  1  0  0  0
 16 19  1  0  0  0
M  END
> <minimizedAffinity>
-6.71418

> <CNNscore>
0.5477728844

> <CNNaffinity>
5.7747263908

> <CNN_VS>
3.1632385254

> <CNNaffinity_variance>
0.1715482026

$$$$
[H]C1=C([H])C([H])(F)C([H])([H])C([H])=C1N([H])C(=O)C1(C(=O)N([H])c2c([H])c([H])c(Oc3nc([H])nc4c([H])c(OC([H])([H])C([H])([H])C([H])([H])N5C([H])([H])C([H])([H])OC([H])([H])C5([H])[H])c(OC([H])([H])[H])c([H])c34)c(F)c2[H])C([H])([H])C1([H])[H]


 48 53  0  0  0  0  0  0  0  0999 V2000
  153.4135  137.6637  184.1865 C   0  0  0  0  0  0  0  0  0  0  0  0
  152.4726  137.2406  185.0799 C   0  0  0  0  0  0  0  0  0  0  0  0
  152.6017  137.4499  186.4263 C   0  0  0  0  0  0  0  0  0  0  0  0
  153.7222  138.1131  186.9088 C   0  0  0  0  0  0  0  0  0  0  0  0
  154.6729  138.5446  186.0506 C   0  0  0  0  0  0  0  0  0  0  0  0
  154.5105  138.3142  184.6712 C   0  0  0  0  0  0  0  0  0  0  0  0
  155.4576  138.7655  183.8476 F   0  0  0  0  0  0  0  0  0  0  0  0
  153.8096  138.2778  188.3283 N   0  0  0  0  0  0  0  0  0  0  0  0
  154.4360  137.4466  189.2295 C   0  0  0  0  0  0  0  0  0  0  0  0
  155.0008  136.3898  188.7626 O   0  0  0  0  0  0  0  0  0  0  0  0
  153.2758  139.1190  188.6978 H   0  0  0  0  0  0  0  0  0  0  0  0
  154.5462  137.5962  190.6857 C   0  0  0  0  0  0  0  0  0  0  0  0
  154.9610  138.9838  191.1862 C   0  0  0  0  0  0  0  0  0  0  0  0
  155.9532  137.9116  191.1561 C   0  0  0  0  0  0  0  0  0  0  0  0
  153.6640  136.9221  191.6384 C   0  0  0  0  0  0  0  0  0  0  0  0
  154.2086  135.8662  192.1847 O   0  0  0  0  0  0  0  0  0  0  0  0
  152.3719  137.2493  192.0318 N   0  0  0  0  0  0  0  0  0  0  0  0
  151.8497  138.0646  191.7334 H   0  0  0  0  0  0  0  0  0  0  0  0
  151.7139  136.3982  192.9884 C   0  0  0  0  0  0  0  0  0  0  0  0
  150.4714  136.0388  192.7911 C   0  0  0  0  0  0  0  0  0  0  0  0
  149.6683  135.1782  193.6718 C   0  0  0  0  0  0  0  0  0  0  0  0
  150.3685  134.7079  194.8978 C   0  0  0  0  0  0  0  0  0  0  0  0
  149.6897  135.2139  196.0149 F   0  0  0  0  0  0  0  0  0  0  0  0
  151.7636  135.1678  195.0252 C   0  0  0  0  0  0  0  0  0  0  0  0
  152.4010  135.9314  194.1816 C   0  0  0  0  0  0  0  0  0  0  0  0
  153.2517  137.4393  182.8469 O   0  0  0  0  0  0  0  0  0  0  0  0
  149.5677  136.4370  181.2336 C   0  0  0  0  0  0  0  0  0  0  0  0
  150.7902  136.8112  181.7493 C   0  0  0  0  0  0  0  0  0  0  0  0
  151.3677  138.0413  181.5123 C   0  0  0  0  0  0  0  0  0  0  0  0
  152.6114  138.3833  182.0591 C   0  0  0  0  0  0  0  0  0  0  0  0
  153.0815  139.5911  181.7759 N   0  0  0  0  0  0  0  0  0  0  0  0
  152.3956  140.4414  181.0023 C   0  0  0  0  0  0  0  0  0  0  0  0
  151.2067  140.1340  180.4707 N   0  0  0  0  0  0  0  0  0  0  0  0
  150.6751  138.9226  180.7210 C   0  0  0  0  0  0  0  0  0  0  0  0
  149.4406  138.5549  180.1954 C   0  0  0  0  0  0  0  0  0  0  0  0
  148.8922  137.3277  180.4478 C   0  0  0  0  0  0  0  0  0  0  0  0
  148.2747  134.8363  182.6087 C   0  0  0  0  0  0  0  0  0  0  0  0
  148.9828  135.2079  181.4661 O   0  0  0  0  0  0  0  0  0  0  0  0
  147.6549  137.0514  179.8795 O   0  0  0  0  0  0  0  0  0  0  0  0
  146.4967  137.7900  180.1644 C   0  0  0  0  0  0  0  0  0  0  0  0
  145.3105  137.2076  179.4639 C   0  0  0  0  0  0  0  0  0  0  0  0
  145.1593  137.7356  178.0742 C   0  0  0  0  0  0  0  0  0  0  0  0
  145.8855  136.8717  177.1613 N   0  0  0  0  0  0  0  0  0  0  0  0
  144.9301  135.9232  176.6161 C   0  0  0  0  0  0  0  0  0  0  0  0
  144.7034  136.1933  175.1298 C   0  0  0  0  0  0  0  0  0  0  0  0
  145.9167  136.0405  174.4964 O   0  0  0  0  0  0  0  0  0  0  0  0
  146.9099  136.8775  174.9310 C   0  0  0  0  0  0  0  0  0  0  0  0
  146.5455  137.6587  176.1694 C   0  0  0  0  0  0  0  0  0  0  0  0
 37 38  1  0  0  0
 38 27  1  0  0  0
 27 28  2  0  0  0
 28 29  1  0  0  0
 29 30  2  0  0  0
 30 26  1  0  0  0
 26  1  1  0  0  0
  1  2  2  0  0  0
  2  3  1  0  0  0
  3  4  2  0  0  0
  4  8  1  0  0  0
  8  9  1  0  0  0
  9 10  2  0  0  0
  9 12  1  0  0  0
 12 13  1  0  0  0
 13 14  1  0  0  0
 12 15  1  0  0  0
 15 16  2  0  0  0
 15 17  1  0  0  0
 17 19  1  0  0  0
 19 20  2  0  0  0
 20 21  1  0  0  0
 21 22  1  0  0  0
 22 23  1  0  0  0
 22 24  1  0  0  0
 24 25  2  0  0  0
  4  5  1  0  0  0
  5  6  2  0  0  0
  6  7  1  0  0  0
 30 31  1  0  0  0
 31 32  2  0  0  0
 32 33  1  0  0  0
 33 34  2  0  0  0
 34 35  1  0  0  0
 35 36  2  0  0  0
 36 39  1  0  0  0
 39 40  1  0  0  0
 40 41  1  0  0  0
 41 42  1  0  0  0
 42 43  1  0  0  0
 43 44  1  0  0  0
 44 45  1  0  0  0
 45 46  1  0  0  0
 46 47  1  0  0  0
 47 48  1  0  0  0
 36 27  1  0  0  0
 48 43  1  0  0  0
 34 29  1  0  0  0
  6  1  1  0  0  0
 14 12  1  0  0  0
 25 19  1  0  0  0
  8 11  1  0  0  0
 17 18  1  0  0  0
M  END
> <minimizedAffinity>
-7.71586

> <CNNscore>
0.3211524189

> <CNNaffinity>
6.0046205521

> <CNN_VS>
1.9283983707

> <CNNaffinity_variance>
0.1584502012

$$$$
[H]C1=C([H])C([H])(F)C([H])([H])C([H])=C1N([H])C(=O)C1(C(=O)N([H])c2c([H])c([H])c(Oc3nc([H])nc4c([H])c(OC([H])([H])C([H])([H])C([H])([H])N5C([H])([H])C([H])([H])OC([H])([H])C5([H])[H])c(OC([H])([H])[H])c([H])c34)c(F)c2[H])C([H])([H])C1([H])[H]


 48 53  0  0  0  0  0  0  0  0999 V2000
  153.2725  137.6122  184.3453 C   0  0  0  0  0  0  0  0  0  0  0  0
  152.2663  137.2896  185.2090 C   0  0  0  0  0  0  0  0  0  0  0  0
  152.3843  137.4644  186.5613 C   0  0  0  0  0  0  0  0  0  0  0  0
  153.5615  137.9861  187.0811 C   0  0  0  0  0  0  0  0  0  0  0  0
  154.5775  138.3153  186.2529 C   0  0  0  0  0  0  0  0  0  0  0  0
  154.4247  138.1240  184.8665 C   0  0  0  0  0  0  0  0  0  0  0  0
  155.4386  138.4729  184.0732 F   0  0  0  0  0  0  0  0  0  0  0  0
  153.6311  138.1204  188.5048 N   0  0  0  0  0  0  0  0  0  0  0  0
  154.3736  137.3613  189.3810 C   0  0  0  0  0  0  0  0  0  0  0  0
  155.0812  136.4098  188.8831 O   0  0  0  0  0  0  0  0  0  0  0  0
  152.9846  138.8659  188.8990 H   0  0  0  0  0  0  0  0  0  0  0  0
  154.4682  137.4829  190.8409 C   0  0  0  0  0  0  0  0  0  0  0  0
  154.9473  138.8390  191.3696 C   0  0  0  0  0  0  0  0  0  0  0  0
  155.8821  137.7164  191.3376 C   0  0  0  0  0  0  0  0  0  0  0  0
  153.5365  136.8421  191.7692 C   0  0  0  0  0  0  0  0  0  0  0  0
  153.6691  135.5420  191.8147 O   0  0  0  0  0  0  0  0  0  0  0  0
  152.5687  137.4137  192.5865 N   0  0  0  0  0  0  0  0  0  0  0  0
  152.3930  138.4058  192.6930 H   0  0  0  0  0  0  0  0  0  0  0  0
  151.7658  136.5429  193.4047 C   0  0  0  0  0  0  0  0  0  0  0  0
  152.2256  136.1288  194.5576 C   0  0  0  0  0  0  0  0  0  0  0  0
  151.5283  135.2421  195.5003 C   0  0  0  0  0  0  0  0  0  0  0  0
  150.1841  134.7849  195.0543 C   0  0  0  0  0  0  0  0  0  0  0  0
  150.2137  133.3897  194.9239 F   0  0  0  0  0  0  0  0  0  0  0  0
  149.7591  135.3084  193.7430 C   0  0  0  0  0  0  0  0  0  0  0  0
  150.4489  136.1036  192.9730 C   0  0  0  0  0  0  0  0  0  0  0  0
  153.1200  137.4261  182.9987 O   0  0  0  0  0  0  0  0  0  0  0  0
  149.6502  136.8832  180.7978 C   0  0  0  0  0  0  0  0  0  0  0  0
  150.8082  137.1059  181.5119 C   0  0  0  0  0  0  0  0  0  0  0  0
  151.5184  138.2870  181.4539 C   0  0  0  0  0  0  0  0  0  0  0  0
  152.6897  138.4738  182.1993 C   0  0  0  0  0  0  0  0  0  0  0  0
  153.2993  139.6459  182.0785 N   0  0  0  0  0  0  0  0  0  0  0  0
  152.8139  140.6040  181.2795 C   0  0  0  0  0  0  0  0  0  0  0  0
  151.6971  140.4453  180.5596 N   0  0  0  0  0  0  0  0  0  0  0  0
  151.0317  139.2776  180.6387 C   0  0  0  0  0  0  0  0  0  0  0  0
  149.8639  139.0632  179.9136 C   0  0  0  0  0  0  0  0  0  0  0  0
  149.1803  137.8812  179.9912 C   0  0  0  0  0  0  0  0  0  0  0  0
  149.2160  134.5369  180.1409 C   0  0  0  0  0  0  0  0  0  0  0  0
  148.9334  135.7040  180.8503 O   0  0  0  0  0  0  0  0  0  0  0  0
  148.0241  137.7604  179.2304 O   0  0  0  0  0  0  0  0  0  0  0  0
  146.7594  138.1614  179.6863 C   0  0  0  0  0  0  0  0  0  0  0  0
  146.8620  138.8175  181.0264 C   0  0  0  0  0  0  0  0  0  0  0  0
  146.3365  137.9487  182.1227 C   0  0  0  0  0  0  0  0  0  0  0  0
  146.6812  138.5443  183.4008 N   0  0  0  0  0  0  0  0  0  0  0  0
  145.4839  138.5201  184.2227 C   0  0  0  0  0  0  0  0  0  0  0  0
  145.6563  137.5411  185.3827 C   0  0  0  0  0  0  0  0  0  0  0  0
  146.7224  137.9817  186.1349 O   0  0  0  0  0  0  0  0  0  0  0  0
  147.9151  138.0578  185.4659 C   0  0  0  0  0  0  0  0  0  0  0  0
  147.7889  137.8512  183.9766 C   0  0  0  0  0  0  0  0  0  0  0  0
 37 38  1  0  0  0
 38 27  1  0  0  0
 27 28  2  0  0  0
 28 29  1  0  0  0
 29 30  2  0  0  0
 30 26  1  0  0  0
 26  1  1  0  0  0
  1  2  2  0  0  0
  2  3  1  0  0  0
  3  4  2  0  0  0
  4  8  1  0  0  0
  8  9  1  0  0  0
  9 10  2  0  0  0
  9 12  1  0  0  0
 12 13  1  0  0  0
 13 14  1  0  0  0
 12 15  1  0  0  0
 15 16  2  0  0  0
 15 17  1  0  0  0
 17 19  1  0  0  0
 19 20  2  0  0  0
 20 21  1  0  0  0
 21 22  1  0  0  0
 22 23  1  0  0  0
 22 24  1  0  0  0
 24 25  2  0  0  0
  4  5  1  0  0  0
  5  6  2  0  0  0
  6  7  1  0  0  0
 30 31  1  0  0  0
 31 32  2  0  0  0
 32 33  1  0  0  0
 33 34  2  0  0  0
 34 35  1  0  0  0
 35 36  2  0  0  0
 36 39  1  0  0  0
 39 40  1  0  0  0
 40 41  1  0  0  0
 41 42  1  0  0  0
 42 43  1  0  0  0
 43 44  1  0  0  0
 44 45  1  0  0  0
 45 46  1  0  0  0
 46 47  1  0  0  0
 47 48  1  0  0  0
 36 27  1  0  0  0
 48 43  1  0  0  0
 34 29  1  0  0  0
  6  1  1  0  0  0
 14 12  1  0  0  0
 25 19  1  0  0  0
  8 11  1  0  0  0
 17 18  1  0  0  0
M  END
> <minimizedAffinity>
-8.03980

> <CNNscore>
0.2950086892

> <CNNaffinity>
6.3805856705

> <CNN_VS>
1.8823282719

> <CNNaffinity_variance>
0.2655120790

$$$$
[H]C1=C([H])C([H])(F)C([H])([H])C([H])=C1N([H])C(=O)C1(C(=O)N([H])c2c([H])c([H])c(Oc3nc([H])nc4c([H])c(OC([H])([H])C([H])([H])C([H])([H])N5C([H])([H])C([H])([H])OC([H])([H])C5([H])[H])c(OC([H])([H])[H])c([H])c34)c(F)c2[H])C([H])([H])C1([H])[H]


 48 53  0  0  0  0  0  0  0  0999 V2000
  154.9469  137.7361  186.4571 C   0  0  0  0  0  0  0  0  0  0  0  0
  153.7543  138.2710  186.8497 C   0  0  0  0  0  0  0  0  0  0  0  0
  153.3018  138.1728  188.1377 C   0  0  0  0  0  0  0  0  0  0  0  0
  154.0734  137.5098  189.0827 C   0  0  0  0  0  0  0  0  0  0  0  0
  155.2593  136.9682  188.7263 C   0  0  0  0  0  0  0  0  0  0  0  0
  155.6971  137.0867  187.3935 C   0  0  0  0  0  0  0  0  0  0  0  0
  156.8786  136.5558  187.0755 F   0  0  0  0  0  0  0  0  0  0  0  0
  153.5325  137.4199  190.4053 N   0  0  0  0  0  0  0  0  0  0  0  0
  152.8524  136.3594  190.9603 C   0  0  0  0  0  0  0  0  0  0  0  0
  152.6599  135.3284  190.2160 O   0  0  0  0  0  0  0  0  0  0  0  0
  153.6419  138.3092  190.9765 H   0  0  0  0  0  0  0  0  0  0  0  0
  152.2953  136.2393  192.3131 C   0  0  0  0  0  0  0  0  0  0  0  0
  151.0062  137.0243  192.5779 C   0  0  0  0  0  0  0  0  0  0  0  0
  152.2752  137.5494  193.0770 C   0  0  0  0  0  0  0  0  0  0  0  0
  152.3493  135.0104  193.1053 C   0  0  0  0  0  0  0  0  0  0  0  0
  153.0255  135.1447  194.2164 O   0  0  0  0  0  0  0  0  0  0  0  0
  151.7893  133.7653  192.8457 N   0  0  0  0  0  0  0  0  0  0  0  0
  151.1994  133.5335  192.0553 H   0  0  0  0  0  0  0  0  0  0  0  0
  152.0086  132.7071  193.7967 C   0  0  0  0  0  0  0  0  0  0  0  0
  152.9620  131.8353  193.5896 C   0  0  0  0  0  0  0  0  0  0  0  0
  153.3071  130.7049  194.4639 C   0  0  0  0  0  0  0  0  0  0  0  0
  152.4572  130.5685  195.6778 C   0  0  0  0  0  0  0  0  0  0  0  0
  151.7829  129.3417  195.6086 F   0  0  0  0  0  0  0  0  0  0  0  0
  151.4134  131.6005  195.8182 C   0  0  0  0  0  0  0  0  0  0  0  0
  151.1841  132.5793  194.9874 C   0  0  0  0  0  0  0  0  0  0  0  0
  155.3697  137.8543  185.1616 O   0  0  0  0  0  0  0  0  0  0  0  0
  152.3611  138.7522  182.4558 C   0  0  0  0  0  0  0  0  0  0  0  0
  153.3802  138.4949  183.3478 C   0  0  0  0  0  0  0  0  0  0  0  0
  154.3805  139.3998  183.6365 C   0  0  0  0  0  0  0  0  0  0  0  0
  155.3966  139.0996  184.5530 C   0  0  0  0  0  0  0  0  0  0  0  0
  156.3112  140.0368  184.7656 N   0  0  0  0  0  0  0  0  0  0  0  0
  156.2620  141.2144  184.1311 C   0  0  0  0  0  0  0  0  0  0  0  0
  155.3002  141.5204  183.2524 N   0  0  0  0  0  0  0  0  0  0  0  0
  154.3418  140.6110  182.9930 C   0  0  0  0  0  0  0  0  0  0  0  0
  153.3178  140.8809  182.0908 C   0  0  0  0  0  0  0  0  0  0  0  0
  152.3387  139.9639  181.8245 C   0  0  0  0  0  0  0  0  0  0  0  0
  151.5288  136.5543  181.6803 C   0  0  0  0  0  0  0  0  0  0  0  0
  151.3562  137.8520  182.1613 O   0  0  0  0  0  0  0  0  0  0  0  0
  151.3576  140.3240  180.9090 O   0  0  0  0  0  0  0  0  0  0  0  0
  151.4374  140.0257  179.5406 C   0  0  0  0  0  0  0  0  0  0  0  0
  150.3063  139.1402  179.1239 C   0  0  0  0  0  0  0  0  0  0  0  0
  149.1376  139.2430  180.0493 C   0  0  0  0  0  0  0  0  0  0  0  0
  148.0350  138.4740  179.5017 N   0  0  0  0  0  0  0  0  0  0  0  0
  148.4062  137.0722  179.5845 C   0  0  0  0  0  0  0  0  0  0  0  0
  147.5310  136.3511  180.6080 C   0  0  0  0  0  0  0  0  0  0  0  0
  146.2269  136.4576  180.1786 O   0  0  0  0  0  0  0  0  0  0  0  0
  145.7587  137.7384  180.0506 C   0  0  0  0  0  0  0  0  0  0  0  0
  146.8287  138.7922  180.1964 C   0  0  0  0  0  0  0  0  0  0  0  0
 37 38  1  0  0  0
 38 27  1  0  0  0
 27 28  2  0  0  0
 28 29  1  0  0  0
 29 30  2  0  0  0
 30 26  1  0  0  0
 26  1  1  0  0  0
  1  2  2  0  0  0
  2  3  1  0  0  0
  3  4  2  0  0  0
  4  8  1  0  0  0
  8  9  1  0  0  0
  9 10  2  0  0  0
  9 12  1  0  0  0
 12 13  1  0  0  0
 13 14  1  0  0  0
 12 15  1  0  0  0
 15 16  2  0  0  0
 15 17  1  0  0  0
 17 19  1  0  0  0
 19 20  2  0  0  0
 20 21  1  0  0  0
 21 22  1  0  0  0
 22 23  1  0  0  0
 22 24  1  0  0  0
 24 25  2  0  0  0
  4  5  1  0  0  0
  5  6  2  0  0  0
  6  7  1  0  0  0
 30 31  1  0  0  0
 31 32  2  0  0  0
 32 33  1  0  0  0
 33 34  2  0  0  0
 34 35  1  0  0  0
 35 36  2  0  0  0
 36 39  1  0  0  0
 39 40  1  0  0  0
 40 41  1  0  0  0
 41 42  1  0  0  0
 42 43  1  0  0  0
 43 44  1  0  0  0
 44 45  1  0  0  0
 45 46  1  0  0  0
 46 47  1  0  0  0
 47 48  1  0  0  0
 36 27  1  0  0  0
 48 43  1  0  0  0
 34 29  1  0  0  0
  6  1  1  0  0  0
 14 12  1  0  0  0
 25 19  1  0  0  0
  8 11  1  0  0  0
 17 18  1  0  0  0
M  END
> <minimizedAffinity>
-7.28501

> <CNNscore>
0.2528319657

> <CNNaffinity>
6.0654983521

> <CNN_VS>
1.5335518122

> <CNNaffinity_variance>
0.1196076125

$$$$
[H]C1=C([H])C([H])(F)C([H])([H])C([H])=C1N([H])C(=O)C1(C(=O)N([H])c2c([H])c([H])c(Oc3nc([H])nc4c([H])c(OC([H])([H])C([H])([H])C([H])([H])N5C([H])([H])C([H])([H])OC([H])([H])C5([H])[H])c(OC([H])([H])[H])c([H])c34)c(F)c2[H])C([H])([H])C1([H])[H]


 48 53  0  0  0  0  0  0  0  0999 V2000
  153.0312  139.6488  182.5798 C   0  0  0  0  0  0  0  0  0  0  0  0
  153.1474  140.8337  181.9128 C   0  0  0  0  0  0  0  0  0  0  0  0
  154.2369  141.6486  182.0617 C   0  0  0  0  0  0  0  0  0  0  0  0
  155.2622  141.2665  182.9165 C   0  0  0  0  0  0  0  0  0  0  0  0
  155.1779  140.0992  183.5925 C   0  0  0  0  0  0  0  0  0  0  0  0
  154.0443  139.2829  183.4171 C   0  0  0  0  0  0  0  0  0  0  0  0
  153.9967  138.1297  184.0855 F   0  0  0  0  0  0  0  0  0  0  0  0
  156.3615  142.1745  183.0474 N   0  0  0  0  0  0  0  0  0  0  0  0
  157.4010  142.3619  182.1644 C   0  0  0  0  0  0  0  0  0  0  0  0
  157.4092  141.6378  181.1015 O   0  0  0  0  0  0  0  0  0  0  0  0
  156.3708  142.7098  183.9653 H   0  0  0  0  0  0  0  0  0  0  0  0
  158.5338  143.2893  182.2711 C   0  0  0  0  0  0  0  0  0  0  0  0
  158.2693  144.7250  181.8053 C   0  0  0  0  0  0  0  0  0  0  0  0
  159.0105  143.8180  180.9319 C   0  0  0  0  0  0  0  0  0  0  0  0
  159.5156  143.2476  183.3551 C   0  0  0  0  0  0  0  0  0  0  0  0
  160.0303  144.4184  183.6274 O   0  0  0  0  0  0  0  0  0  0  0  0
  159.9516  142.1671  184.1125 N   0  0  0  0  0  0  0  0  0  0  0  0
  159.6026  141.2181  184.0478 H   0  0  0  0  0  0  0  0  0  0  0  0
  160.9507  142.4007  185.1223 C   0  0  0  0  0  0  0  0  0  0  0  0
  162.2139  142.2043  184.8435 C   0  0  0  0  0  0  0  0  0  0  0  0
  163.3443  142.3985  185.7631 C   0  0  0  0  0  0  0  0  0  0  0  0
  162.9695  142.8454  187.1322 C   0  0  0  0  0  0  0  0  0  0  0  0
  163.3658  141.8565  188.0430 F   0  0  0  0  0  0  0  0  0  0  0  0
  161.5229  143.0381  187.3429 C   0  0  0  0  0  0  0  0  0  0  0  0
  160.5852  142.8462  186.4570 C   0  0  0  0  0  0  0  0  0  0  0  0
  151.9290  138.8576  182.4060 O   0  0  0  0  0  0  0  0  0  0  0  0
  147.8317  138.3609  182.7862 C   0  0  0  0  0  0  0  0  0  0  0  0
  149.1887  138.5334  182.6148 C   0  0  0  0  0  0  0  0  0  0  0  0
  149.7674  138.8225  181.3964 C   0  0  0  0  0  0  0  0  0  0  0  0
  151.1517  138.9938  181.2662 C   0  0  0  0  0  0  0  0  0  0  0  0
  151.6120  139.2727  180.0536 N   0  0  0  0  0  0  0  0  0  0  0  0
  150.7878  139.3845  179.0048 C   0  0  0  0  0  0  0  0  0  0  0  0
  149.4633  139.2246  179.1082 N   0  0  0  0  0  0  0  0  0  0  0  0
  148.9339  138.9399  180.3129 C   0  0  0  0  0  0  0  0  0  0  0  0
  147.5629  138.7677  180.4750 C   0  0  0  0  0  0  0  0  0  0  0  0
  147.0170  138.4819  181.6959 C   0  0  0  0  0  0  0  0  0  0  0  0
  146.4830  138.9458  184.7771 C   0  0  0  0  0  0  0  0  0  0  0  0
  147.2446  138.0715  184.0021 O   0  0  0  0  0  0  0  0  0  0  0  0
  145.6377  138.3277  181.7590 O   0  0  0  0  0  0  0  0  0  0  0  0
  144.9491  137.2977  181.1010 C   0  0  0  0  0  0  0  0  0  0  0  0
  144.5526  137.7211  179.7223 C   0  0  0  0  0  0  0  0  0  0  0  0
  145.2769  136.9529  178.6650 C   0  0  0  0  0  0  0  0  0  0  0  0
  145.2677  137.7230  177.4346 N   0  0  0  0  0  0  0  0  0  0  0  0
  146.5745  137.5669  176.8204 C   0  0  0  0  0  0  0  0  0  0  0  0
  146.4619  136.7531  175.5325 C   0  0  0  0  0  0  0  0  0  0  0  0
  145.6327  137.4481  174.6805 O   0  0  0  0  0  0  0  0  0  0  0  0
  144.3661  137.6692  175.1524 C   0  0  0  0  0  0  0  0  0  0  0  0
  144.1867  137.2981  176.6039 C   0  0  0  0  0  0  0  0  0  0  0  0
 37 38  1  0  0  0
 38 27  1  0  0  0
 27 28  2  0  0  0
 28 29  1  0  0  0
 29 30  2  0  0  0
 30 26  1  0  0  0
 26  1  1  0  0  0
  1  2  2  0  0  0
  2  3  1  0  0  0
  3  4  2  0  0  0
  4  8  1  0  0  0
  8  9  1  0  0  0
  9 10  2  0  0  0
  9 12  1  0  0  0
 12 13  1  0  0  0
 13 14  1  0  0  0
 12 15  1  0  0  0
 15 16  2  0  0  0
 15 17  1  0  0  0
 17 19  1  0  0  0
 19 20  2  0  0  0
 20 21  1  0  0  0
 21 22  1  0  0  0
 22 23  1  0  0  0
 22 24  1  0  0  0
 24 25  2  0  0  0
  4  5  1  0  0  0
  5  6  2  0  0  0
  6  7  1  0  0  0
 30 31  1  0  0  0
 31 32  2  0  0  0
 32 33  1  0  0  0
 33 34  2  0  0  0
 34 35  1  0  0  0
 35 36  2  0  0  0
 36 39  1  0  0  0
 39 40  1  0  0  0
 40 41  1  0  0  0
 41 42  1  0  0  0
 42 43  1  0  0  0
 43 44  1  0  0  0
 44 45  1  0  0  0
 45 46  1  0  0  0
 46 47  1  0  0  0
 47 48  1  0  0  0
 36 27  1  0  0  0
 48 43  1  0  0  0
 34 29  1  0  0  0
  6  1  1  0  0  0
 14 12  1  0  0  0
 25 19  1  0  0  0
  8 11  1  0  0  0
 17 18  1  0  0  0
M  END
> <minimizedAffinity>
-10.12862

> <CNNscore>
0.2223538458

> <CNNaffinity>
6.6121778488

> <CNN_VS>
1.4702432156

> <CNNaffinity_variance>
0.2076141834

$$$$
[H]C1=C([H])C([H])(F)C([H])([H])C([H])=C1N([H])C(=O)C1(C(=O)N([H])c2c([H])c([H])c(Oc3nc([H])nc4c([H])c(OC([H])([H])C([H])([H])C([H])([H])N5C([H])([H])C([H])([H])OC([H])([H])C5([H])[H])c(OC([H])([H])[H])c([H])c34)c(F)c2[H])C([H])([H])C1([H])[H]


 48 53  0  0  0  0  0  0  0  0999 V2000
  152.8421  139.2441  182.6600 C   0  0  0  0  0  0  0  0  0  0  0  0
  152.8660  140.4300  181.9850 C   0  0  0  0  0  0  0  0  0  0  0  0
  153.9083  141.3099  182.0969 C   0  0  0  0  0  0  0  0  0  0  0  0
  154.9806  140.9952  182.9210 C   0  0  0  0  0  0  0  0  0  0  0  0
  154.9877  139.8289  183.6039 C   0  0  0  0  0  0  0  0  0  0  0  0
  153.9007  138.9448  183.4670 C   0  0  0  0  0  0  0  0  0  0  0  0
  153.9433  137.7947  184.1410 F   0  0  0  0  0  0  0  0  0  0  0  0
  156.0266  141.9685  183.0142 N   0  0  0  0  0  0  0  0  0  0  0  0
  157.1327  142.0875  182.2033 C   0  0  0  0  0  0  0  0  0  0  0  0
  157.2651  141.2266  181.2570 O   0  0  0  0  0  0  0  0  0  0  0  0
  155.9321  142.6238  183.8453 H   0  0  0  0  0  0  0  0  0  0  0  0
  158.2134  143.0785  182.2727 C   0  0  0  0  0  0  0  0  0  0  0  0
  157.8492  144.4980  181.8252 C   0  0  0  0  0  0  0  0  0  0  0  0
  158.6080  143.6384  180.9195 C   0  0  0  0  0  0  0  0  0  0  0  0
  159.2361  143.0899  183.3189 C   0  0  0  0  0  0  0  0  0  0  0  0
  159.8627  144.2338  183.4125 O   0  0  0  0  0  0  0  0  0  0  0  0
  159.6105  142.0833  184.2009 N   0  0  0  0  0  0  0  0  0  0  0  0
  159.1776  141.1705  184.2773 H   0  0  0  0  0  0  0  0  0  0  0  0
  160.6711  142.3551  185.1357 C   0  0  0  0  0  0  0  0  0  0  0  0
  161.9158  142.1718  184.7766 C   0  0  0  0  0  0  0  0  0  0  0  0
  163.1020  142.4041  185.6134 C   0  0  0  0  0  0  0  0  0  0  0  0
  162.8125  142.8761  186.9948 C   0  0  0  0  0  0  0  0  0  0  0  0
  163.2856  141.9142  187.8978 F   0  0  0  0  0  0  0  0  0  0  0  0
  161.3802  143.0513  187.2984 C   0  0  0  0  0  0  0  0  0  0  0  0
  160.3885  142.8250  186.4822 C   0  0  0  0  0  0  0  0  0  0  0  0
  151.7848  138.3870  182.5235 O   0  0  0  0  0  0  0  0  0  0  0  0
  147.7695  138.2522  183.5422 C   0  0  0  0  0  0  0  0  0  0  0  0
  149.0929  138.3048  183.1598 C   0  0  0  0  0  0  0  0  0  0  0  0
  149.4975  138.5413  181.8624 C   0  0  0  0  0  0  0  0  0  0  0  0
  150.8541  138.5903  181.5165 C   0  0  0  0  0  0  0  0  0  0  0  0
  151.1422  138.8272  180.2433 N   0  0  0  0  0  0  0  0  0  0  0  0
  150.1774  139.0104  179.3336 C   0  0  0  0  0  0  0  0  0  0  0  0
  148.8764  138.9675  179.6437 N   0  0  0  0  0  0  0  0  0  0  0  0
  148.5186  138.7310  180.9199 C   0  0  0  0  0  0  0  0  0  0  0  0
  147.1799  138.6798  181.2952 C   0  0  0  0  0  0  0  0  0  0  0  0
  146.8083  138.4436  182.5900 C   0  0  0  0  0  0  0  0  0  0  0  0
  147.2111  136.7668  185.4414 C   0  0  0  0  0  0  0  0  0  0  0  0
  147.3562  138.0160  184.8385 O   0  0  0  0  0  0  0  0  0  0  0  0
  145.4476  138.4112  182.8687 O   0  0  0  0  0  0  0  0  0  0  0  0
  144.5753  137.4550  182.3274 C   0  0  0  0  0  0  0  0  0  0  0  0
  145.1359  136.0771  182.4834 C   0  0  0  0  0  0  0  0  0  0  0  0
  144.8369  135.2086  181.3048 C   0  0  0  0  0  0  0  0  0  0  0  0
  146.0593  134.5476  180.8856 N   0  0  0  0  0  0  0  0  0  0  0  0
  146.1850  134.7461  179.4523 C   0  0  0  0  0  0  0  0  0  0  0  0
  147.3632  135.6688  179.1456 C   0  0  0  0  0  0  0  0  0  0  0  0
  148.4987  135.0562  179.6271 O   0  0  0  0  0  0  0  0  0  0  0  0
  148.4985  134.8049  180.9735 C   0  0  0  0  0  0  0  0  0  0  0  0
  147.1652  135.0508  181.6357 C   0  0  0  0  0  0  0  0  0  0  0  0
 37 38  1  0  0  0
 38 27  1  0  0  0
 27 28  2  0  0  0
 28 29  1  0  0  0
 29 30  2  0  0  0
 30 26  1  0  0  0
 26  1  1  0  0  0
  1  2  2  0  0  0
  2  3  1  0  0  0
  3  4  2  0  0  0
  4  8  1  0  0  0
  8  9  1  0  0  0
  9 10  2  0  0  0
  9 12  1  0  0  0
 12 13  1  0  0  0
 13 14  1  0  0  0
 12 15  1  0  0  0
 15 16  2  0  0  0
 15 17  1  0  0  0
 17 19  1  0  0  0
 19 20  2  0  0  0
 20 21  1  0  0  0
 21 22  1  0  0  0
 22 23  1  0  0  0
 22 24  1  0  0  0
 24 25  2  0  0  0
  4  5  1  0  0  0
  5  6  2  0  0  0
  6  7  1  0  0  0
 30 31  1  0  0  0
 31 32  2  0  0  0
 32 33  1  0  0  0
 33 34  2  0  0  0
 34 35  1  0  0  0
 35 36  2  0  0  0
 36 39  1  0  0  0
 39 40  1  0  0  0
 40 41  1  0  0  0
 41 42  1  0  0  0
 42 43  1  0  0  0
 43 44  1  0  0  0
 44 45  1  0  0  0
 45 46  1  0  0  0
 46 47  1  0  0  0
 47 48  1  0  0  0
 36 27  1  0  0  0
 48 43  1  0  0  0
 34 29  1  0  0  0
  6  1  1  0  0  0
 14 12  1  0  0  0
 25 19  1  0  0  0
  8 11  1  0  0  0
 17 18  1  0  0  0
M  END
> <minimizedAffinity>
-9.24611

> <CNNscore>
0.1669622511

> <CNNaffinity>
6.5287833214

> <CNN_VS>
1.0900603533

> <CNNaffinity_variance>
0.1868745536

$$$$
[H]C1=C([H])C([H])(F)C([H])([H])C([H])=C1N([H])C(=O)C1(C(=O)N([H])c2c([H])c([H])c(Oc3nc([H])nc4c([H])c(OC([H])([H])C([H])([H])C([H])([H])N5C([H])([H])C([H])([H])OC([H])([H])C5([H])[H])c(OC([H])([H])[H])c([H])c34)c(F)c2[H])C([H])([H])C1([H])[H]


 48 53  0  0  0  0  0  0  0  0999 V2000
  152.4627  138.8095  182.5768 C   0  0  0  0  0  0  0  0  0  0  0  0
  152.4928  139.8856  181.7380 C   0  0  0  0  0  0  0  0  0  0  0  0
  153.4595  140.8504  181.8269 C   0  0  0  0  0  0  0  0  0  0  0  0
  154.4456  140.7399  182.7982 C   0  0  0  0  0  0  0  0  0  0  0  0
  154.4441  139.6866  183.6450 C   0  0  0  0  0  0  0  0  0  0  0  0
  153.4362  138.7107  183.5274 C   0  0  0  0  0  0  0  0  0  0  0  0
  153.4700  137.6748  184.3670 F   0  0  0  0  0  0  0  0  0  0  0  0
  155.4124  141.7945  182.8551 N   0  0  0  0  0  0  0  0  0  0  0  0
  156.6852  141.7912  182.3305 C   0  0  0  0  0  0  0  0  0  0  0  0
  157.0720  140.7224  181.7290 O   0  0  0  0  0  0  0  0  0  0  0  0
  155.0960  142.6387  183.4175 H   0  0  0  0  0  0  0  0  0  0  0  0
  157.6912  142.8596  182.3686 C   0  0  0  0  0  0  0  0  0  0  0  0
  157.1917  144.2622  182.0063 C   0  0  0  0  0  0  0  0  0  0  0  0
  157.9470  143.4975  181.0165 C   0  0  0  0  0  0  0  0  0  0  0  0
  158.7811  142.9117  183.3432 C   0  0  0  0  0  0  0  0  0  0  0  0
  159.5143  143.9893  183.2372 O   0  0  0  0  0  0  0  0  0  0  0  0
  159.1229  142.0028  184.3375 N   0  0  0  0  0  0  0  0  0  0  0  0
  158.6151  141.1568  184.5676 H   0  0  0  0  0  0  0  0  0  0  0  0
  160.2664  142.2925  185.1627 C   0  0  0  0  0  0  0  0  0  0  0  0
  161.4722  142.1276  184.6824 C   0  0  0  0  0  0  0  0  0  0  0  0
  162.7316  142.3796  185.3978 C   0  0  0  0  0  0  0  0  0  0  0  0
  162.5727  142.8496  186.8009 C   0  0  0  0  0  0  0  0  0  0  0  0
  163.1476  141.8967  187.6530 F   0  0  0  0  0  0  0  0  0  0  0  0
  161.1750  143.0034  187.2446 C   0  0  0  0  0  0  0  0  0  0  0  0
  160.1111  142.7604  186.5304 C   0  0  0  0  0  0  0  0  0  0  0  0
  151.4827  137.8624  182.4587 O   0  0  0  0  0  0  0  0  0  0  0  0
  148.2874  137.9410  185.0973 C   0  0  0  0  0  0  0  0  0  0  0  0
  149.3215  137.9270  184.1859 C   0  0  0  0  0  0  0  0  0  0  0  0
  149.1590  138.2355  182.8512 C   0  0  0  0  0  0  0  0  0  0  0  0
  150.2382  138.2126  181.9583 C   0  0  0  0  0  0  0  0  0  0  0  0
  149.9811  138.5281  180.6956 N   0  0  0  0  0  0  0  0  0  0  0  0
  148.7452  138.8529  180.2968 C   0  0  0  0  0  0  0  0  0  0  0  0
  147.7015  138.8806  181.1338 N   0  0  0  0  0  0  0  0  0  0  0  0
  147.8971  138.5704  182.4292 C   0  0  0  0  0  0  0  0  0  0  0  0
  146.8464  138.5876  183.3409 C   0  0  0  0  0  0  0  0  0  0  0  0
  147.0375  138.2772  184.6590 C   0  0  0  0  0  0  0  0  0  0  0  0
  149.3025  136.6725  186.9642 C   0  0  0  0  0  0  0  0  0  0  0  0
  148.4417  137.6336  186.4347 O   0  0  0  0  0  0  0  0  0  0  0  0
  145.9278  138.3223  185.4937 O   0  0  0  0  0  0  0  0  0  0  0  0
  144.6973  137.7325  185.1680 C   0  0  0  0  0  0  0  0  0  0  0  0
  144.2123  136.8652  186.2859 C   0  0  0  0  0  0  0  0  0  0  0  0
  145.0848  135.6701  186.4933 C   0  0  0  0  0  0  0  0  0  0  0  0
  145.5245  135.6432  187.8764 N   0  0  0  0  0  0  0  0  0  0  0  0
  144.3323  135.6380  188.7060 C   0  0  0  0  0  0  0  0  0  0  0  0
  144.1879  134.2948  189.4192 C   0  0  0  0  0  0  0  0  0  0  0  0
  145.3017  134.1309  190.2124 O   0  0  0  0  0  0  0  0  0  0  0  0
  146.4972  134.1277  189.5440 C   0  0  0  0  0  0  0  0  0  0  0  0
  146.3809  134.5211  188.0920 C   0  0  0  0  0  0  0  0  0  0  0  0
 37 38  1  0  0  0
 38 27  1  0  0  0
 27 28  2  0  0  0
 28 29  1  0  0  0
 29 30  2  0  0  0
 30 26  1  0  0  0
 26  1  1  0  0  0
  1  2  2  0  0  0
  2  3  1  0  0  0
  3  4  2  0  0  0
  4  8  1  0  0  0
  8  9  1  0  0  0
  9 10  2  0  0  0
  9 12  1  0  0  0
 12 13  1  0  0  0
 13 14  1  0  0  0
 12 15  1  0  0  0
 15 16  2  0  0  0
 15 17  1  0  0  0
 17 19  1  0  0  0
 19 20  2  0  0  0
 20 21  1  0  0  0
 21 22  1  0  0  0
 22 23  1  0  0  0
 22 24  1  0  0  0
 24 25  2  0  0  0
  4  5  1  0  0  0
  5  6  2  0  0  0
  6  7  1  0  0  0
 30 31  1  0  0  0
 31 32  2  0  0  0
 32 33  1  0  0  0
 33 34  2  0  0  0
 34 35  1  0  0  0
 35 36  2  0  0  0
 36 39  1  0  0  0
 39 40  1  0  0  0
 40 41  1  0  0  0
 41 42  1  0  0  0
 42 43  1  0  0  0
 43 44  1  0  0  0
 44 45  1  0  0  0
 45 46  1  0  0  0
 46 47  1  0  0  0
 47 48  1  0  0  0
 36 27  1  0  0  0
 48 43  1  0  0  0
 34 29  1  0  0  0
  6  1  1  0  0  0
 14 12  1  0  0  0
 25 19  1  0  0  0
  8 11  1  0  0  0
 17 18  1  0  0  0
M  END
> <minimizedAffinity>
-9.30216

> <CNNscore>
0.1631617248

> <CNNaffinity>
6.5009307861

> <CNN_VS>
1.0607030392

> <CNNaffinity_variance>
0.1109470129

$$$$
[H]C1=C([H])C([H])(F)C([H])([H])C([H])=C1N([H])C(=O)C1(C(=O)N([H])c2c([H])c([H])c(Oc3nc([H])nc4c([H])c(OC([H])([H])C([H])([H])C([H])([H])N5C([H])([H])C([H])([H])OC([H])([H])C5([H])[H])c(OC([H])([H])[H])c([H])c34)c(F)c2[H])C([H])([H])C1([H])[H]


 48 53  0  0  0  0  0  0  0  0999 V2000
  153.0925  137.0899  185.2645 C   0  0  0  0  0  0  0  0  0  0  0  0
  152.9436  137.9833  186.2853 C   0  0  0  0  0  0  0  0  0  0  0  0
  152.3037  137.6568  187.4503 C   0  0  0  0  0  0  0  0  0  0  0  0
  151.7861  136.3781  187.6085 C   0  0  0  0  0  0  0  0  0  0  0  0
  151.9163  135.4696  186.6164 C   0  0  0  0  0  0  0  0  0  0  0  0
  152.5803  135.8364  185.4304 C   0  0  0  0  0  0  0  0  0  0  0  0
  152.7069  134.9138  184.4755 F   0  0  0  0  0  0  0  0  0  0  0  0
  151.1067  136.1078  188.8394 N   0  0  0  0  0  0  0  0  0  0  0  0
  151.6720  135.8728  190.0725 C   0  0  0  0  0  0  0  0  0  0  0  0
  152.9561  135.8798  190.1431 O   0  0  0  0  0  0  0  0  0  0  0  0
  150.0509  136.0370  188.7419 H   0  0  0  0  0  0  0  0  0  0  0  0
  150.9992  135.6011  191.3486 C   0  0  0  0  0  0  0  0  0  0  0  0
  150.7684  136.8149  192.2550 C   0  0  0  0  0  0  0  0  0  0  0  0
  151.8616  135.8950  192.5612 C   0  0  0  0  0  0  0  0  0  0  0  0
  149.9451  134.5996  191.5115 C   0  0  0  0  0  0  0  0  0  0  0  0
  149.0289  134.6619  190.5805 O   0  0  0  0  0  0  0  0  0  0  0  0
  149.7987  133.6199  192.4862 N   0  0  0  0  0  0  0  0  0  0  0  0
  150.4554  133.4226  193.2320 H   0  0  0  0  0  0  0  0  0  0  0  0
  148.6454  132.7607  192.4220 C   0  0  0  0  0  0  0  0  0  0  0  0
  148.7837  131.5153  192.0456 C   0  0  0  0  0  0  0  0  0  0  0  0
  147.7075  130.5204  191.9310 C   0  0  0  0  0  0  0  0  0  0  0  0
  146.3487  131.0244  192.2693 C   0  0  0  0  0  0  0  0  0  0  0  0
  145.5446  130.9267  191.1253 F   0  0  0  0  0  0  0  0  0  0  0  0
  146.3014  132.4392  192.6817 C   0  0  0  0  0  0  0  0  0  0  0  0
  147.3193  133.2507  192.7613 C   0  0  0  0  0  0  0  0  0  0  0  0
  153.7395  137.4494  184.1141 O   0  0  0  0  0  0  0  0  0  0  0  0
  155.6691  141.1058  183.8210 C   0  0  0  0  0  0  0  0  0  0  0  0
  154.9953  139.9051  183.8893 C   0  0  0  0  0  0  0  0  0  0  0  0
  153.8387  139.6445  183.1842 C   0  0  0  0  0  0  0  0  0  0  0  0
  153.1865  138.4082  183.2795 C   0  0  0  0  0  0  0  0  0  0  0  0
  152.0829  138.2533  182.5598 N   0  0  0  0  0  0  0  0  0  0  0  0
  151.6168  139.2359  181.7794 C   0  0  0  0  0  0  0  0  0  0  0  0
  152.2247  140.4234  181.6747 N   0  0  0  0  0  0  0  0  0  0  0  0
  153.3501  140.6433  182.3803 C   0  0  0  0  0  0  0  0  0  0  0  0
  154.0224  141.8589  182.3041 C   0  0  0  0  0  0  0  0  0  0  0  0
  155.1680  142.0889  183.0149 C   0  0  0  0  0  0  0  0  0  0  0  0
  157.6723  140.4320  185.1086 C   0  0  0  0  0  0  0  0  0  0  0  0
  156.8273  141.3746  184.5233 O   0  0  0  0  0  0  0  0  0  0  0  0
  155.7686  143.3336  182.8739 O   0  0  0  0  0  0  0  0  0  0  0  0
  156.6375  143.6521  181.8196 C   0  0  0  0  0  0  0  0  0  0  0  0
  158.0392  143.8109  182.3168 C   0  0  0  0  0  0  0  0  0  0  0  0
  158.7702  142.5089  182.3717 C   0  0  0  0  0  0  0  0  0  0  0  0
  160.1138  142.7446  182.8679 N   0  0  0  0  0  0  0  0  0  0  0  0
  160.0209  143.7766  183.8857 C   0  0  0  0  0  0  0  0  0  0  0  0
  160.3283  143.1925  185.2634 C   0  0  0  0  0  0  0  0  0  0  0  0
  161.6141  142.7011  185.2218 O   0  0  0  0  0  0  0  0  0  0  0  0
  161.8334  141.7220  184.2896 C   0  0  0  0  0  0  0  0  0  0  0  0
  160.6792  141.5208  183.3388 C   0  0  0  0  0  0  0  0  0  0  0  0
 37 38  1  0  0  0
 38 27  1  0  0  0
 27 28  2  0  0  0
 28 29  1  0  0  0
 29 30  2  0  0  0
 30 26  1  0  0  0
 26  1  1  0  0  0
  1  2  2  0  0  0
  2  3  1  0  0  0
  3  4  2  0  0  0
  4  8  1  0  0  0
  8  9  1  0  0  0
  9 10  2  0  0  0
  9 12  1  0  0  0
 12 13  1  0  0  0
 13 14  1  0  0  0
 12 15  1  0  0  0
 15 16  2  0  0  0
 15 17  1  0  0  0
 17 19  1  0  0  0
 19 20  2  0  0  0
 20 21  1  0  0  0
 21 22  1  0  0  0
 22 23  1  0  0  0
 22 24  1  0  0  0
 24 25  2  0  0  0
  4  5  1  0  0  0
  5  6  2  0  0  0
  6  7  1  0  0  0
 30 31  1  0  0  0
 31 32  2  0  0  0
 32 33  1  0  0  0
 33 34  2  0  0  0
 34 35  1  0  0  0
 35 36  2  0  0  0
 36 39  1  0  0  0
 39 40  1  0  0  0
 40 41  1  0  0  0
 41 42  1  0  0  0
 42 43  1  0  0  0
 43 44  1  0  0  0
 44 45  1  0  0  0
 45 46  1  0  0  0
 46 47  1  0  0  0
 47 48  1  0  0  0
 36 27  1  0  0  0
 48 43  1  0  0  0
 34 29  1  0  0  0
  6  1  1  0  0  0
 14 12  1  0  0  0
 25 19  1  0  0  0
  8 11  1  0  0  0
 17 18  1  0  0  0
M  END
> <minimizedAffinity>
-7.26614

> <CNNscore>
0.1448479742

> <CNNaffinity>
6.4553194046

> <CNN_VS>
0.9350399375

> <CNNaffinity_variance>
0.1086141467

$$$$
[H]C1=C([H])C([H])(F)C([H])([H])C([H])=C1N([H])C(=O)C1(C(=O)N([H])c2c([H])c([H])c(Oc3nc([H])nc4c([H])c(OC([H])([H])C([H])([H])C([H])([H])N5C([H])([H])C([H])([H])OC([H])([H])C5([H])[H])c(OC([H])([H])[H])c([H])c34)c(F)c2[H])C([H])([H])C1([H])[H]


 48 53  0  0  0  0  0  0  0  0999 V2000
  152.9476  137.7963  183.6269 C   0  0  0  0  0  0  0  0  0  0  0  0
  152.8593  138.9071  182.8390 C   0  0  0  0  0  0  0  0  0  0  0  0
  153.7938  139.9061  182.8826 C   0  0  0  0  0  0  0  0  0  0  0  0
  154.8700  139.7953  183.7529 C   0  0  0  0  0  0  0  0  0  0  0  0
  154.9866  138.7082  184.5473 C   0  0  0  0  0  0  0  0  0  0  0  0
  154.0089  137.6976  184.4784 C   0  0  0  0  0  0  0  0  0  0  0  0
  154.1593  136.6296  185.2631 F   0  0  0  0  0  0  0  0  0  0  0  0
  155.7983  140.8853  183.7688 N   0  0  0  0  0  0  0  0  0  0  0  0
  156.8541  141.0969  182.9111 C   0  0  0  0  0  0  0  0  0  0  0  0
  157.0527  140.2187  181.9929 O   0  0  0  0  0  0  0  0  0  0  0  0
  155.6573  141.5592  184.5782 H   0  0  0  0  0  0  0  0  0  0  0  0
  157.8141  142.2075  182.9012 C   0  0  0  0  0  0  0  0  0  0  0  0
  157.2518  143.5742  182.4960 C   0  0  0  0  0  0  0  0  0  0  0  0
  158.0298  142.8078  181.5252 C   0  0  0  0  0  0  0  0  0  0  0  0
  158.9098  142.3397  183.8616 C   0  0  0  0  0  0  0  0  0  0  0  0
  158.6021  141.9039  185.0555 O   0  0  0  0  0  0  0  0  0  0  0  0
  160.1924  142.8419  183.6767 N   0  0  0  0  0  0  0  0  0  0  0  0
  160.5830  143.1620  182.7984 H   0  0  0  0  0  0  0  0  0  0  0  0
  161.0828  142.8720  184.8075 C   0  0  0  0  0  0  0  0  0  0  0  0
  162.2537  142.2937  184.7276 C   0  0  0  0  0  0  0  0  0  0  0  0
  163.2676  142.2398  185.7906 C   0  0  0  0  0  0  0  0  0  0  0  0
  162.8774  142.9040  187.0639 C   0  0  0  0  0  0  0  0  0  0  0  0
  162.8441  141.9340  188.0752 F   0  0  0  0  0  0  0  0  0  0  0  0
  161.5403  143.5253  187.0501 C   0  0  0  0  0  0  0  0  0  0  0  0
  160.7051  143.5289  186.0484 C   0  0  0  0  0  0  0  0  0  0  0  0
  151.9964  136.8158  183.5563 O   0  0  0  0  0  0  0  0  0  0  0  0
  150.7327  135.5851  187.3069 C   0  0  0  0  0  0  0  0  0  0  0  0
  151.1110  136.0112  186.0516 C   0  0  0  0  0  0  0  0  0  0  0  0
  150.2622  136.6730  185.1888 C   0  0  0  0  0  0  0  0  0  0  0  0
  150.6882  137.0926  183.9219 C   0  0  0  0  0  0  0  0  0  0  0  0
  149.7988  137.7242  183.1668 N   0  0  0  0  0  0  0  0  0  0  0  0
  148.5520  137.9483  183.5994 C   0  0  0  0  0  0  0  0  0  0  0  0
  148.1258  137.5557  184.8056 N   0  0  0  0  0  0  0  0  0  0  0  0
  148.9812  136.9093  185.6199 C   0  0  0  0  0  0  0  0  0  0  0  0
  148.5892  136.4834  186.8850 C   0  0  0  0  0  0  0  0  0  0  0  0
  149.4530  135.8293  187.7195 C   0  0  0  0  0  0  0  0  0  0  0  0
  151.8205  133.5492  188.1996 C   0  0  0  0  0  0  0  0  0  0  0  0
  151.5760  134.9221  188.1765 O   0  0  0  0  0  0  0  0  0  0  0  0
  148.9706  135.4430  188.9637 O   0  0  0  0  0  0  0  0  0  0  0  0
  148.2710  134.2461  189.1783 C   0  0  0  0  0  0  0  0  0  0  0  0
  148.5072  133.7348  190.5639 C   0  0  0  0  0  0  0  0  0  0  0  0
  147.7618  132.4681  190.8336 C   0  0  0  0  0  0  0  0  0  0  0  0
  146.4042  132.7964  191.2287 N   0  0  0  0  0  0  0  0  0  0  0  0
  145.6021  131.5996  191.0449 C   0  0  0  0  0  0  0  0  0  0  0  0
  145.1557  131.0470  192.3972 C   0  0  0  0  0  0  0  0  0  0  0  0
  144.3966  132.0210  193.0069 O   0  0  0  0  0  0  0  0  0  0  0  0
  145.0419  133.2086  193.2283 C   0  0  0  0  0  0  0  0  0  0  0  0
  146.3951  133.2957  192.5665 C   0  0  0  0  0  0  0  0  0  0  0  0
 37 38  1  0  0  0
 38 27  1  0  0  0
 27 28  2  0  0  0
 28 29  1  0  0  0
 29 30  2  0  0  0
 30 26  1  0  0  0
 26  1  1  0  0  0
  1  2  2  0  0  0
  2  3  1  0  0  0
  3  4  2  0  0  0
  4  8  1  0  0  0
  8  9  1  0  0  0
  9 10  2  0  0  0
  9 12  1  0  0  0
 12 13  1  0  0  0
 13 14  1  0  0  0
 12 15  1  0  0  0
 15 16  2  0  0  0
 15 17  1  0  0  0
 17 19  1  0  0  0
 19 20  2  0  0  0
 20 21  1  0  0  0
 21 22  1  0  0  0
 22 23  1  0  0  0
 22 24  1  0  0  0
 24 25  2  0  0  0
  4  5  1  0  0  0
  5  6  2  0  0  0
  6  7  1  0  0  0
 30 31  1  0  0  0
 31 32  2  0  0  0
 32 33  1  0  0  0
 33 34  2  0  0  0
 34 35  1  0  0  0
 35 36  2  0  0  0
 36 39  1  0  0  0
 39 40  1  0  0  0
 40 41  1  0  0  0
 41 42  1  0  0  0
 42 43  1  0  0  0
 43 44  1  0  0  0
 44 45  1  0  0  0
 45 46  1  0  0  0
 46 47  1  0  0  0
 47 48  1  0  0  0
 36 27  1  0  0  0
 48 43  1  0  0  0
 34 29  1  0  0  0
  6  1  1  0  0  0
 14 12  1  0  0  0
 25 19  1  0  0  0
  8 11  1  0  0  0
 17 18  1  0  0  0
M  END
> <minimizedAffinity>
-7.62301

> <CNNscore>
0.1396327466

> <CNNaffinity>
6.3618583679

> <CNN_VS>
0.8883237839

> <CNNaffinity_variance>
0.3930589557

$$$$
[H]C1=C([H])C([H])(F)C([H])([H])C([H])=C1N([H])C(=O)C1(C(=O)N([H])c2c([H])c([H])c(Oc3nc([H])nc4c([H])c(OC([H])([H])C([H])([H])C([H])([H])N5C([H])([H])C([H])([H])OC([H])([H])C5([H])[H])c(OC([H])([H])[H])c([H])c34)c(F)c2[H])C([H])([H])C1([H])[H]


 48 53  0  0  0  0  0  0  0  0999 V2000
  156.3432  136.2697  190.0065 C   0  0  0  0  0  0  0  0  0  0  0  0
  156.6116  135.6710  188.8098 C   0  0  0  0  0  0  0  0  0  0  0  0
  156.4968  136.3385  187.6204 C   0  0  0  0  0  0  0  0  0  0  0  0
  156.0952  137.6676  187.6207 C   0  0  0  0  0  0  0  0  0  0  0  0
  155.8212  138.2899  188.7888 C   0  0  0  0  0  0  0  0  0  0  0  0
  155.9494  137.5758  189.9953 C   0  0  0  0  0  0  0  0  0  0  0  0
  155.6873  138.2210  191.1329 F   0  0  0  0  0  0  0  0  0  0  0  0
  155.9702  138.3013  186.3429 N   0  0  0  0  0  0  0  0  0  0  0  0
  154.8451  138.3761  185.5531 C   0  0  0  0  0  0  0  0  0  0  0  0
  153.7788  137.8058  185.9908 O   0  0  0  0  0  0  0  0  0  0  0  0
  156.8808  138.7032  185.9707 H   0  0  0  0  0  0  0  0  0  0  0  0
  154.6889  139.0246  184.2455 C   0  0  0  0  0  0  0  0  0  0  0  0
  153.2512  139.3533  183.8292 C   0  0  0  0  0  0  0  0  0  0  0  0
  153.9133  138.1890  183.2451 C   0  0  0  0  0  0  0  0  0  0  0  0
  155.6411  139.9939  183.7030 C   0  0  0  0  0  0  0  0  0  0  0  0
  156.5062  140.4151  184.5885 O   0  0  0  0  0  0  0  0  0  0  0  0
  155.7488  140.5018  182.4139 N   0  0  0  0  0  0  0  0  0  0  0  0
  155.1842  140.2267  181.6190 H   0  0  0  0  0  0  0  0  0  0  0  0
  156.7813  141.4685  182.1456 C   0  0  0  0  0  0  0  0  0  0  0  0
  156.5199  142.7456  182.2571 C   0  0  0  0  0  0  0  0  0  0  0  0
  157.4638  143.8471  182.0184 C   0  0  0  0  0  0  0  0  0  0  0  0
  158.8273  143.4246  181.5976 C   0  0  0  0  0  0  0  0  0  0  0  0
  159.0695  143.9316  180.3135 F   0  0  0  0  0  0  0  0  0  0  0  0
  159.0185  141.9656  181.5031 C   0  0  0  0  0  0  0  0  0  0  0  0
  158.1160  141.0553  181.7434 C   0  0  0  0  0  0  0  0  0  0  0  0
  156.4701  135.5731  191.1769 O   0  0  0  0  0  0  0  0  0  0  0  0
  152.5231  134.9368  192.2698 C   0  0  0  0  0  0  0  0  0  0  0  0
  153.8417  135.1029  191.9036 C   0  0  0  0  0  0  0  0  0  0  0  0
  154.6895  134.0503  191.6276 C   0  0  0  0  0  0  0  0  0  0  0  0
  156.0231  134.2633  191.2551 C   0  0  0  0  0  0  0  0  0  0  0  0
  156.7576  133.1868  191.0069 N   0  0  0  0  0  0  0  0  0  0  0  0
  156.2441  131.9548  191.1091 C   0  0  0  0  0  0  0  0  0  0  0  0
  154.9734  131.7303  191.4633 N   0  0  0  0  0  0  0  0  0  0  0  0
  154.1758  132.7821  191.7285 C   0  0  0  0  0  0  0  0  0  0  0  0
  152.8463  132.6032  192.0973 C   0  0  0  0  0  0  0  0  0  0  0  0
  152.0287  133.6664  192.3648 C   0  0  0  0  0  0  0  0  0  0  0  0
  151.9987  137.1605  193.2211 C   0  0  0  0  0  0  0  0  0  0  0  0
  151.6680  135.9848  192.5476 O   0  0  0  0  0  0  0  0  0  0  0  0
  150.7160  133.3884  192.7251 O   0  0  0  0  0  0  0  0  0  0  0  0
  150.0379  132.2285  192.3214 C   0  0  0  0  0  0  0  0  0  0  0  0
  149.1617  132.5096  191.1423 C   0  0  0  0  0  0  0  0  0  0  0  0
  148.4268  133.8034  191.2799 C   0  0  0  0  0  0  0  0  0  0  0  0
  148.3557  134.4444  189.9795 N   0  0  0  0  0  0  0  0  0  0  0  0
  149.1843  135.6357  190.0420 C   0  0  0  0  0  0  0  0  0  0  0  0
  150.4178  135.4713  189.1561 C   0  0  0  0  0  0  0  0  0  0  0  0
  149.9732  135.2867  187.8658 O   0  0  0  0  0  0  0  0  0  0  0  0
  149.1695  134.1938  187.6776 C   0  0  0  0  0  0  0  0  0  0  0  0
  148.7482  133.5229  188.9617 C   0  0  0  0  0  0  0  0  0  0  0  0
 37 38  1  0  0  0
 38 27  1  0  0  0
 27 28  2  0  0  0
 28 29  1  0  0  0
 29 30  2  0  0  0
 30 26  1  0  0  0
 26  1  1  0  0  0
  1  2  2  0  0  0
  2  3  1  0  0  0
  3  4  2  0  0  0
  4  8  1  0  0  0
  8  9  1  0  0  0
  9 10  2  0  0  0
  9 12  1  0  0  0
 12 13  1  0  0  0
 13 14  1  0  0  0
 12 15  1  0  0  0
 15 16  2  0  0  0
 15 17  1  0  0  0
 17 19  1  0  0  0
 19 20  2  0  0  0
 20 21  1  0  0  0
 21 22  1  0  0  0
 22 23  1  0  0  0
 22 24  1  0  0  0
 24 25  2  0  0  0
  4  5  1  0  0  0
  5  6  2  0  0  0
  6  7  1  0  0  0
 30 31  1  0  0  0
 31 32  2  0  0  0
 32 33  1  0  0  0
 33 34  2  0  0  0
 34 35  1  0  0  0
 35 36  2  0  0  0
 36 39  1  0  0  0
 39 40  1  0  0  0
 40 41  1  0  0  0
 41 42  1  0  0  0
 42 43  1  0  0  0
 43 44  1  0  0  0
 44 45  1  0  0  0
 45 46  1  0  0  0
 46 47  1  0  0  0
 47 48  1  0  0  0
 36 27  1  0  0  0
 48 43  1  0  0  0
 34 29  1  0  0  0
  6  1  1  0  0  0
 14 12  1  0  0  0
 25 19  1  0  0  0
  8 11  1  0  0  0
 17 18  1  0  0  0
M  END
> <minimizedAffinity>
-6.93022

> <CNNscore>
0.1256084293

> <CNNaffinity>
6.4506492615

> <CNN_VS>
0.8102559447

> <CNNaffinity_variance>
0.1478760093

$$$$
[H]c1nc(C(C#N)(C([H])([H])[H])C([H])([H])[H])c([H])c(C(=O)N([H])c2c([H])nc(C([H])([H])[H])c(-c3c([H])nc(OC4([H])C([H])([H])C([H])([H])OC([H])([H])C4([H])[H])c(N4C([H])([H])C([H])([H])OC([H])([H])C4([H])[H])c3[H])c2[H])c1[H]


 41 45  0  0  0  0  0  0  0  0999 V2000
  151.5351  135.6892  184.9772 C   0  0  0  0  0  0  0  0  0  0  0  0
  152.3604  136.9208  184.9267 C   0  0  0  0  0  0  0  0  0  0  0  0
  152.6083  137.4065  183.6701 N   0  0  0  0  0  0  0  0  0  0  0  0
  153.3631  138.4502  183.4435 C   0  0  0  0  0  0  0  0  0  0  0  0
  154.0079  139.1926  184.4964 C   0  0  0  0  0  0  0  0  0  0  0  0
  153.7461  138.6932  185.7552 C   0  0  0  0  0  0  0  0  0  0  0  0
  152.9470  137.5858  185.9897 C   0  0  0  0  0  0  0  0  0  0  0  0
  152.7150  136.9910  187.2992 C   0  0  0  0  0  0  0  0  0  0  0  0
  151.4499  136.4885  187.5621 C   0  0  0  0  0  0  0  0  0  0  0  0
  151.1437  136.1060  188.7845 N   0  0  0  0  0  0  0  0  0  0  0  0
  151.9881  136.1610  189.8481 C   0  0  0  0  0  0  0  0  0  0  0  0
  153.2817  136.6593  189.6391 C   0  0  0  0  0  0  0  0  0  0  0  0
  153.5976  137.0534  188.3585 C   0  0  0  0  0  0  0  0  0  0  0  0
  154.1747  136.8369  190.7005 N   0  0  0  0  0  0  0  0  0  0  0  0
  154.5691  138.0641  191.3450 C   0  0  0  0  0  0  0  0  0  0  0  0
  156.0645  138.1960  191.1177 C   0  0  0  0  0  0  0  0  0  0  0  0
  156.6889  137.0876  191.7034 O   0  0  0  0  0  0  0  0  0  0  0  0
  156.3356  135.9240  191.0045 C   0  0  0  0  0  0  0  0  0  0  0  0
  154.8539  135.6633  191.3138 C   0  0  0  0  0  0  0  0  0  0  0  0
  151.5800  135.7488  191.0717 O   0  0  0  0  0  0  0  0  0  0  0  0
  150.6205  136.2995  191.9090 C   0  0  0  0  0  0  0  0  0  0  0  0
  149.7616  135.3401  192.6469 C   0  0  0  0  0  0  0  0  0  0  0  0
  150.4673  134.6232  193.7830 C   0  0  0  0  0  0  0  0  0  0  0  0
  151.1358  135.5143  194.5983 O   0  0  0  0  0  0  0  0  0  0  0  0
  152.1195  136.1767  193.8373 C   0  0  0  0  0  0  0  0  0  0  0  0
  151.3779  137.1488  192.9631 C   0  0  0  0  0  0  0  0  0  0  0  0
  154.8694  140.1815  184.0822 N   0  0  0  0  0  0  0  0  0  0  0  0
  154.7595  141.3343  183.3092 C   0  0  0  0  0  0  0  0  0  0  0  0
  153.7093  141.7184  182.7804 O   0  0  0  0  0  0  0  0  0  0  0  0
  155.9316  140.0787  184.4531 H   0  0  0  0  0  0  0  0  0  0  0  0
  156.0120  142.1353  183.1259 C   0  0  0  0  0  0  0  0  0  0  0  0
  156.0793  143.0945  182.1543 C   0  0  0  0  0  0  0  0  0  0  0  0
  157.2886  143.7782  181.9128 C   0  0  0  0  0  0  0  0  0  0  0  0
  158.3486  143.4514  182.6693 N   0  0  0  0  0  0  0  0  0  0  0  0
  158.3123  142.5116  183.6413 C   0  0  0  0  0  0  0  0  0  0  0  0
  157.1315  141.8262  183.8933 C   0  0  0  0  0  0  0  0  0  0  0  0
  159.5143  142.1885  184.4166 C   0  0  0  0  0  0  0  0  0  0  0  0
  159.1601  141.5916  185.7779 C   0  0  0  0  0  0  0  0  0  0  0  0
  160.2444  141.0816  183.6431 C   0  0  0  0  0  0  0  0  0  0  0  0
  160.4085  143.3144  184.5939 C   0  0  0  0  0  0  0  0  0  0  0  0
  161.1055  144.2240  184.7368 N   0  0  0  0  0  0  0  0  0  0  0  0
  1  2  1  0  0  0
  2  3  2  0  0  0
  3  4  1  0  0  0
  4  5  2  0  0  0
  5 27  1  0  0  0
 27 28  1  0  0  0
 28 29  2  0  0  0
 28 31  1  0  0  0
 31 32  2  0  0  0
 32 33  1  0  0  0
 33 34  2  0  0  0
 34 35  1  0  0  0
 35 36  2  0  0  0
 35 37  1  0  0  0
 37 38  1  0  0  0
 37 39  1  0  0  0
 37 40  1  0  0  0
 40 41  3  0  0  0
  5  6  1  0  0  0
  6  7  2  0  0  0
  7  8  1  0  0  0
  8  9  2  0  0  0
  9 10  1  0  0  0
 10 11  2  0  0  0
 11 20  1  0  0  0
 20 21  1  0  0  0
 21 22  1  0  0  0
 22 23  1  0  0  0
 23 24  1  0  0  0
 24 25  1  0  0  0
 25 26  1  0  0  0
 11 12  1  0  0  0
 12 13  2  0  0  0
 12 14  1  0  0  0
 14 15  1  0  0  0
 15 16  1  0  0  0
 16 17  1  0  0  0
 17 18  1  0  0  0
 18 19  1  0  0  0
  7  2  1  0  0  0
 13  8  1  0  0  0
 19 14  1  0  0  0
 36 31  1  0  0  0
 26 21  1  0  0  0
 27 30  1  0  0  0
M  END
> <minimizedAffinity>
-9.17165

> <CNNscore>
0.2428926378

> <CNNaffinity>
6.7575464249

> <CNN_VS>
1.6413582563

> <CNNaffinity_variance>
0.1019654274

$$$$
[H]c1nc(C(C#N)(C([H])([H])[H])C([H])([H])[H])c([H])c(C(=O)N([H])c2c([H])nc(C([H])([H])[H])c(-c3c([H])nc(OC4([H])C([H])([H])C([H])([H])OC([H])([H])C4([H])[H])c(N4C([H])([H])C([H])([H])OC([H])([H])C4([H])[H])c3[H])c2[H])c1[H]


 41 45  0  0  0  0  0  0  0  0999 V2000
  152.8593  134.2834  185.2674 C   0  0  0  0  0  0  0  0  0  0  0  0
  153.1436  135.7215  185.0407 C   0  0  0  0  0  0  0  0  0  0  0  0
  153.4661  136.0570  183.7524 N   0  0  0  0  0  0  0  0  0  0  0  0
  153.7983  137.2693  183.3915 C   0  0  0  0  0  0  0  0  0  0  0  0
  153.8565  138.3725  184.3164 C   0  0  0  0  0  0  0  0  0  0  0  0
  153.5262  138.0193  185.6082 C   0  0  0  0  0  0  0  0  0  0  0  0
  153.1765  136.7327  185.9856 C   0  0  0  0  0  0  0  0  0  0  0  0
  152.8977  136.3149  187.3531 C   0  0  0  0  0  0  0  0  0  0  0  0
  151.6209  135.8554  187.6373 C   0  0  0  0  0  0  0  0  0  0  0  0
  151.2723  135.6369  188.8883 N   0  0  0  0  0  0  0  0  0  0  0  0
  152.0822  135.8276  189.9631 C   0  0  0  0  0  0  0  0  0  0  0  0
  153.3857  136.2899  189.7338 C   0  0  0  0  0  0  0  0  0  0  0  0
  153.7460  136.5122  188.4239 C   0  0  0  0  0  0  0  0  0  0  0  0
  154.2453  136.6016  190.7919 N   0  0  0  0  0  0  0  0  0  0  0  0
  154.6308  137.9011  191.2812 C   0  0  0  0  0  0  0  0  0  0  0  0
  156.1341  137.9932  191.0891 C   0  0  0  0  0  0  0  0  0  0  0  0
  156.7277  136.9687  191.8373 O   0  0  0  0  0  0  0  0  0  0  0  0
  156.3856  135.7247  191.2870 C   0  0  0  0  0  0  0  0  0  0  0  0
  154.8920  135.5159  191.5778 C   0  0  0  0  0  0  0  0  0  0  0  0
  151.6316  135.5802  191.2157 O   0  0  0  0  0  0  0  0  0  0  0  0
  150.6633  136.2508  191.9491 C   0  0  0  0  0  0  0  0  0  0  0  0
  149.6928  135.4046  192.6873 C   0  0  0  0  0  0  0  0  0  0  0  0
  150.2721  134.7218  193.9123 C   0  0  0  0  0  0  0  0  0  0  0  0
  150.9501  135.6197  194.7120 O   0  0  0  0  0  0  0  0  0  0  0  0
  152.0250  136.1601  193.9783 C   0  0  0  0  0  0  0  0  0  0  0  0
  151.4119  137.1176  192.9952 C   0  0  0  0  0  0  0  0  0  0  0  0
  154.3477  139.5503  183.8035 N   0  0  0  0  0  0  0  0  0  0  0  0
  153.9410  140.4530  182.8245 C   0  0  0  0  0  0  0  0  0  0  0  0
  152.9157  140.3247  182.1446 O   0  0  0  0  0  0  0  0  0  0  0  0
  155.3049  139.9180  184.2781 H   0  0  0  0  0  0  0  0  0  0  0  0
  154.8254  141.6422  182.6065 C   0  0  0  0  0  0  0  0  0  0  0  0
  154.3473  142.9042  182.8242 C   0  0  0  0  0  0  0  0  0  0  0  0
  155.1436  144.0281  182.5226 C   0  0  0  0  0  0  0  0  0  0  0  0
  156.3703  143.8044  182.0245 N   0  0  0  0  0  0  0  0  0  0  0  0
  156.8735  142.5686  181.8031 C   0  0  0  0  0  0  0  0  0  0  0  0
  156.1044  141.4495  182.0921 C   0  0  0  0  0  0  0  0  0  0  0  0
  158.2148  142.3961  181.2360 C   0  0  0  0  0  0  0  0  0  0  0  0
  158.1624  141.7168  179.8683 C   0  0  0  0  0  0  0  0  0  0  0  0
  158.7659  143.8076  180.9898 C   0  0  0  0  0  0  0  0  0  0  0  0
  159.1224  141.6758  182.1055 C   0  0  0  0  0  0  0  0  0  0  0  0
  159.8513  141.1188  182.8070 N   0  0  0  0  0  0  0  0  0  0  0  0
  1  2  1  0  0  0
  2  3  2  0  0  0
  3  4  1  0  0  0
  4  5  2  0  0  0
  5 27  1  0  0  0
 27 28  1  0  0  0
 28 29  2  0  0  0
 28 31  1  0  0  0
 31 32  2  0  0  0
 32 33  1  0  0  0
 33 34  2  0  0  0
 34 35  1  0  0  0
 35 36  2  0  0  0
 35 37  1  0  0  0
 37 38  1  0  0  0
 37 39  1  0  0  0
 37 40  1  0  0  0
 40 41  3  0  0  0
  5  6  1  0  0  0
  6  7  2  0  0  0
  7  8  1  0  0  0
  8  9  2  0  0  0
  9 10  1  0  0  0
 10 11  2  0  0  0
 11 20  1  0  0  0
 20 21  1  0  0  0
 21 22  1  0  0  0
 22 23  1  0  0  0
 23 24  1  0  0  0
 24 25  1  0  0  0
 25 26  1  0  0  0
 11 12  1  0  0  0
 12 13  2  0  0  0
 12 14  1  0  0  0
 14 15  1  0  0  0
 15 16  1  0  0  0
 16 17  1  0  0  0
 17 18  1  0  0  0
 18 19  1  0  0  0
  7  2  1  0  0  0
 13  8  1  0  0  0
 19 14  1  0  0  0
 36 31  1  0  0  0
 26 21  1  0  0  0
 27 30  1  0  0  0
M  END
> <minimizedAffinity>
-8.68652

> <CNNscore>
0.2318418324

> <CNNaffinity>
6.5399794579

> <CNN_VS>
1.5162408352

> <CNNaffinity_variance>
0.0970347300

$$$$
[H]c1nc(C(C#N)(C([H])([H])[H])C([H])([H])[H])c([H])c(C(=O)N([H])c2c([H])nc(C([H])([H])[H])c(-c3c([H])nc(OC4([H])C([H])([H])C([H])([H])OC([H])([H])C4([H])[H])c(N4C([H])([H])C([H])([H])OC([H])([H])C4([H])[H])c3[H])c2[H])c1[H]


 41 45  0  0  0  0  0  0  0  0999 V2000
  155.1842  135.4657  188.9963 C   0  0  0  0  0  0  0  0  0  0  0  0
  155.0237  136.4362  187.8860 C   0  0  0  0  0  0  0  0  0  0  0  0
  156.1652  137.0992  187.5203 N   0  0  0  0  0  0  0  0  0  0  0  0
  156.1887  138.0268  186.5986 C   0  0  0  0  0  0  0  0  0  0  0  0
  155.0132  138.4416  185.8763 C   0  0  0  0  0  0  0  0  0  0  0  0
  153.8733  137.7629  186.2536 C   0  0  0  0  0  0  0  0  0  0  0  0
  153.8535  136.7820  187.2321 C   0  0  0  0  0  0  0  0  0  0  0  0
  152.6539  136.1036  187.7043 C   0  0  0  0  0  0  0  0  0  0  0  0
  152.1283  136.5014  188.9240 C   0  0  0  0  0  0  0  0  0  0  0  0
  151.1566  135.8016  189.4721 N   0  0  0  0  0  0  0  0  0  0  0  0
  150.6033  134.6855  188.9285 C   0  0  0  0  0  0  0  0  0  0  0  0
  151.0955  134.2387  187.6941 C   0  0  0  0  0  0  0  0  0  0  0  0
  152.1080  134.9766  187.1237 C   0  0  0  0  0  0  0  0  0  0  0  0
  150.6451  133.0467  187.1181 N   0  0  0  0  0  0  0  0  0  0  0  0
  151.2682  131.7475  187.1420 C   0  0  0  0  0  0  0  0  0  0  0  0
  151.5648  131.3973  185.6947 C   0  0  0  0  0  0  0  0  0  0  0  0
  150.3487  131.3680  185.0005 O   0  0  0  0  0  0  0  0  0  0  0  0
  149.8104  132.6618  184.9386 C   0  0  0  0  0  0  0  0  0  0  0  0
  149.3623  133.0156  186.3644 C   0  0  0  0  0  0  0  0  0  0  0  0
  149.6092  134.0282  189.5712 O   0  0  0  0  0  0  0  0  0  0  0  0
  148.6078  134.5328  190.3883 C   0  0  0  0  0  0  0  0  0  0  0  0
  147.3224  133.7907  190.3894 C   0  0  0  0  0  0  0  0  0  0  0  0
  147.3734  132.4637  191.1237 C   0  0  0  0  0  0  0  0  0  0  0  0
  147.9360  132.6063  192.3762 O   0  0  0  0  0  0  0  0  0  0  0  0
  149.2612  133.0624  192.2299 C   0  0  0  0  0  0  0  0  0  0  0  0
  149.1571  134.5100  191.8387 C   0  0  0  0  0  0  0  0  0  0  0  0
  155.1834  139.5162  185.0349 N   0  0  0  0  0  0  0  0  0  0  0  0
  154.6055  139.9453  183.8431 C   0  0  0  0  0  0  0  0  0  0  0  0
  153.7085  139.3363  183.2475 O   0  0  0  0  0  0  0  0  0  0  0  0
  155.9613  140.2659  185.3656 H   0  0  0  0  0  0  0  0  0  0  0  0
  155.1280  141.2285  183.2737 C   0  0  0  0  0  0  0  0  0  0  0  0
  154.2945  142.3002  183.1140 C   0  0  0  0  0  0  0  0  0  0  0  0
  154.7580  143.4739  182.4851 C   0  0  0  0  0  0  0  0  0  0  0  0
  156.0321  143.4900  182.0619 N   0  0  0  0  0  0  0  0  0  0  0  0
  156.8825  142.4487  182.2101 C   0  0  0  0  0  0  0  0  0  0  0  0
  156.4446  141.2837  182.8252 C   0  0  0  0  0  0  0  0  0  0  0  0
  158.2569  142.5257  181.7046 C   0  0  0  0  0  0  0  0  0  0  0  0
  158.9569  143.8000  182.1747 C   0  0  0  0  0  0  0  0  0  0  0  0
  159.0205  141.3587  182.3462 C   0  0  0  0  0  0  0  0  0  0  0  0
  158.3499  142.4199  180.2628 C   0  0  0  0  0  0  0  0  0  0  0  0
  158.4365  142.3510  179.1132 N   0  0  0  0  0  0  0  0  0  0  0  0
  1  2  1  0  0  0
  2  3  2  0  0  0
  3  4  1  0  0  0
  4  5  2  0  0  0
  5 27  1  0  0  0
 27 28  1  0  0  0
 28 29  2  0  0  0
 28 31  1  0  0  0
 31 32  2  0  0  0
 32 33  1  0  0  0
 33 34  2  0  0  0
 34 35  1  0  0  0
 35 36  2  0  0  0
 35 37  1  0  0  0
 37 38  1  0  0  0
 37 39  1  0  0  0
 37 40  1  0  0  0
 40 41  3  0  0  0
  5  6  1  0  0  0
  6  7  2  0  0  0
  7  8  1  0  0  0
  8  9  2  0  0  0
  9 10  1  0  0  0
 10 11  2  0  0  0
 11 20  1  0  0  0
 20 21  1  0  0  0
 21 22  1  0  0  0
 22 23  1  0  0  0
 23 24  1  0  0  0
 24 25  1  0  0  0
 25 26  1  0  0  0
 11 12  1  0  0  0
 12 13  2  0  0  0
 12 14  1  0  0  0
 14 15  1  0  0  0
 15 16  1  0  0  0
 16 17  1  0  0  0
 17 18  1  0  0  0
 18 19  1  0  0  0
  7  2  1  0  0  0
 13  8  1  0  0  0
 19 14  1  0  0  0
 36 31  1  0  0  0
 26 21  1  0  0  0
 27 30  1  0  0  0
M  END
> <minimizedAffinity>
-6.20142

> <CNNscore>
0.2140432745

> <CNNaffinity>
6.3997144699

> <CNN_VS>
1.3698158264

> <CNNaffinity_variance>
0.2963240147

$$$$
[H]c1nc(C(C#N)(C([H])([H])[H])C([H])([H])[H])c([H])c(C(=O)N([H])c2c([H])nc(C([H])([H])[H])c(-c3c([H])nc(OC4([H])C([H])([H])C([H])([H])OC([H])([H])C4([H])[H])c(N4C([H])([H])C([H])([H])OC([H])([H])C4([H])[H])c3[H])c2[H])c1[H]


 41 45  0  0  0  0  0  0  0  0999 V2000
  150.8277  136.4319  184.8462 C   0  0  0  0  0  0  0  0  0  0  0  0
  152.0406  137.2847  184.8882 C   0  0  0  0  0  0  0  0  0  0  0  0
  152.5371  137.6546  183.6663 N   0  0  0  0  0  0  0  0  0  0  0  0
  153.6301  138.3582  183.5222 C   0  0  0  0  0  0  0  0  0  0  0  0
  154.4193  138.8144  184.6378 C   0  0  0  0  0  0  0  0  0  0  0  0
  153.9049  138.4367  185.8606 C   0  0  0  0  0  0  0  0  0  0  0  0
  152.7473  137.6896  186.0077 C   0  0  0  0  0  0  0  0  0  0  0  0
  152.2227  137.2120  187.2801 C   0  0  0  0  0  0  0  0  0  0  0  0
  152.9375  137.5213  188.4270 C   0  0  0  0  0  0  0  0  0  0  0  0
  152.6017  136.9642  189.5721 N   0  0  0  0  0  0  0  0  0  0  0  0
  151.5799  136.0828  189.7349 C   0  0  0  0  0  0  0  0  0  0  0  0
  150.8218  135.7353  188.6080 C   0  0  0  0  0  0  0  0  0  0  0  0
  151.1745  136.3241  187.4147 C   0  0  0  0  0  0  0  0  0  0  0  0
  149.8180  134.7640  188.6760 N   0  0  0  0  0  0  0  0  0  0  0  0
  148.4044  134.9484  188.8866 C   0  0  0  0  0  0  0  0  0  0  0  0
  148.0754  134.2285  190.1823 C   0  0  0  0  0  0  0  0  0  0  0  0
  148.3950  132.8750  190.0164 O   0  0  0  0  0  0  0  0  0  0  0  0
  149.7842  132.7316  189.8857 C   0  0  0  0  0  0  0  0  0  0  0  0
  150.1562  133.3234  188.5181 C   0  0  0  0  0  0  0  0  0  0  0  0
  151.3134  135.5571  190.9539 O   0  0  0  0  0  0  0  0  0  0  0  0
  150.7149  136.1523  192.0552 C   0  0  0  0  0  0  0  0  0  0  0  0
  150.0381  135.2398  193.0102 C   0  0  0  0  0  0  0  0  0  0  0  0
  150.9882  134.4177  193.8613 C   0  0  0  0  0  0  0  0  0  0  0  0
  151.9564  135.2129  194.4407 O   0  0  0  0  0  0  0  0  0  0  0  0
  152.7161  135.8199  193.4209 C   0  0  0  0  0  0  0  0  0  0  0  0
  151.8369  136.8882  192.8334 C   0  0  0  0  0  0  0  0  0  0  0  0
  155.6056  139.4294  184.3121 N   0  0  0  0  0  0  0  0  0  0  0  0
  156.8405  139.5967  184.9330 C   0  0  0  0  0  0  0  0  0  0  0  0
  157.1186  139.1574  186.0554 O   0  0  0  0  0  0  0  0  0  0  0  0
  155.6302  139.9144  183.2919 H   0  0  0  0  0  0  0  0  0  0  0  0
  157.8736  140.3632  184.1655 C   0  0  0  0  0  0  0  0  0  0  0  0
  158.0089  140.1763  182.8182 C   0  0  0  0  0  0  0  0  0  0  0  0
  159.0460  140.8193  182.1117 C   0  0  0  0  0  0  0  0  0  0  0  0
  159.8757  141.6105  182.8105 N   0  0  0  0  0  0  0  0  0  0  0  0
  159.7647  141.8198  184.1422 C   0  0  0  0  0  0  0  0  0  0  0  0
  158.7512  141.1945  184.8558 C   0  0  0  0  0  0  0  0  0  0  0  0
  160.7195  142.6806  184.8477 C   0  0  0  0  0  0  0  0  0  0  0  0
  160.5775  144.1416  184.4232 C   0  0  0  0  0  0  0  0  0  0  0  0
  160.3340  142.6291  186.3327 C   0  0  0  0  0  0  0  0  0  0  0  0
  162.0976  142.2597  184.6988 C   0  0  0  0  0  0  0  0  0  0  0  0
  163.1900  141.9065  184.5733 N   0  0  0  0  0  0  0  0  0  0  0  0
  1  2  1  0  0  0
  2  3  2  0  0  0
  3  4  1  0  0  0
  4  5  2  0  0  0
  5 27  1  0  0  0
 27 28  1  0  0  0
 28 29  2  0  0  0
 28 31  1  0  0  0
 31 32  2  0  0  0
 32 33  1  0  0  0
 33 34  2  0  0  0
 34 35  1  0  0  0
 35 36  2  0  0  0
 35 37  1  0  0  0
 37 38  1  0  0  0
 37 39  1  0  0  0
 37 40  1  0  0  0
 40 41  3  0  0  0
  5  6  1  0  0  0
  6  7  2  0  0  0
  7  8  1  0  0  0
  8  9  2  0  0  0
  9 10  1  0  0  0
 10 11  2  0  0  0
 11 20  1  0  0  0
 20 21  1  0  0  0
 21 22  1  0  0  0
 22 23  1  0  0  0
 23 24  1  0  0  0
 24 25  1  0  0  0
 25 26  1  0  0  0
 11 12  1  0  0  0
 12 13  2  0  0  0
 12 14  1  0  0  0
 14 15  1  0  0  0
 15 16  1  0  0  0
 16 17  1  0  0  0
 17 18  1  0  0  0
 18 19  1  0  0  0
  7  2  1  0  0  0
 13  8  1  0  0  0
 19 14  1  0  0  0
 36 31  1  0  0  0
 26 21  1  0  0  0
 27 30  1  0  0  0
M  END
> <minimizedAffinity>
-8.23052

> <CNNscore>
0.2031338066

> <CNNaffinity>
6.1691331863

> <CNN_VS>
1.2531595230

> <CNNaffinity_variance>
0.0507073589

$$$$
[H]c1nc(C(C#N)(C([H])([H])[H])C([H])([H])[H])c([H])c(C(=O)N([H])c2c([H])nc(C([H])([H])[H])c(-c3c([H])nc(OC4([H])C([H])([H])C([H])([H])OC([H])([H])C4([H])[H])c(N4C([H])([H])C([H])([H])OC([H])([H])C4([H])[H])c3[H])c2[H])c1[H]


 41 45  0  0  0  0  0  0  0  0999 V2000
  155.4683  135.1115  189.6934 C   0  0  0  0  0  0  0  0  0  0  0  0
  155.2186  136.1127  188.6278 C   0  0  0  0  0  0  0  0  0  0  0  0
  156.2420  136.2808  187.7330 N   0  0  0  0  0  0  0  0  0  0  0  0
  156.2088  137.1612  186.7664 C   0  0  0  0  0  0  0  0  0  0  0  0
  155.0891  138.0412  186.5481 C   0  0  0  0  0  0  0  0  0  0  0  0
  154.0661  137.8575  187.4549 C   0  0  0  0  0  0  0  0  0  0  0  0
  154.1071  136.9244  188.4783 C   0  0  0  0  0  0  0  0  0  0  0  0
  153.0767  136.7607  189.4951 C   0  0  0  0  0  0  0  0  0  0  0  0
  153.3372  137.2625  190.7610 C   0  0  0  0  0  0  0  0  0  0  0  0
  152.5167  136.9827  191.7524 N   0  0  0  0  0  0  0  0  0  0  0  0
  151.3974  136.2198  191.6404 C   0  0  0  0  0  0  0  0  0  0  0  0
  151.0845  135.6876  190.3817 C   0  0  0  0  0  0  0  0  0  0  0  0
  151.9431  135.9871  189.3482 C   0  0  0  0  0  0  0  0  0  0  0  0
  150.0051  134.8158  190.2068 N   0  0  0  0  0  0  0  0  0  0  0  0
  149.9869  133.3786  190.3115 C   0  0  0  0  0  0  0  0  0  0  0  0
  149.5906  132.8625  188.9397 C   0  0  0  0  0  0  0  0  0  0  0  0
  148.3199  133.3691  188.6392 O   0  0  0  0  0  0  0  0  0  0  0  0
  148.3939  134.7602  188.4758 C   0  0  0  0  0  0  0  0  0  0  0  0
  148.6572  135.3490  189.8698 C   0  0  0  0  0  0  0  0  0  0  0  0
  150.6165  135.9822  192.7207 O   0  0  0  0  0  0  0  0  0  0  0  0
  150.9877  135.6967  194.0268 C   0  0  0  0  0  0  0  0  0  0  0  0
  149.9757  135.0034  194.8623 C   0  0  0  0  0  0  0  0  0  0  0  0
  149.7750  133.5417  194.5075 C   0  0  0  0  0  0  0  0  0  0  0  0
  150.9817  132.8763  194.4265 O   0  0  0  0  0  0  0  0  0  0  0  0
  151.7547  133.4599  193.4031 C   0  0  0  0  0  0  0  0  0  0  0  0
  152.2336  134.7759  193.9489 C   0  0  0  0  0  0  0  0  0  0  0  0
  155.2661  138.9942  185.5724 N   0  0  0  0  0  0  0  0  0  0  0  0
  154.6548  139.2984  184.3591 C   0  0  0  0  0  0  0  0  0  0  0  0
  153.7086  138.6622  183.8795 O   0  0  0  0  0  0  0  0  0  0  0  0
  156.0877  139.7427  185.7764 H   0  0  0  0  0  0  0  0  0  0  0  0
  155.2038  140.4759  183.6133 C   0  0  0  0  0  0  0  0  0  0  0  0
  154.4359  141.5914  183.4272 C   0  0  0  0  0  0  0  0  0  0  0  0
  154.9126  142.6593  182.6394 C   0  0  0  0  0  0  0  0  0  0  0  0
  156.1331  142.5325  182.0945 N   0  0  0  0  0  0  0  0  0  0  0  0
  156.9187  141.4446  182.2645 C   0  0  0  0  0  0  0  0  0  0  0  0
  156.4667  140.3821  183.0352 C   0  0  0  0  0  0  0  0  0  0  0  0
  158.2343  141.3625  181.6221 C   0  0  0  0  0  0  0  0  0  0  0  0
  159.2898  142.1436  182.4035 C   0  0  0  0  0  0  0  0  0  0  0  0
  158.6582  139.8886  181.6898 C   0  0  0  0  0  0  0  0  0  0  0  0
  158.2309  141.7937  180.2391 C   0  0  0  0  0  0  0  0  0  0  0  0
  158.2234  142.1558  179.1425 N   0  0  0  0  0  0  0  0  0  0  0  0
  1  2  1  0  0  0
  2  3  2  0  0  0
  3  4  1  0  0  0
  4  5  2  0  0  0
  5 27  1  0  0  0
 27 28  1  0  0  0
 28 29  2  0  0  0
 28 31  1  0  0  0
 31 32  2  0  0  0
 32 33  1  0  0  0
 33 34  2  0  0  0
 34 35  1  0  0  0
 35 36  2  0  0  0
 35 37  1  0  0  0
 37 38  1  0  0  0
 37 39  1  0  0  0
 37 40  1  0  0  0
 40 41  3  0  0  0
  5  6  1  0  0  0
  6  7  2  0  0  0
  7  8  1  0  0  0
  8  9  2  0  0  0
  9 10  1  0  0  0
 10 11  2  0  0  0
 11 20  1  0  0  0
 20 21  1  0  0  0
 21 22  1  0  0  0
 22 23  1  0  0  0
 23 24  1  0  0  0
 24 25  1  0  0  0
 25 26  1  0  0  0
 11 12  1  0  0  0
 12 13  2  0  0  0
 12 14  1  0  0  0
 14 15  1  0  0  0
 15 16  1  0  0  0
 16 17  1  0  0  0
 17 18  1  0  0  0
 18 19  1  0  0  0
  7  2  1  0  0  0
 13  8  1  0  0  0
 19 14  1  0  0  0
 36 31  1  0  0  0
 26 21  1  0  0  0
 27 30  1  0  0  0
M  END
> <minimizedAffinity>
-7.80642

> <CNNscore>
0.1944154203

> <CNNaffinity>
6.3734707832

> <CNN_VS>
1.2391010523

> <CNNaffinity_variance>
0.0909558907

$$$$
[H]c1nc(C(C#N)(C([H])([H])[H])C([H])([H])[H])c([H])c(C(=O)N([H])c2c([H])nc(C([H])([H])[H])c(-c3c([H])nc(OC4([H])C([H])([H])C([H])([H])OC([H])([H])C4([H])[H])c(N4C([H])([H])C([H])([H])OC([H])([H])C4([H])[H])c3[H])c2[H])c1[H]


 41 45  0  0  0  0  0  0  0  0999 V2000
  154.6623  135.5312  188.6736 C   0  0  0  0  0  0  0  0  0  0  0  0
  154.6605  136.4863  187.5388 C   0  0  0  0  0  0  0  0  0  0  0  0
  155.7969  137.2398  187.4078 N   0  0  0  0  0  0  0  0  0  0  0  0
  155.9385  138.1670  186.4963 C   0  0  0  0  0  0  0  0  0  0  0  0
  154.9105  138.4858  185.5386 C   0  0  0  0  0  0  0  0  0  0  0  0
  153.7744  137.7167  185.6815 C   0  0  0  0  0  0  0  0  0  0  0  0
  153.6289  136.7367  186.6502 C   0  0  0  0  0  0  0  0  0  0  0  0
  152.4148  135.9630  186.8734 C   0  0  0  0  0  0  0  0  0  0  0  0
  152.5493  134.5963  187.0633 C   0  0  0  0  0  0  0  0  0  0  0  0
  151.4749  133.8352  187.0903 N   0  0  0  0  0  0  0  0  0  0  0  0
  150.2012  134.2868  186.9447 C   0  0  0  0  0  0  0  0  0  0  0  0
  150.0064  135.6617  186.7514 C   0  0  0  0  0  0  0  0  0  0  0  0
  151.1326  136.4529  186.7286 C   0  0  0  0  0  0  0  0  0  0  0  0
  148.7363  136.1893  186.4980 N   0  0  0  0  0  0  0  0  0  0  0  0
  147.8711  135.9429  185.3722 C   0  0  0  0  0  0  0  0  0  0  0  0
  147.6854  137.2834  184.6839 C   0  0  0  0  0  0  0  0  0  0  0  0
  147.0931  138.1605  185.6012 O   0  0  0  0  0  0  0  0  0  0  0  0
  147.9923  138.4300  186.6434 C   0  0  0  0  0  0  0  0  0  0  0  0
  148.1111  137.1355  187.4615 C   0  0  0  0  0  0  0  0  0  0  0  0
  149.1578  133.4248  186.9813 O   0  0  0  0  0  0  0  0  0  0  0  0
  148.7873  132.5364  187.9806 C   0  0  0  0  0  0  0  0  0  0  0  0
  149.2605  132.8526  189.3514 C   0  0  0  0  0  0  0  0  0  0  0  0
  148.5413  134.0198  190.0016 C   0  0  0  0  0  0  0  0  0  0  0  0
  147.1714  133.8811  189.9028 O   0  0  0  0  0  0  0  0  0  0  0  0
  146.8132  133.8669  188.5401 C   0  0  0  0  0  0  0  0  0  0  0  0
  147.2366  132.5227  188.0175 C   0  0  0  0  0  0  0  0  0  0  0  0
  155.1667  139.5713  184.7338 N   0  0  0  0  0  0  0  0  0  0  0  0
  154.7022  140.0260  183.5026 C   0  0  0  0  0  0  0  0  0  0  0  0
  153.8556  139.4373  182.8193 O   0  0  0  0  0  0  0  0  0  0  0  0
  155.9198  140.3062  185.1451 H   0  0  0  0  0  0  0  0  0  0  0  0
  155.2872  141.3115  183.0035 C   0  0  0  0  0  0  0  0  0  0  0  0
  154.5334  142.4518  182.9922 C   0  0  0  0  0  0  0  0  0  0  0  0
  155.0470  143.6382  182.4293 C   0  0  0  0  0  0  0  0  0  0  0  0
  156.2879  143.5964  181.9181 N   0  0  0  0  0  0  0  0  0  0  0  0
  157.0601  142.4860  181.9192 C   0  0  0  0  0  0  0  0  0  0  0  0
  156.5718  141.3076  182.4673 C   0  0  0  0  0  0  0  0  0  0  0  0
  158.4002  142.5044  181.3239 C   0  0  0  0  0  0  0  0  0  0  0  0
  158.4105  141.8464  179.9449 C   0  0  0  0  0  0  0  0  0  0  0  0
  158.7518  143.9809  181.0940 C   0  0  0  0  0  0  0  0  0  0  0  0
  159.4142  141.8987  182.1626 C   0  0  0  0  0  0  0  0  0  0  0  0
  160.2260  141.4022  182.8170 N   0  0  0  0  0  0  0  0  0  0  0  0
  1  2  1  0  0  0
  2  3  2  0  0  0
  3  4  1  0  0  0
  4  5  2  0  0  0
  5 27  1  0  0  0
 27 28  1  0  0  0
 28 29  2  0  0  0
 28 31  1  0  0  0
 31 32  2  0  0  0
 32 33  1  0  0  0
 33 34  2  0  0  0
 34 35  1  0  0  0
 35 36  2  0  0  0
 35 37  1  0  0  0
 37 38  1  0  0  0
 37 39  1  0  0  0
 37 40  1  0  0  0
 40 41  3  0  0  0
  5  6  1  0  0  0
  6  7  2  0  0  0
  7  8  1  0  0  0
  8  9  2  0  0  0
  9 10  1  0  0  0
 10 11  2  0  0  0
 11 20  1  0  0  0
 20 21  1  0  0  0
 21 22  1  0  0  0
 22 23  1  0  0  0
 23 24  1  0  0  0
 24 25  1  0  0  0
 25 26  1  0  0  0
 11 12  1  0  0  0
 12 13  2  0  0  0
 12 14  1  0  0  0
 14 15  1  0  0  0
 15 16  1  0  0  0
 16 17  1  0  0  0
 17 18  1  0  0  0
 18 19  1  0  0  0
  7  2  1  0  0  0
 13  8  1  0  0  0
 19 14  1  0  0  0
 36 31  1  0  0  0
 26 21  1  0  0  0
 27 30  1  0  0  0
M  END
> <minimizedAffinity>
-6.56548

> <CNNscore>
0.1799986362

> <CNNaffinity>
6.3989729881

> <CNN_VS>
1.1518063545

> <CNNaffinity_variance>
0.1067903489

$$$$
[H]c1nc(C(C#N)(C([H])([H])[H])C([H])([H])[H])c([H])c(C(=O)N([H])c2c([H])nc(C([H])([H])[H])c(-c3c([H])nc(OC4([H])C([H])([H])C([H])([H])OC([H])([H])C4([H])[H])c(N4C([H])([H])C([H])([H])OC([H])([H])C4([H])[H])c3[H])c2[H])c1[H]


 41 45  0  0  0  0  0  0  0  0999 V2000
  155.1426  135.2041  189.9987 C   0  0  0  0  0  0  0  0  0  0  0  0
  154.9019  136.1039  188.8443 C   0  0  0  0  0  0  0  0  0  0  0  0
  156.0003  136.3653  188.0687 N   0  0  0  0  0  0  0  0  0  0  0  0
  155.9756  137.1809  187.0466 C   0  0  0  0  0  0  0  0  0  0  0  0
  154.7874  137.8845  186.6359 C   0  0  0  0  0  0  0  0  0  0  0  0
  153.6900  137.6084  187.4245 C   0  0  0  0  0  0  0  0  0  0  0  0
  153.7219  136.7447  188.5075 C   0  0  0  0  0  0  0  0  0  0  0  0
  152.6006  136.4930  189.4028 C   0  0  0  0  0  0  0  0  0  0  0  0
  152.7221  136.9117  190.7189 C   0  0  0  0  0  0  0  0  0  0  0  0
  151.8150  136.5499  191.6024 N   0  0  0  0  0  0  0  0  0  0  0  0
  150.7316  135.7762  191.3284 C   0  0  0  0  0  0  0  0  0  0  0  0
  150.5578  135.3258  190.0122 C   0  0  0  0  0  0  0  0  0  0  0  0
  151.5066  135.7109  189.0920 C   0  0  0  0  0  0  0  0  0  0  0  0
  149.5231  134.4485  189.6726 N   0  0  0  0  0  0  0  0  0  0  0  0
  148.1089  134.7156  189.5982 C   0  0  0  0  0  0  0  0  0  0  0  0
  147.4561  133.8125  190.6294 C   0  0  0  0  0  0  0  0  0  0  0  0
  147.7444  132.4860  190.2847 O   0  0  0  0  0  0  0  0  0  0  0  0
  149.1180  132.2473  190.4380 C   0  0  0  0  0  0  0  0  0  0  0  0
  149.8237  133.0335  189.3231 C   0  0  0  0  0  0  0  0  0  0  0  0
  149.8540  135.4510  192.3069 O   0  0  0  0  0  0  0  0  0  0  0  0
  149.8676  134.3681  193.1743 C   0  0  0  0  0  0  0  0  0  0  0  0
  151.0222  133.4433  193.0550 C   0  0  0  0  0  0  0  0  0  0  0  0
  152.3242  134.0042  193.5960 C   0  0  0  0  0  0  0  0  0  0  0  0
  152.1562  134.5258  194.8630 O   0  0  0  0  0  0  0  0  0  0  0  0
  151.2305  135.5862  194.7989 C   0  0  0  0  0  0  0  0  0  0  0  0
  149.8834  134.9456  194.6139 C   0  0  0  0  0  0  0  0  0  0  0  0
  154.9611  138.8007  185.6249 N   0  0  0  0  0  0  0  0  0  0  0  0
  154.4428  138.9766  184.3447 C   0  0  0  0  0  0  0  0  0  0  0  0
  153.6169  138.2201  183.8198 O   0  0  0  0  0  0  0  0  0  0  0  0
  155.6790  139.6415  185.8576 H   0  0  0  0  0  0  0  0  0  0  0  0
  154.9399  140.1667  183.5826 C   0  0  0  0  0  0  0  0  0  0  0  0
  154.0639  141.1258  183.1566 C   0  0  0  0  0  0  0  0  0  0  0  0
  154.5140  142.1932  182.3528 C   0  0  0  0  0  0  0  0  0  0  0  0
  155.8181  142.2240  182.0347 N   0  0  0  0  0  0  0  0  0  0  0  0
  156.7101  141.2937  182.4450 C   0  0  0  0  0  0  0  0  0  0  0  0
  156.2863  140.2343  183.2357 C   0  0  0  0  0  0  0  0  0  0  0  0
  158.1178  141.3764  182.0425 C   0  0  0  0  0  0  0  0  0  0  0  0
  158.7412  139.9892  181.8943 C   0  0  0  0  0  0  0  0  0  0  0  0
  158.1317  142.0016  180.6406 C   0  0  0  0  0  0  0  0  0  0  0  0
  158.9274  142.1841  182.9319 C   0  0  0  0  0  0  0  0  0  0  0  0
  159.5695  142.8148  183.6554 N   0  0  0  0  0  0  0  0  0  0  0  0
  1  2  1  0  0  0
  2  3  2  0  0  0
  3  4  1  0  0  0
  4  5  2  0  0  0
  5 27  1  0  0  0
 27 28  1  0  0  0
 28 29  2  0  0  0
 28 31  1  0  0  0
 31 32  2  0  0  0
 32 33  1  0  0  0
 33 34  2  0  0  0
 34 35  1  0  0  0
 35 36  2  0  0  0
 35 37  1  0  0  0
 37 38  1  0  0  0
 37 39  1  0  0  0
 37 40  1  0  0  0
 40 41  3  0  0  0
  5  6  1  0  0  0
  6  7  2  0  0  0
  7  8  1  0  0  0
  8  9  2  0  0  0
  9 10  1  0  0  0
 10 11  2  0  0  0
 11 20  1  0  0  0
 20 21  1  0  0  0
 21 22  1  0  0  0
 22 23  1  0  0  0
 23 24  1  0  0  0
 24 25  1  0  0  0
 25 26  1  0  0  0
 11 12  1  0  0  0
 12 13  2  0  0  0
 12 14  1  0  0  0
 14 15  1  0  0  0
 15 16  1  0  0  0
 16 17  1  0  0  0
 17 18  1  0  0  0
 18 19  1  0  0  0
  7  2  1  0  0  0
 13  8  1  0  0  0
 19 14  1  0  0  0
 36 31  1  0  0  0
 26 21  1  0  0  0
 27 30  1  0  0  0
M  END
> <minimizedAffinity>
-7.45609

> <CNNscore>
0.1728961617

> <CNNaffinity>
6.3354005814

> <CNN_VS>
1.0953664780

> <CNNaffinity_variance>
0.1072341949

$$$$
[H]c1nc(C(C#N)(C([H])([H])[H])C([H])([H])[H])c([H])c(C(=O)N([H])c2c([H])nc(C([H])([H])[H])c(-c3c([H])nc(OC4([H])C([H])([H])C([H])([H])OC([H])([H])C4([H])[H])c(N4C([H])([H])C([H])([H])OC([H])([H])C4([H])[H])c3[H])c2[H])c1[H]


 41 45  0  0  0  0  0  0  0  0999 V2000
  152.0270  135.1277  185.2312 C   0  0  0  0  0  0  0  0  0  0  0  0
  152.6829  136.4502  185.0859 C   0  0  0  0  0  0  0  0  0  0  0  0
  153.2316  136.6979  183.8555 N   0  0  0  0  0  0  0  0  0  0  0  0
  153.8941  137.7901  183.5752 C   0  0  0  0  0  0  0  0  0  0  0  0
  154.1109  138.8417  184.5359 C   0  0  0  0  0  0  0  0  0  0  0  0
  153.5500  138.5788  185.7683 C   0  0  0  0  0  0  0  0  0  0  0  0
  152.8503  137.4190  186.0605 C   0  0  0  0  0  0  0  0  0  0  0  0
  152.3138  137.0805  187.3720 C   0  0  0  0  0  0  0  0  0  0  0  0
  153.1392  137.2628  188.4709 C   0  0  0  0  0  0  0  0  0  0  0  0
  152.7644  136.8063  189.6479 N   0  0  0  0  0  0  0  0  0  0  0  0
  151.5988  136.1502  189.8895 C   0  0  0  0  0  0  0  0  0  0  0  0
  150.7247  135.9394  188.8139 C   0  0  0  0  0  0  0  0  0  0  0  0
  151.1195  136.4228  187.5869 C   0  0  0  0  0  0  0  0  0  0  0  0
  149.5535  135.1898  188.9625 N   0  0  0  0  0  0  0  0  0  0  0  0
  149.3919  133.7587  188.9101 C   0  0  0  0  0  0  0  0  0  0  0  0
  148.4654  133.4833  187.7393 C   0  0  0  0  0  0  0  0  0  0  0  0
  147.2472  134.1262  187.9932 O   0  0  0  0  0  0  0  0  0  0  0  0
  147.4334  135.5161  187.9656 C   0  0  0  0  0  0  0  0  0  0  0  0
  148.2543  135.8703  189.2145 C   0  0  0  0  0  0  0  0  0  0  0  0
  151.3023  135.7120  191.1358 O   0  0  0  0  0  0  0  0  0  0  0  0
  150.5464  136.3242  192.1252 C   0  0  0  0  0  0  0  0  0  0  0  0
  149.7946  135.4219  193.0326 C   0  0  0  0  0  0  0  0  0  0  0  0
  150.6645  134.6830  194.0325 C   0  0  0  0  0  0  0  0  0  0  0  0
  151.5184  135.5474  194.6877 O   0  0  0  0  0  0  0  0  0  0  0  0
  152.3734  136.1460  193.7410 C   0  0  0  0  0  0  0  0  0  0  0  0
  151.5305  137.1452  192.9992 C   0  0  0  0  0  0  0  0  0  0  0  0
  154.9360  139.8612  184.1221 N   0  0  0  0  0  0  0  0  0  0  0  0
  155.0043  140.6931  183.0077 C   0  0  0  0  0  0  0  0  0  0  0  0
  154.2170  140.6437  182.0550 O   0  0  0  0  0  0  0  0  0  0  0  0
  155.7629  140.1316  184.8431 H   0  0  0  0  0  0  0  0  0  0  0  0
  156.1146  141.6986  182.9941 C   0  0  0  0  0  0  0  0  0  0  0  0
  156.0706  142.7605  182.1344 C   0  0  0  0  0  0  0  0  0  0  0  0
  157.1606  143.6508  182.0479 C   0  0  0  0  0  0  0  0  0  0  0  0
  158.2209  143.4128  182.8364 N   0  0  0  0  0  0  0  0  0  0  0  0
  158.2922  142.3748  183.7006 C   0  0  0  0  0  0  0  0  0  0  0  0
  157.2301  141.4862  183.7993 C   0  0  0  0  0  0  0  0  0  0  0  0
  159.4909  142.1609  184.5179 C   0  0  0  0  0  0  0  0  0  0  0  0
  159.1328  141.6854  185.9251 C   0  0  0  0  0  0  0  0  0  0  0  0
  160.2624  141.0073  183.8618 C   0  0  0  0  0  0  0  0  0  0  0  0
  160.3512  143.3237  184.5985 C   0  0  0  0  0  0  0  0  0  0  0  0
  161.0365  144.2494  184.6827 N   0  0  0  0  0  0  0  0  0  0  0  0
  1  2  1  0  0  0
  2  3  2  0  0  0
  3  4  1  0  0  0
  4  5  2  0  0  0
  5 27  1  0  0  0
 27 28  1  0  0  0
 28 29  2  0  0  0
 28 31  1  0  0  0
 31 32  2  0  0  0
 32 33  1  0  0  0
 33 34  2  0  0  0
 34 35  1  0  0  0
 35 36  2  0  0  0
 35 37  1  0  0  0
 37 38  1  0  0  0
 37 39  1  0  0  0
 37 40  1  0  0  0
 40 41  3  0  0  0
  5  6  1  0  0  0
  6  7  2  0  0  0
  7  8  1  0  0  0
  8  9  2  0  0  0
  9 10  1  0  0  0
 10 11  2  0  0  0
 11 20  1  0  0  0
 20 21  1  0  0  0
 21 22  1  0  0  0
 22 23  1  0  0  0
 23 24  1  0  0  0
 24 25  1  0  0  0
 25 26  1  0  0  0
 11 12  1  0  0  0
 12 13  2  0  0  0
 12 14  1  0  0  0
 14 15  1  0  0  0
 15 16  1  0  0  0
 16 17  1  0  0  0
 17 18  1  0  0  0
 18 19  1  0  0  0
  7  2  1  0  0  0
 13  8  1  0  0  0
 19 14  1  0  0  0
 36 31  1  0  0  0
 26 21  1  0  0  0
 27 30  1  0  0  0
M  END
> <minimizedAffinity>
-8.08440

> <CNNscore>
0.1725939959

> <CNNaffinity>
6.3551874161

> <CNN_VS>
1.0968672037

> <CNNaffinity_variance>
0.0625942498

$$$$
[H]c1nc(C(C#N)(C([H])([H])[H])C([H])([H])[H])c([H])c(C(=O)N([H])c2c([H])nc(C([H])([H])[H])c(-c3c([H])nc(OC4([H])C([H])([H])C([H])([H])OC([H])([H])C4([H])[H])c(N4C([H])([H])C([H])([H])OC([H])([H])C4([H])[H])c3[H])c2[H])c1[H]


 41 45  0  0  0  0  0  0  0  0999 V2000
  153.2744  136.5510  189.6883 C   0  0  0  0  0  0  0  0  0  0  0  0
  153.9876  137.0785  188.4994 C   0  0  0  0  0  0  0  0  0  0  0  0
  155.2332  137.5922  188.7459 N   0  0  0  0  0  0  0  0  0  0  0  0
  155.9733  138.1469  187.8212 C   0  0  0  0  0  0  0  0  0  0  0  0
  155.5492  138.2709  186.4500 C   0  0  0  0  0  0  0  0  0  0  0  0
  154.2949  137.7464  186.2174 C   0  0  0  0  0  0  0  0  0  0  0  0
  153.5140  137.1612  187.2012 C   0  0  0  0  0  0  0  0  0  0  0  0
  152.1576  136.6687  187.0018 C   0  0  0  0  0  0  0  0  0  0  0  0
  151.8557  135.4039  187.4825 C   0  0  0  0  0  0  0  0  0  0  0  0
  150.7031  134.8483  187.1708 N   0  0  0  0  0  0  0  0  0  0  0  0
  149.7494  135.4258  186.3935 C   0  0  0  0  0  0  0  0  0  0  0  0
  150.0012  136.7064  185.8815 C   0  0  0  0  0  0  0  0  0  0  0  0
  151.2056  137.2841  186.2143 C   0  0  0  0  0  0  0  0  0  0  0  0
  149.1124  137.3256  184.9971 N   0  0  0  0  0  0  0  0  0  0  0  0
  147.8318  137.9216  185.2832 C   0  0  0  0  0  0  0  0  0  0  0  0
  146.8115  137.1265  184.4883 C   0  0  0  0  0  0  0  0  0  0  0  0
  147.1373  137.2423  183.1310 O   0  0  0  0  0  0  0  0  0  0  0  0
  148.3534  136.5896  182.8811 C   0  0  0  0  0  0  0  0  0  0  0  0
  149.4469  137.4347  183.5511 C   0  0  0  0  0  0  0  0  0  0  0  0
  148.5948  134.7724  186.1228 O   0  0  0  0  0  0  0  0  0  0  0  0
  148.3294  133.8283  185.1412 C   0  0  0  0  0  0  0  0  0  0  0  0
  149.1994  132.6259  185.1317 C   0  0  0  0  0  0  0  0  0  0  0  0
  148.9255  131.6535  186.2639 C   0  0  0  0  0  0  0  0  0  0  0  0
  147.5788  131.3665  186.3621 O   0  0  0  0  0  0  0  0  0  0  0  0
  146.8799  132.5567  186.6455 C   0  0  0  0  0  0  0  0  0  0  0  0
  146.8727  133.3443  185.3653 C   0  0  0  0  0  0  0  0  0  0  0  0
  156.3877  138.9933  185.6335 N   0  0  0  0  0  0  0  0  0  0  0  0
  156.2432  139.7167  184.4527 C   0  0  0  0  0  0  0  0  0  0  0  0
  155.1742  139.8465  183.8442 O   0  0  0  0  0  0  0  0  0  0  0  0
  157.4613  139.0527  185.9807 H   0  0  0  0  0  0  0  0  0  0  0  0
  157.4814  140.3643  183.9126 C   0  0  0  0  0  0  0  0  0  0  0  0
  158.7122  139.8474  184.2064 C   0  0  0  0  0  0  0  0  0  0  0  0
  159.8818  140.5125  183.7846 C   0  0  0  0  0  0  0  0  0  0  0  0
  159.7321  141.6529  183.0918 N   0  0  0  0  0  0  0  0  0  0  0  0
  158.5288  142.1864  182.7808 C   0  0  0  0  0  0  0  0  0  0  0  0
  157.3656  141.5475  183.1885 C   0  0  0  0  0  0  0  0  0  0  0  0
  158.4375  143.4481  182.0390 C   0  0  0  0  0  0  0  0  0  0  0  0
  158.8698  143.2756  180.5836 C   0  0  0  0  0  0  0  0  0  0  0  0
  156.9489  143.8211  181.9998 C   0  0  0  0  0  0  0  0  0  0  0  0
  159.1838  144.5314  182.6458 C   0  0  0  0  0  0  0  0  0  0  0  0
  159.7951  145.3837  183.1291 N   0  0  0  0  0  0  0  0  0  0  0  0
  1  2  1  0  0  0
  2  3  2  0  0  0
  3  4  1  0  0  0
  4  5  2  0  0  0
  5 27  1  0  0  0
 27 28  1  0  0  0
 28 29  2  0  0  0
 28 31  1  0  0  0
 31 32  2  0  0  0
 32 33  1  0  0  0
 33 34  2  0  0  0
 34 35  1  0  0  0
 35 36  2  0  0  0
 35 37  1  0  0  0
 37 38  1  0  0  0
 37 39  1  0  0  0
 37 40  1  0  0  0
 40 41  3  0  0  0
  5  6  1  0  0  0
  6  7  2  0  0  0
  7  8  1  0  0  0
  8  9  2  0  0  0
  9 10  1  0  0  0
 10 11  2  0  0  0
 11 20  1  0  0  0
 20 21  1  0  0  0
 21 22  1  0  0  0
 22 23  1  0  0  0
 23 24  1  0  0  0
 24 25  1  0  0  0
 25 26  1  0  0  0
 11 12  1  0  0  0
 12 13  2  0  0  0
 12 14  1  0  0  0
 14 15  1  0  0  0
 15 16  1  0  0  0
 16 17  1  0  0  0
 17 18  1  0  0  0
 18 19  1  0  0  0
  7  2  1  0  0  0
 13  8  1  0  0  0
 19 14  1  0  0  0
 36 31  1  0  0  0
 26 21  1  0  0  0
 27 30  1  0  0  0
M  END
> <minimizedAffinity>
-6.67300

> <CNNscore>
0.1581379622

> <CNNaffinity>
6.4133081436

> <CNN_VS>
1.0141874552

> <CNNaffinity_variance>
0.0424050912

$$$$
[H]OC1(C(F)(F)F)c2c([H])c([H])c([H])c([H])c2-c2c(C(=O)N([H])[H])c([H])c(-c3c([H])nn(C([H])([H])[H])c3[H])c([H])c21


 30 33  0  0  0  0  0  0  0  0999 V2000
  151.9919  139.3161  181.9482 C   0  0  0  0  0  0  0  0  0  0  0  0
  152.7969  140.3859  181.7725 C   0  0  0  0  0  0  0  0  0  0  0  0
  154.0067  140.5309  182.4687 C   0  0  0  0  0  0  0  0  0  0  0  0
  154.3506  139.5344  183.3479 C   0  0  0  0  0  0  0  0  0  0  0  0
  155.6056  139.9077  184.0186 C   0  0  0  0  0  0  0  0  0  0  0  0
  156.3411  139.3059  185.0056 C   0  0  0  0  0  0  0  0  0  0  0  0
  157.4876  139.9699  185.4629 C   0  0  0  0  0  0  0  0  0  0  0  0
  157.8967  141.1797  184.9721 C   0  0  0  0  0  0  0  0  0  0  0  0
  157.1363  141.7503  183.9896 C   0  0  0  0  0  0  0  0  0  0  0  0
  155.9900  141.1452  183.4921 C   0  0  0  0  0  0  0  0  0  0  0  0
  155.0314  141.5762  182.4505 C   0  0  0  0  0  0  0  0  0  0  0  0
  155.7203  141.6174  181.2457 O   0  0  0  0  0  0  0  0  0  0  0  0
  153.5298  138.4279  183.5288 C   0  0  0  0  0  0  0  0  0  0  0  0
  152.3321  138.3194  182.8207 C   0  0  0  0  0  0  0  0  0  0  0  0
  156.6322  141.9724  181.4181 H   0  0  0  0  0  0  0  0  0  0  0  0
  147.0944  139.0201  180.9829 C   0  0  0  0  0  0  0  0  0  0  0  0
  148.5399  139.0790  180.7593 N   0  0  0  0  0  0  0  0  0  0  0  0
  149.4554  139.1795  181.7408 C   0  0  0  0  0  0  0  0  0  0  0  0
  150.7270  139.2113  181.1936 C   0  0  0  0  0  0  0  0  0  0  0  0
  150.5350  139.1254  179.8371 C   0  0  0  0  0  0  0  0  0  0  0  0
  149.1900  139.0468  179.6175 N   0  0  0  0  0  0  0  0  0  0  0  0
  153.8566  137.2285  184.2722 C   0  0  0  0  0  0  0  0  0  0  0  0
  153.6271  137.1910  185.6972 N   0  0  0  0  0  0  0  0  0  0  0  0
  154.3256  136.2355  183.7259 O   0  0  0  0  0  0  0  0  0  0  0  0
  153.5686  138.0890  186.2176 H   0  0  0  0  0  0  0  0  0  0  0  0
  153.5204  136.3093  186.2102 H   0  0  0  0  0  0  0  0  0  0  0  0
  154.4800  142.9293  182.8359 C   0  0  0  0  0  0  0  0  0  0  0  0
  153.2330  143.0982  182.2817 F   0  0  0  0  0  0  0  0  0  0  0  0
  154.3724  143.0936  184.1856 F   0  0  0  0  0  0  0  0  0  0  0  0
  155.2891  143.9221  182.2906 F   0  0  0  0  0  0  0  0  0  0  0  0
 16 17  1  0  0  0
 17 18  1  0  0  0
 18 19  2  0  0  0
 19 20  1  0  0  0
 20 21  2  0  0  0
 19  1  1  0  0  0
  1  2  2  0  0  0
  2  3  1  0  0  0
  3  4  2  0  0  0
  4  5  1  0  0  0
  5  6  2  0  0  0
  6  7  1  0  0  0
  7  8  2  0  0  0
  8  9  1  0  0  0
  9 10  2  0  0  0
 10 11  1  0  0  0
 11 12  1  0  0  0
 11 27  1  0  0  0
 27 28  1  0  0  0
 27 29  1  0  0  0
 27 30  1  0  0  0
  4 13  1  0  0  0
 13 14  2  0  0  0
 13 22  1  0  0  0
 22 23  1  0  0  0
 22 24  2  0  0  0
 21 17  1  0  0  0
 14  1  1  0  0  0
 11  3  1  0  0  0
 10  5  1  0  0  0
 12 15  1  0  0  0
 23 25  1  0  0  0
 23 26  1  0  0  0
M  END
> <minimizedAffinity>
-9.11089

> <CNNscore>
0.5198774338

> <CNNaffinity>
5.6097397804

> <CNN_VS>
2.9163770676

> <CNNaffinity_variance>
0.0832394212

$$$$
[H]OC1(C(F)(F)F)c2c([H])c([H])c([H])c([H])c2-c2c(C(=O)N([H])[H])c([H])c(-c3c([H])nn(C([H])([H])[H])c3[H])c([H])c21


 30 33  0  0  0  0  0  0  0  0999 V2000
  155.7699  134.5425  188.3413 C   0  0  0  0  0  0  0  0  0  0  0  0
  155.2930  134.6895  189.5960 C   0  0  0  0  0  0  0  0  0  0  0  0
  153.9281  134.8855  189.8566 C   0  0  0  0  0  0  0  0  0  0  0  0
  153.0801  134.9235  188.7778 C   0  0  0  0  0  0  0  0  0  0  0  0
  151.7177  135.2041  189.2566 C   0  0  0  0  0  0  0  0  0  0  0  0
  150.5292  135.3973  188.6028 C   0  0  0  0  0  0  0  0  0  0  0  0
  149.4007  135.7031  189.3757 C   0  0  0  0  0  0  0  0  0  0  0  0
  149.4365  135.8170  190.7386 C   0  0  0  0  0  0  0  0  0  0  0  0
  150.6404  135.6194  191.3556 C   0  0  0  0  0  0  0  0  0  0  0  0
  151.7956  135.3134  190.6488 C   0  0  0  0  0  0  0  0  0  0  0  0
  153.1819  135.0654  191.1031 C   0  0  0  0  0  0  0  0  0  0  0  0
  153.1637  133.9129  191.8771 O   0  0  0  0  0  0  0  0  0  0  0  0
  153.5635  134.7666  187.4845 C   0  0  0  0  0  0  0  0  0  0  0  0
  154.9284  134.5765  187.2638 C   0  0  0  0  0  0  0  0  0  0  0  0
  152.3350  133.9165  192.4253 H   0  0  0  0  0  0  0  0  0  0  0  0
  160.1136  132.2642  187.3687 C   0  0  0  0  0  0  0  0  0  0  0  0
  159.1577  133.3267  187.6848 N   0  0  0  0  0  0  0  0  0  0  0  0
  157.8319  133.1381  187.8204 C   0  0  0  0  0  0  0  0  0  0  0  0
  157.2158  134.3417  188.1191 C   0  0  0  0  0  0  0  0  0  0  0  0
  158.2319  135.2640  188.1570 C   0  0  0  0  0  0  0  0  0  0  0  0
  159.3955  134.6034  187.8871 N   0  0  0  0  0  0  0  0  0  0  0  0
  152.7690  134.5983  186.2851 C   0  0  0  0  0  0  0  0  0  0  0  0
  152.4899  135.7435  185.4512 N   0  0  0  0  0  0  0  0  0  0  0  0
  152.3222  133.5057  185.9522 O   0  0  0  0  0  0  0  0  0  0  0  0
  152.5490  136.6930  185.8702 H   0  0  0  0  0  0  0  0  0  0  0  0
  152.2359  135.6497  184.4619 H   0  0  0  0  0  0  0  0  0  0  0  0
  153.6526  136.2684  191.8871 C   0  0  0  0  0  0  0  0  0  0  0  0
  152.9083  136.3948  193.0363 F   0  0  0  0  0  0  0  0  0  0  0  0
  154.9684  136.1916  192.2378 F   0  0  0  0  0  0  0  0  0  0  0  0
  153.4177  137.4188  191.1393 F   0  0  0  0  0  0  0  0  0  0  0  0
 16 17  1  0  0  0
 17 18  1  0  0  0
 18 19  2  0  0  0
 19 20  1  0  0  0
 20 21  2  0  0  0
 19  1  1  0  0  0
  1  2  2  0  0  0
  2  3  1  0  0  0
  3  4  2  0  0  0
  4  5  1  0  0  0
  5  6  2  0  0  0
  6  7  1  0  0  0
  7  8  2  0  0  0
  8  9  1  0  0  0
  9 10  2  0  0  0
 10 11  1  0  0  0
 11 12  1  0  0  0
 11 27  1  0  0  0
 27 28  1  0  0  0
 27 29  1  0  0  0
 27 30  1  0  0  0
  4 13  1  0  0  0
 13 14  2  0  0  0
 13 22  1  0  0  0
 22 23  1  0  0  0
 22 24  2  0  0  0
 21 17  1  0  0  0
 14  1  1  0  0  0
 11  3  1  0  0  0
 10  5  1  0  0  0
 12 15  1  0  0  0
 23 25  1  0  0  0
 23 26  1  0  0  0
M  END
> <minimizedAffinity>
-4.34379

> <CNNscore>
0.4836394191

> <CNNaffinity>
5.3299789429

> <CNN_VS>
2.5777878761

> <CNNaffinity_variance>
0.6669522524

$$$$
[H]OC1(C(F)(F)F)c2c([H])c([H])c([H])c([H])c2-c2c(C(=O)N([H])[H])c([H])c(-c3c([H])nn(C([H])([H])[H])c3[H])c([H])c21


 30 33  0  0  0  0  0  0  0  0999 V2000
  151.8210  134.8462  186.3217 C   0  0  0  0  0  0  0  0  0  0  0  0
  153.0098  135.4745  186.1980 C   0  0  0  0  0  0  0  0  0  0  0  0
  153.6375  136.1031  187.2843 C   0  0  0  0  0  0  0  0  0  0  0  0
  152.9936  136.0580  188.4959 C   0  0  0  0  0  0  0  0  0  0  0  0
  153.7760  136.8266  189.4763 C   0  0  0  0  0  0  0  0  0  0  0  0
  153.5579  137.1401  190.7921 C   0  0  0  0  0  0  0  0  0  0  0  0
  154.5015  137.9529  191.4350 C   0  0  0  0  0  0  0  0  0  0  0  0
  155.6163  138.4418  190.8106 C   0  0  0  0  0  0  0  0  0  0  0  0
  155.7990  138.1096  189.4971 C   0  0  0  0  0  0  0  0  0  0  0  0
  154.9030  137.3083  188.8023 C   0  0  0  0  0  0  0  0  0  0  0  0
  154.9011  136.8328  187.4010 C   0  0  0  0  0  0  0  0  0  0  0  0
  156.0042  136.0044  187.2437 O   0  0  0  0  0  0  0  0  0  0  0  0
  151.7731  135.4077  188.6314 C   0  0  0  0  0  0  0  0  0  0  0  0
  151.1775  134.7960  187.5274 C   0  0  0  0  0  0  0  0  0  0  0  0
  156.7633  136.3931  187.7536 H   0  0  0  0  0  0  0  0  0  0  0  0
  150.2070  134.1397  181.6419 C   0  0  0  0  0  0  0  0  0  0  0  0
  150.4779  133.8835  183.0574 N   0  0  0  0  0  0  0  0  0  0  0  0
  151.1037  134.7475  183.8780 C   0  0  0  0  0  0  0  0  0  0  0  0
  151.1999  134.2020  185.1472 C   0  0  0  0  0  0  0  0  0  0  0  0
  150.6032  132.9693  185.0528 C   0  0  0  0  0  0  0  0  0  0  0  0
  150.1785  132.8168  183.7645 N   0  0  0  0  0  0  0  0  0  0  0  0
  151.0844  135.1239  189.8737 C   0  0  0  0  0  0  0  0  0  0  0  0
  149.8556  135.8176  190.1795 N   0  0  0  0  0  0  0  0  0  0  0  0
  151.5147  134.3067  190.6807 O   0  0  0  0  0  0  0  0  0  0  0  0
  149.6635  136.7245  189.7093 H   0  0  0  0  0  0  0  0  0  0  0  0
  149.1689  135.4448  190.8438 H   0  0  0  0  0  0  0  0  0  0  0  0
  154.9583  138.0343  186.4863 C   0  0  0  0  0  0  0  0  0  0  0  0
  153.9345  138.9001  186.7915 F   0  0  0  0  0  0  0  0  0  0  0  0
  156.1356  138.7167  186.5797 F   0  0  0  0  0  0  0  0  0  0  0  0
  154.7427  137.6186  185.1755 F   0  0  0  0  0  0  0  0  0  0  0  0
 16 17  1  0  0  0
 17 18  1  0  0  0
 18 19  2  0  0  0
 19 20  1  0  0  0
 20 21  2  0  0  0
 19  1  1  0  0  0
  1  2  2  0  0  0
  2  3  1  0  0  0
  3  4  2  0  0  0
  4  5  1  0  0  0
  5  6  2  0  0  0
  6  7  1  0  0  0
  7  8  2  0  0  0
  8  9  1  0  0  0
  9 10  2  0  0  0
 10 11  1  0  0  0
 11 12  1  0  0  0
 11 27  1  0  0  0
 27 28  1  0  0  0
 27 29  1  0  0  0
 27 30  1  0  0  0
  4 13  1  0  0  0
 13 14  2  0  0  0
 13 22  1  0  0  0
 22 23  1  0  0  0
 22 24  2  0  0  0
 21 17  1  0  0  0
 14  1  1  0  0  0
 11  3  1  0  0  0
 10  5  1  0  0  0
 12 15  1  0  0  0
 23 25  1  0  0  0
 23 26  1  0  0  0
M  END
> <minimizedAffinity>
-4.90396

> <CNNscore>
0.4663817286

> <CNNaffinity>
5.0752229691

> <CNN_VS>
2.3669912815

> <CNNaffinity_variance>
0.2294977605

$$$$
[H]OC1(C(F)(F)F)c2c([H])c([H])c([H])c([H])c2-c2c(C(=O)N([H])[H])c([H])c(-c3c([H])nn(C([H])([H])[H])c3[H])c([H])c21


 30 33  0  0  0  0  0  0  0  0999 V2000
  154.0361  138.2991  186.4155 C   0  0  0  0  0  0  0  0  0  0  0  0
  154.6800  138.1319  187.5905 C   0  0  0  0  0  0  0  0  0  0  0  0
  154.0946  137.4557  188.6719 C   0  0  0  0  0  0  0  0  0  0  0  0
  152.8262  136.9621  188.4937 C   0  0  0  0  0  0  0  0  0  0  0  0
  152.3730  136.3557  189.7551 C   0  0  0  0  0  0  0  0  0  0  0  0
  151.1880  135.7797  190.1310 C   0  0  0  0  0  0  0  0  0  0  0  0
  151.0677  135.3378  191.4555 C   0  0  0  0  0  0  0  0  0  0  0  0
  152.0711  135.4579  192.3778 C   0  0  0  0  0  0  0  0  0  0  0  0
  153.2379  136.0397  191.9667 C   0  0  0  0  0  0  0  0  0  0  0  0
  153.4221  136.4981  190.6691 C   0  0  0  0  0  0  0  0  0  0  0  0
  154.5802  137.1502  190.0186 C   0  0  0  0  0  0  0  0  0  0  0  0
  155.6205  136.2307  190.0074 O   0  0  0  0  0  0  0  0  0  0  0  0
  152.1604  137.1251  187.2849 C   0  0  0  0  0  0  0  0  0  0  0  0
  152.7736  137.8062  186.2324 C   0  0  0  0  0  0  0  0  0  0  0  0
  155.6064  135.7311  190.8661 H   0  0  0  0  0  0  0  0  0  0  0  0
  154.6334  141.0834  182.3051 C   0  0  0  0  0  0  0  0  0  0  0  0
  154.9642  140.2646  183.4724 N   0  0  0  0  0  0  0  0  0  0  0  0
  154.0536  139.7398  184.3132 C   0  0  0  0  0  0  0  0  0  0  0  0
  154.6943  139.0210  185.3083 C   0  0  0  0  0  0  0  0  0  0  0  0
  156.0331  139.1374  185.0281 C   0  0  0  0  0  0  0  0  0  0  0  0
  156.1518  139.9019  183.9035 N   0  0  0  0  0  0  0  0  0  0  0  0
  150.9115  136.5000  186.9011 C   0  0  0  0  0  0  0  0  0  0  0  0
  149.7470  137.3218  186.6699 N   0  0  0  0  0  0  0  0  0  0  0  0
  150.8102  135.2852  186.7650 O   0  0  0  0  0  0  0  0  0  0  0  0
  149.7094  138.2673  187.1001 H   0  0  0  0  0  0  0  0  0  0  0  0
  148.9587  137.0029  186.0966 H   0  0  0  0  0  0  0  0  0  0  0  0
  154.9313  138.3952  190.7999 C   0  0  0  0  0  0  0  0  0  0  0  0
  154.2110  138.4279  191.9707 F   0  0  0  0  0  0  0  0  0  0  0  0
  156.2568  138.4691  191.1128 F   0  0  0  0  0  0  0  0  0  0  0  0
  154.5435  139.5148  190.0695 F   0  0  0  0  0  0  0  0  0  0  0  0
 16 17  1  0  0  0
 17 18  1  0  0  0
 18 19  2  0  0  0
 19 20  1  0  0  0
 20 21  2  0  0  0
 19  1  1  0  0  0
  1  2  2  0  0  0
  2  3  1  0  0  0
  3  4  2  0  0  0
  4  5  1  0  0  0
  5  6  2  0  0  0
  6  7  1  0  0  0
  7  8  2  0  0  0
  8  9  1  0  0  0
  9 10  2  0  0  0
 10 11  1  0  0  0
 11 12  1  0  0  0
 11 27  1  0  0  0
 27 28  1  0  0  0
 27 29  1  0  0  0
 27 30  1  0  0  0
  4 13  1  0  0  0
 13 14  2  0  0  0
 13 22  1  0  0  0
 22 23  1  0  0  0
 22 24  2  0  0  0
 21 17  1  0  0  0
 14  1  1  0  0  0
 11  3  1  0  0  0
 10  5  1  0  0  0
 12 15  1  0  0  0
 23 25  1  0  0  0
 23 26  1  0  0  0
M  END
> <minimizedAffinity>
-7.25041

> <CNNscore>
0.4460680187

> <CNNaffinity>
5.2425704002

> <CNN_VS>
2.3385429382

> <CNNaffinity_variance>
0.0276438929

$$$$
[H]OC1(C(F)(F)F)c2c([H])c([H])c([H])c([H])c2-c2c(C(=O)N([H])[H])c([H])c(-c3c([H])nn(C([H])([H])[H])c3[H])c([H])c21


 30 33  0  0  0  0  0  0  0  0999 V2000
  155.0626  138.4297  186.1898 C   0  0  0  0  0  0  0  0  0  0  0  0
  155.7062  138.0808  187.3245 C   0  0  0  0  0  0  0  0  0  0  0  0
  155.0575  137.4122  188.3740 C   0  0  0  0  0  0  0  0  0  0  0  0
  153.7267  137.1199  188.2072 C   0  0  0  0  0  0  0  0  0  0  0  0
  153.2236  136.4873  189.4364 C   0  0  0  0  0  0  0  0  0  0  0  0
  151.9780  136.0583  189.8127 C   0  0  0  0  0  0  0  0  0  0  0  0
  151.8297  135.5356  191.1046 C   0  0  0  0  0  0  0  0  0  0  0  0
  152.8637  135.4387  191.9952 C   0  0  0  0  0  0  0  0  0  0  0  0
  154.0914  135.8787  191.5849 C   0  0  0  0  0  0  0  0  0  0  0  0
  154.3059  136.4065  190.3188 C   0  0  0  0  0  0  0  0  0  0  0  0
  155.5289  136.9359  189.6755 C   0  0  0  0  0  0  0  0  0  0  0  0
  156.4242  135.8813  189.5577 O   0  0  0  0  0  0  0  0  0  0  0  0
  153.0601  137.4705  187.0395 C   0  0  0  0  0  0  0  0  0  0  0  0
  153.7377  138.1376  186.0180 C   0  0  0  0  0  0  0  0  0  0  0  0
  156.3604  135.3230  190.3771 H   0  0  0  0  0  0  0  0  0  0  0  0
  158.7722  140.6797  183.7036 C   0  0  0  0  0  0  0  0  0  0  0  0
  157.4445  140.1405  184.0021 N   0  0  0  0  0  0  0  0  0  0  0  0
  157.1181  139.5228  185.1525 C   0  0  0  0  0  0  0  0  0  0  0  0
  155.7892  139.1351  185.1152 C   0  0  0  0  0  0  0  0  0  0  0  0
  155.3305  139.5477  183.8889 C   0  0  0  0  0  0  0  0  0  0  0  0
  156.3701  140.1543  183.2451 N   0  0  0  0  0  0  0  0  0  0  0  0
  151.7241  137.0617  186.6574 C   0  0  0  0  0  0  0  0  0  0  0  0
  151.5254  135.7736  186.0361 N   0  0  0  0  0  0  0  0  0  0  0  0
  150.7481  137.7802  186.8461 O   0  0  0  0  0  0  0  0  0  0  0  0
  152.3310  135.3172  185.5637 H   0  0  0  0  0  0  0  0  0  0  0  0
  150.6175  135.2966  186.0464 H   0  0  0  0  0  0  0  0  0  0  0  0
  156.0771  138.0530  190.5330 C   0  0  0  0  0  0  0  0  0  0  0  0
  157.2309  138.5468  189.9713 F   0  0  0  0  0  0  0  0  0  0  0  0
  155.1998  139.0865  190.6826 F   0  0  0  0  0  0  0  0  0  0  0  0
  156.4351  137.5385  191.7758 F   0  0  0  0  0  0  0  0  0  0  0  0
 16 17  1  0  0  0
 17 18  1  0  0  0
 18 19  2  0  0  0
 19 20  1  0  0  0
 20 21  2  0  0  0
 19  1  1  0  0  0
  1  2  2  0  0  0
  2  3  1  0  0  0
  3  4  2  0  0  0
  4  5  1  0  0  0
  5  6  2  0  0  0
  6  7  1  0  0  0
  7  8  2  0  0  0
  8  9  1  0  0  0
  9 10  2  0  0  0
 10 11  1  0  0  0
 11 12  1  0  0  0
 11 27  1  0  0  0
 27 28  1  0  0  0
 27 29  1  0  0  0
 27 30  1  0  0  0
  4 13  1  0  0  0
 13 14  2  0  0  0
 13 22  1  0  0  0
 22 23  1  0  0  0
 22 24  2  0  0  0
 21 17  1  0  0  0
 14  1  1  0  0  0
 11  3  1  0  0  0
 10  5  1  0  0  0
 12 15  1  0  0  0
 23 25  1  0  0  0
 23 26  1  0  0  0
M  END
> <minimizedAffinity>
-7.37951

> <CNNscore>
0.3785207272

> <CNNaffinity>
5.2738580704

> <CNN_VS>
1.9962645769

> <CNNaffinity_variance>
0.0797585174

$$$$
[H]OC1(C(F)(F)F)c2c([H])c([H])c([H])c([H])c2-c2c(C(=O)N([H])[H])c([H])c(-c3c([H])nn(C([H])([H])[H])c3[H])c([H])c21


 30 33  0  0  0  0  0  0  0  0999 V2000
  153.0009  135.9623  186.6206 C   0  0  0  0  0  0  0  0  0  0  0  0
  153.8596  136.4205  187.5566 C   0  0  0  0  0  0  0  0  0  0  0  0
  153.4848  136.5759  188.8999 C   0  0  0  0  0  0  0  0  0  0  0  0
  152.1967  136.2420  189.2370 C   0  0  0  0  0  0  0  0  0  0  0  0
  151.9883  136.5402  190.6624 C   0  0  0  0  0  0  0  0  0  0  0  0
  150.8891  136.4484  191.4753 C   0  0  0  0  0  0  0  0  0  0  0  0
  151.0226  136.8718  192.8046 C   0  0  0  0  0  0  0  0  0  0  0  0
  152.1897  137.3685  193.3175 C   0  0  0  0  0  0  0  0  0  0  0  0
  153.2643  137.4470  192.4759 C   0  0  0  0  0  0  0  0  0  0  0  0
  153.1990  137.0440  191.1488 C   0  0  0  0  0  0  0  0  0  0  0  0
  154.2194  137.0423  190.0771 C   0  0  0  0  0  0  0  0  0  0  0  0
  155.2190  136.1575  190.4589 O   0  0  0  0  0  0  0  0  0  0  0  0
  151.3098  135.7640  188.2800 C   0  0  0  0  0  0  0  0  0  0  0  0
  151.7177  135.6254  186.9525 C   0  0  0  0  0  0  0  0  0  0  0  0
  155.3641  136.2518  191.4373 H   0  0  0  0  0  0  0  0  0  0  0  0
  155.0104  133.9749  182.4955 C   0  0  0  0  0  0  0  0  0  0  0  0
  154.3397  134.9340  183.3746 N   0  0  0  0  0  0  0  0  0  0  0  0
  154.0860  134.7184  184.6787 C   0  0  0  0  0  0  0  0  0  0  0  0
  153.4429  135.8193  185.2190 C   0  0  0  0  0  0  0  0  0  0  0  0
  153.3208  136.7079  184.1798 C   0  0  0  0  0  0  0  0  0  0  0  0
  153.8795  136.1288  183.0772 N   0  0  0  0  0  0  0  0  0  0  0  0
  149.9979  135.2029  188.5288 C   0  0  0  0  0  0  0  0  0  0  0  0
  149.8857  133.8555  189.0352 N   0  0  0  0  0  0  0  0  0  0  0  0
  148.9708  135.8406  188.3217 O   0  0  0  0  0  0  0  0  0  0  0  0
  150.6793  133.1998  188.8911 H   0  0  0  0  0  0  0  0  0  0  0  0
  149.0503  133.5262  189.5310 H   0  0  0  0  0  0  0  0  0  0  0  0
  154.7413  138.4505  189.9091 C   0  0  0  0  0  0  0  0  0  0  0  0
  153.8873  139.1702  189.1069 F   0  0  0  0  0  0  0  0  0  0  0  0
  154.8724  139.1127  191.0942 F   0  0  0  0  0  0  0  0  0  0  0  0
  155.9621  138.4063  189.2419 F   0  0  0  0  0  0  0  0  0  0  0  0
 16 17  1  0  0  0
 17 18  1  0  0  0
 18 19  2  0  0  0
 19 20  1  0  0  0
 20 21  2  0  0  0
 19  1  1  0  0  0
  1  2  2  0  0  0
  2  3  1  0  0  0
  3  4  2  0  0  0
  4  5  1  0  0  0
  5  6  2  0  0  0
  6  7  1  0  0  0
  7  8  2  0  0  0
  8  9  1  0  0  0
  9 10  2  0  0  0
 10 11  1  0  0  0
 11 12  1  0  0  0
 11 27  1  0  0  0
 27 28  1  0  0  0
 27 29  1  0  0  0
 27 30  1  0  0  0
  4 13  1  0  0  0
 13 14  2  0  0  0
 13 22  1  0  0  0
 22 23  1  0  0  0
 22 24  2  0  0  0
 21 17  1  0  0  0
 14  1  1  0  0  0
 11  3  1  0  0  0
 10  5  1  0  0  0
 12 15  1  0  0  0
 23 25  1  0  0  0
 23 26  1  0  0  0
M  END
> <minimizedAffinity>
-6.46289

> <CNNscore>
0.3299055696

> <CNNaffinity>
4.8936319351

> <CNN_VS>
1.6144363880

> <CNNaffinity_variance>
0.1223275661

$$$$
[H]OC1(C(F)(F)F)c2c([H])c([H])c([H])c([H])c2-c2c(C(=O)N([H])[H])c([H])c(-c3c([H])nn(C([H])([H])[H])c3[H])c([H])c21


 30 33  0  0  0  0  0  0  0  0999 V2000
  149.6833  136.6552  185.2368 C   0  0  0  0  0  0  0  0  0  0  0  0
  148.8724  137.0292  184.2240 C   0  0  0  0  0  0  0  0  0  0  0  0
  149.3679  137.6195  183.0513 C   0  0  0  0  0  0  0  0  0  0  0  0
  150.7251  137.8074  182.9658 C   0  0  0  0  0  0  0  0  0  0  0  0
  151.0286  138.4954  181.7014 C   0  0  0  0  0  0  0  0  0  0  0  0
  152.1978  138.9610  181.1596 C   0  0  0  0  0  0  0  0  0  0  0  0
  152.1269  139.6310  179.9306 C   0  0  0  0  0  0  0  0  0  0  0  0
  150.9532  139.8384  179.2587 C   0  0  0  0  0  0  0  0  0  0  0  0
  149.8071  139.3615  179.8314 C   0  0  0  0  0  0  0  0  0  0  0  0
  149.8082  138.6890  181.0461 C   0  0  0  0  0  0  0  0  0  0  0  0
  148.7054  138.0997  181.8375 C   0  0  0  0  0  0  0  0  0  0  0  0
  148.1653  137.0638  181.0872 O   0  0  0  0  0  0  0  0  0  0  0  0
  151.5657  137.4191  184.0018 C   0  0  0  0  0  0  0  0  0  0  0  0
  151.0362  136.8376  185.1547 C   0  0  0  0  0  0  0  0  0  0  0  0
  148.1487  137.3429  180.1338 H   0  0  0  0  0  0  0  0  0  0  0  0
  149.2035  135.1930  189.9946 C   0  0  0  0  0  0  0  0  0  0  0  0
  148.8953  135.3862  188.5768 N   0  0  0  0  0  0  0  0  0  0  0  0
  149.6935  136.0354  187.7090 C   0  0  0  0  0  0  0  0  0  0  0  0
  149.1125  136.0405  186.4521 C   0  0  0  0  0  0  0  0  0  0  0  0
  147.9273  135.3645  186.6030 C   0  0  0  0  0  0  0  0  0  0  0  0
  147.8357  134.9844  187.9108 N   0  0  0  0  0  0  0  0  0  0  0  0
  153.0134  137.3851  183.9664 C   0  0  0  0  0  0  0  0  0  0  0  0
  153.6856  136.1830  183.5331 N   0  0  0  0  0  0  0  0  0  0  0  0
  153.6922  138.3523  184.2952 O   0  0  0  0  0  0  0  0  0  0  0  0
  153.1757  135.2787  183.5860 H   0  0  0  0  0  0  0  0  0  0  0  0
  154.6470  136.1934  183.1759 H   0  0  0  0  0  0  0  0  0  0  0  0
  147.6901  139.1813  182.1256 C   0  0  0  0  0  0  0  0  0  0  0  0
  146.8115  138.7490  183.0909 F   0  0  0  0  0  0  0  0  0  0  0  0
  148.2601  140.3427  182.5575 F   0  0  0  0  0  0  0  0  0  0  0  0
  146.9328  139.4108  180.9805 F   0  0  0  0  0  0  0  0  0  0  0  0
 16 17  1  0  0  0
 17 18  1  0  0  0
 18 19  2  0  0  0
 19 20  1  0  0  0
 20 21  2  0  0  0
 19  1  1  0  0  0
  1  2  2  0  0  0
  2  3  1  0  0  0
  3  4  2  0  0  0
  4  5  1  0  0  0
  5  6  2  0  0  0
  6  7  1  0  0  0
  7  8  2  0  0  0
  8  9  1  0  0  0
  9 10  2  0  0  0
 10 11  1  0  0  0
 11 12  1  0  0  0
 11 27  1  0  0  0
 27 28  1  0  0  0
 27 29  1  0  0  0
 27 30  1  0  0  0
  4 13  1  0  0  0
 13 14  2  0  0  0
 13 22  1  0  0  0
 22 23  1  0  0  0
 22 24  2  0  0  0
 21 17  1  0  0  0
 14  1  1  0  0  0
 11  3  1  0  0  0
 10  5  1  0  0  0
 12 15  1  0  0  0
 23 25  1  0  0  0
 23 26  1  0  0  0
M  END
> <minimizedAffinity>
-6.18179

> <CNNscore>
0.3204284906

> <CNNaffinity>
5.0371346474

> <CNN_VS>
1.6140414476

> <CNNaffinity_variance>
0.1311600506

$$$$
[H]OC1(C(F)(F)F)c2c([H])c([H])c([H])c([H])c2-c2c(C(=O)N([H])[H])c([H])c(-c3c([H])nn(C([H])([H])[H])c3[H])c([H])c21


 30 33  0  0  0  0  0  0  0  0999 V2000
  151.2293  136.9095  186.5157 C   0  0  0  0  0  0  0  0  0  0  0  0
  151.8853  137.0844  185.3484 C   0  0  0  0  0  0  0  0  0  0  0  0
  151.2164  137.4116  184.1590 C   0  0  0  0  0  0  0  0  0  0  0  0
  149.8520  137.5501  184.2215 C   0  0  0  0  0  0  0  0  0  0  0  0
  149.3419  137.8227  182.8689 C   0  0  0  0  0  0  0  0  0  0  0  0
  148.0746  137.9854  182.3739 C   0  0  0  0  0  0  0  0  0  0  0  0
  147.9331  138.1862  180.9941 C   0  0  0  0  0  0  0  0  0  0  0  0
  148.9943  138.2243  180.1314 C   0  0  0  0  0  0  0  0  0  0  0  0
  150.2431  138.0560  180.6615 C   0  0  0  0  0  0  0  0  0  0  0  0
  150.4523  137.8536  182.0191 C   0  0  0  0  0  0  0  0  0  0  0  0
  151.6950  137.6495  182.7962 C   0  0  0  0  0  0  0  0  0  0  0  0
  152.4418  138.8158  182.6964 O   0  0  0  0  0  0  0  0  0  0  0  0
  149.1716  137.3777  185.4207 C   0  0  0  0  0  0  0  0  0  0  0  0
  149.8706  137.0497  186.5832 C   0  0  0  0  0  0  0  0  0  0  0  0
  152.3533  139.1663  181.7709 H   0  0  0  0  0  0  0  0  0  0  0  0
  152.5652  134.5270  190.7042 C   0  0  0  0  0  0  0  0  0  0  0  0
  152.5780  135.5006  189.6112 N   0  0  0  0  0  0  0  0  0  0  0  0
  151.6872  135.5197  188.6024 C   0  0  0  0  0  0  0  0  0  0  0  0
  151.9787  136.5630  187.7398 C   0  0  0  0  0  0  0  0  0  0  0  0
  153.0866  137.1713  188.2757 C   0  0  0  0  0  0  0  0  0  0  0  0
  153.4171  136.4927  189.4131 N   0  0  0  0  0  0  0  0  0  0  0  0
  147.7755  137.6752  185.6665 C   0  0  0  0  0  0  0  0  0  0  0  0
  146.8122  136.5999  185.6846 N   0  0  0  0  0  0  0  0  0  0  0  0
  147.3819  138.8204  185.8614 O   0  0  0  0  0  0  0  0  0  0  0  0
  147.0450  135.7122  185.1963 H   0  0  0  0  0  0  0  0  0  0  0  0
  145.9086  136.6841  186.1625 H   0  0  0  0  0  0  0  0  0  0  0  0
  152.4267  136.4563  182.2268 C   0  0  0  0  0  0  0  0  0  0  0  0
  153.4947  136.1380  183.0323 F   0  0  0  0  0  0  0  0  0  0  0  0
  151.6341  135.3521  182.1138 F   0  0  0  0  0  0  0  0  0  0  0  0
  152.9591  136.7985  180.9870 F   0  0  0  0  0  0  0  0  0  0  0  0
 16 17  1  0  0  0
 17 18  1  0  0  0
 18 19  2  0  0  0
 19 20  1  0  0  0
 20 21  2  0  0  0
 19  1  1  0  0  0
  1  2  2  0  0  0
  2  3  1  0  0  0
  3  4  2  0  0  0
  4  5  1  0  0  0
  5  6  2  0  0  0
  6  7  1  0  0  0
  7  8  2  0  0  0
  8  9  1  0  0  0
  9 10  2  0  0  0
 10 11  1  0  0  0
 11 12  1  0  0  0
 11 27  1  0  0  0
 27 28  1  0  0  0
 27 29  1  0  0  0
 27 30  1  0  0  0
  4 13  1  0  0  0
 13 14  2  0  0  0
 13 22  1  0  0  0
 22 23  1  0  0  0
 22 24  2  0  0  0
 21 17  1  0  0  0
 14  1  1  0  0  0
 11  3  1  0  0  0
 10  5  1  0  0  0
 12 15  1  0  0  0
 23 25  1  0  0  0
 23 26  1  0  0  0
M  END
> <minimizedAffinity>
-4.95333

> <CNNscore>
0.2979186475

> <CNNaffinity>
5.0189909935

> <CNN_VS>
1.4952510595

> <CNNaffinity_variance>
0.1625397056

$$$$
[H]OC1(C(F)(F)F)c2c([H])c([H])c([H])c([H])c2-c2c(C(=O)N([H])[H])c([H])c(-c3c([H])nn(C([H])([H])[H])c3[H])c([H])c21


 30 33  0  0  0  0  0  0  0  0999 V2000
  152.2064  138.7836  182.7722 C   0  0  0  0  0  0  0  0  0  0  0  0
  152.8477  139.9020  182.3706 C   0  0  0  0  0  0  0  0  0  0  0  0
  154.1146  140.2522  182.8624 C   0  0  0  0  0  0  0  0  0  0  0  0
  154.6897  139.4078  183.7793 C   0  0  0  0  0  0  0  0  0  0  0  0
  155.9704  139.9850  184.2158 C   0  0  0  0  0  0  0  0  0  0  0  0
  156.8985  139.5835  185.1403 C   0  0  0  0  0  0  0  0  0  0  0  0
  158.0092  140.4113  185.3529 C   0  0  0  0  0  0  0  0  0  0  0  0
  158.2020  141.5899  184.6853 C   0  0  0  0  0  0  0  0  0  0  0  0
  157.2539  141.9586  183.7720 C   0  0  0  0  0  0  0  0  0  0  0  0
  156.1309  141.1841  183.5138 C   0  0  0  0  0  0  0  0  0  0  0  0
  154.9962  141.3876  182.5859 C   0  0  0  0  0  0  0  0  0  0  0  0
  155.5066  141.3560  181.2950 O   0  0  0  0  0  0  0  0  0  0  0  0
  154.0378  138.2521  184.1920 C   0  0  0  0  0  0  0  0  0  0  0  0
  152.7769  137.9379  183.6830 C   0  0  0  0  0  0  0  0  0  0  0  0
  156.3848  141.8208  181.2938 H   0  0  0  0  0  0  0  0  0  0  0  0
  147.8297  139.3093  180.4115 C   0  0  0  0  0  0  0  0  0  0  0  0
  148.9169  138.6923  181.1730 N   0  0  0  0  0  0  0  0  0  0  0  0
  150.0575  139.3215  181.5118 C   0  0  0  0  0  0  0  0  0  0  0  0
  150.8727  138.4605  182.2271 C   0  0  0  0  0  0  0  0  0  0  0  0
  150.1703  137.2834  182.3032 C   0  0  0  0  0  0  0  0  0  0  0  0
  148.9868  137.4691  181.6490 N   0  0  0  0  0  0  0  0  0  0  0  0
  154.6017  137.1894  184.9987 C   0  0  0  0  0  0  0  0  0  0  0  0
  154.7347  135.8656  184.4378 N   0  0  0  0  0  0  0  0  0  0  0  0
  154.9729  137.3792  186.1521 O   0  0  0  0  0  0  0  0  0  0  0  0
  154.1343  135.6021  183.6311 H   0  0  0  0  0  0  0  0  0  0  0  0
  155.4006  135.1796  184.8090 H   0  0  0  0  0  0  0  0  0  0  0  0
  154.3454  142.7130  182.9069 C   0  0  0  0  0  0  0  0  0  0  0  0
  153.0912  142.7632  182.3455 F   0  0  0  0  0  0  0  0  0  0  0  0
  154.2213  142.9325  184.2473 F   0  0  0  0  0  0  0  0  0  0  0  0
  155.0810  143.7360  182.3153 F   0  0  0  0  0  0  0  0  0  0  0  0
 16 17  1  0  0  0
 17 18  1  0  0  0
 18 19  2  0  0  0
 19 20  1  0  0  0
 20 21  2  0  0  0
 19  1  1  0  0  0
  1  2  2  0  0  0
  2  3  1  0  0  0
  3  4  2  0  0  0
  4  5  1  0  0  0
  5  6  2  0  0  0
  6  7  1  0  0  0
  7  8  2  0  0  0
  8  9  1  0  0  0
  9 10  2  0  0  0
 10 11  1  0  0  0
 11 12  1  0  0  0
 11 27  1  0  0  0
 27 28  1  0  0  0
 27 29  1  0  0  0
 27 30  1  0  0  0
  4 13  1  0  0  0
 13 14  2  0  0  0
 13 22  1  0  0  0
 22 23  1  0  0  0
 22 24  2  0  0  0
 21 17  1  0  0  0
 14  1  1  0  0  0
 11  3  1  0  0  0
 10  5  1  0  0  0
 12 15  1  0  0  0
 23 25  1  0  0  0
 23 26  1  0  0  0
M  END
> <minimizedAffinity>
-8.00002

> <CNNscore>
0.2638325095

> <CNNaffinity>
5.4175744057

> <CNN_VS>
1.4293322563

> <CNNaffinity_variance>
0.0823191628

$$$$
[H]OC(=O)C([H])([H])[C@@]([H])(C(=O)N([H])[C@]([H])(C(=O)N([H])[H])C([H])([H])c1c([H])nc([H])n1[H])N([H])C(=O)[C@@]([H])(N([H])C(=O)[C@@]([H])(N([H])C(=O)[C@@]1([H])N(C(=O)[C@@]([H])(N([H])[H])C([H])([H])c2c([H])c([H])c(O[H])c([H])c2[H])C([H])([H])C([H])([H])C1([H])[H])C([H])([H])c1c([H])c([H])c([H])c([H])c1[H])[C@@]([H])(C([H])([H])[H])C([H])([H])C([H])([H])[H]


 68 71  0  0  0  0  0  0  0  0999 V2000
  153.6508  138.0937  185.8943 N   0  0  0  0  0  0  0  0  0  0  0  0
  153.4525  138.0031  184.5108 C   0  0  0  0  0  0  0  0  0  0  0  0
  153.4402  136.8633  183.9896 O   0  0  0  0  0  0  0  0  0  0  0  0
  153.6589  139.0600  186.3018 H   0  0  0  0  0  0  0  0  0  0  0  0
  153.2604  139.1543  183.6141 C   0  0  0  0  0  0  0  0  0  0  0  0
  154.3115  140.1578  183.8141 N   0  0  0  0  0  0  0  0  0  0  0  0
  154.3529  141.4076  183.1636 C   0  0  0  0  0  0  0  0  0  0  0  0
  153.4108  141.6531  182.3470 O   0  0  0  0  0  0  0  0  0  0  0  0
  155.0644  139.9212  184.4814 H   0  0  0  0  0  0  0  0  0  0  0  0
  155.4202  142.4111  183.3905 C   0  0  0  0  0  0  0  0  0  0  0  0
  155.2498  143.6246  182.5357 C   0  0  0  0  0  0  0  0  0  0  0  0
  156.6351  143.9506  182.0438 C   0  0  0  0  0  0  0  0  0  0  0  0
  157.2428  142.5619  181.8661 C   0  0  0  0  0  0  0  0  0  0  0  0
  156.7307  141.8758  183.0252 N   0  0  0  0  0  0  0  0  0  0  0  0
  157.4313  140.8381  183.6961 C   0  0  0  0  0  0  0  0  0  0  0  0
  156.8513  140.3372  184.7203 O   0  0  0  0  0  0  0  0  0  0  0  0
  158.7474  140.3047  183.3114 C   0  0  0  0  0  0  0  0  0  0  0  0
  158.5939  139.4737  182.1341 N   0  0  0  0  0  0  0  0  0  0  0  0
  157.6053  139.1694  181.9916 H   0  0  0  0  0  0  0  0  0  0  0  0
  159.2812  138.7033  182.0953 H   0  0  0  0  0  0  0  0  0  0  0  0
  159.7589  141.3788  182.9508 C   0  0  0  0  0  0  0  0  0  0  0  0
  160.4079  141.8510  184.2239 C   0  0  0  0  0  0  0  0  0  0  0  0
  159.6743  142.1616  185.3340 C   0  0  0  0  0  0  0  0  0  0  0  0
  160.3064  142.5833  186.5087 C   0  0  0  0  0  0  0  0  0  0  0  0
  161.6992  142.6968  186.5760 C   0  0  0  0  0  0  0  0  0  0  0  0
  162.3319  143.1163  187.7450 O   0  0  0  0  0  0  0  0  0  0  0  0
  162.4049  142.3758  185.4378 C   0  0  0  0  0  0  0  0  0  0  0  0
  161.7818  141.9609  184.2816 C   0  0  0  0  0  0  0  0  0  0  0  0
  162.5883  142.3681  188.3969 H   0  0  0  0  0  0  0  0  0  0  0  0
  153.3303  138.7051  182.1404 C   0  0  0  0  0  0  0  0  0  0  0  0
  152.0159  138.9089  181.4902 C   0  0  0  0  0  0  0  0  0  0  0  0
  152.0309  139.3699  180.1729 C   0  0  0  0  0  0  0  0  0  0  0  0
  150.8446  139.5719  179.4768 C   0  0  0  0  0  0  0  0  0  0  0  0
  149.6347  139.3120  180.0978 C   0  0  0  0  0  0  0  0  0  0  0  0
  149.6147  138.8578  181.3953 C   0  0  0  0  0  0  0  0  0  0  0  0
  150.7911  138.6692  182.0543 C   0  0  0  0  0  0  0  0  0  0  0  0
  153.8424  137.0060  186.8362 C   0  0  0  0  0  0  0  0  0  0  0  0
  152.5489  136.7718  187.4990 C   0  0  0  0  0  0  0  0  0  0  0  0
  151.6618  137.6997  187.2990 O   0  0  0  0  0  0  0  0  0  0  0  0
  152.1200  135.7255  188.3005 N   0  0  0  0  0  0  0  0  0  0  0  0
  152.7526  134.9197  188.4874 H   0  0  0  0  0  0  0  0  0  0  0  0
  150.8034  135.6569  188.9025 C   0  0  0  0  0  0  0  0  0  0  0  0
  150.7824  134.9430  190.1812 C   0  0  0  0  0  0  0  0  0  0  0  0
  151.8004  134.3387  190.5770 O   0  0  0  0  0  0  0  0  0  0  0  0
  149.6247  134.9227  190.9901 N   0  0  0  0  0  0  0  0  0  0  0  0
  148.7580  135.4314  190.6866 H   0  0  0  0  0  0  0  0  0  0  0  0
  149.5629  134.2221  192.2527 C   0  0  0  0  0  0  0  0  0  0  0  0
  148.4097  133.3024  192.2414 C   0  0  0  0  0  0  0  0  0  0  0  0
  148.3904  132.1492  193.1070 N   0  0  0  0  0  0  0  0  0  0  0  0
  147.4287  133.5186  191.4713 O   0  0  0  0  0  0  0  0  0  0  0  0
  147.6797  132.0982  193.8624 H   0  0  0  0  0  0  0  0  0  0  0  0
  149.1064  131.4174  192.9180 H   0  0  0  0  0  0  0  0  0  0  0  0
  149.4038  135.1757  193.4185 C   0  0  0  0  0  0  0  0  0  0  0  0
  150.3471  134.9102  194.5182 C   0  0  0  0  0  0  0  0  0  0  0  0
  150.1004  134.3181  195.7312 C   0  0  0  0  0  0  0  0  0  0  0  0
  151.2605  134.2762  196.4373 N   0  0  0  0  0  0  0  0  0  0  0  0
  152.2272  134.8396  195.6702 C   0  0  0  0  0  0  0  0  0  0  0  0
  151.6549  135.2226  194.4992 N   0  0  0  0  0  0  0  0  0  0  0  0
  152.1896  135.6890  193.7226 H   0  0  0  0  0  0  0  0  0  0  0  0
  149.7578  135.0840  187.9474 C   0  0  0  0  0  0  0  0  0  0  0  0
  148.6449  136.0676  187.8927 C   0  0  0  0  0  0  0  0  0  0  0  0
  148.7287  137.0766  186.9417 O   0  0  0  0  0  0  0  0  0  0  0  0
  147.6670  135.9737  188.6875 O   0  0  0  0  0  0  0  0  0  0  0  0
  149.4688  137.0755  186.2797 H   0  0  0  0  0  0  0  0  0  0  0  0
  154.8412  137.3591  187.8953 C   0  0  0  0  0  0  0  0  0  0  0  0
  156.1051  137.8724  187.2597 C   0  0  0  0  0  0  0  0  0  0  0  0
  155.3317  138.4097  190.1413 C   0  0  0  0  0  0  0  0  0  0  0  0
  154.4416  138.3463  188.9254 C   0  0  0  0  0  0  0  0  0  0  0  0
 67 68  1  0  0  0
 68 65  1  0  0  0
 65 66  1  0  0  0
 65 37  1  0  0  0
 37  1  1  0  0  0
  1  2  1  0  0  0
  2  3  2  0  0  0
  2  5  1  0  0  0
  5 30  1  0  0  0
 30 31  1  0  0  0
 31 32  2  0  0  0
 32 33  1  0  0  0
 33 34  2  0  0  0
 34 35  1  0  0  0
 35 36  2  0  0  0
  5  6  1  0  0  0
  6  7  1  0  0  0
  7  8  2  0  0  0
  7 10  1  0  0  0
 10 11  1  0  0  0
 11 12  1  0  0  0
 12 13  1  0  0  0
 13 14  1  0  0  0
 14 15  1  0  0  0
 15 16  2  0  0  0
 15 17  1  0  0  0
 17 18  1  0  0  0
 17 21  1  0  0  0
 21 22  1  0  0  0
 22 23  2  0  0  0
 23 24  1  0  0  0
 24 25  2  0  0  0
 25 26  1  0  0  0
 25 27  1  0  0  0
 27 28  2  0  0  0
 37 38  1  0  0  0
 38 39  2  0  0  0
 38 40  1  0  0  0
 40 42  1  0  0  0
 42 60  1  0  0  0
 60 61  1  0  0  0
 61 62  1  0  0  0
 61 63  2  0  0  0
 42 43  1  0  0  0
 43 44  2  0  0  0
 43 45  1  0  0  0
 45 47  1  0  0  0
 47 53  1  0  0  0
 53 54  1  0  0  0
 54 55  2  0  0  0
 55 56  1  0  0  0
 56 57  2  0  0  0
 57 58  1  0  0  0
 47 48  1  0  0  0
 48 49  1  0  0  0
 48 50  2  0  0  0
 36 31  1  0  0  0
 14 10  1  0  0  0
 28 22  1  0  0  0
 58 54  1  0  0  0
  1  4  1  0  0  0
  6  9  1  0  0  0
 18 19  1  0  0  0
 18 20  1  0  0  0
 26 29  1  0  0  0
 40 41  1  0  0  0
 62 64  1  0  0  0
 45 46  1  0  0  0
 58 59  1  0  0  0
 49 51  1  0  0  0
 49 52  1  0  0  0
M  END
> <minimizedAffinity>
-9.26665

> <CNNscore>
0.4852732420

> <CNNaffinity>
7.3726730347

> <CNN_VS>
3.5777609348

> <CNNaffinity_variance>
0.3816127479

$$$$
[H]OC(=O)C([H])([H])[C@@]([H])(C(=O)N([H])[C@]([H])(C(=O)N([H])[H])C([H])([H])c1c([H])nc([H])n1[H])N([H])C(=O)[C@@]([H])(N([H])C(=O)[C@@]([H])(N([H])C(=O)[C@@]1([H])N(C(=O)[C@@]([H])(N([H])[H])C([H])([H])c2c([H])c([H])c(O[H])c([H])c2[H])C([H])([H])C([H])([H])C1([H])[H])C([H])([H])c1c([H])c([H])c([H])c([H])c1[H])[C@@]([H])(C([H])([H])[H])C([H])([H])C([H])([H])[H]


 68 71  0  0  0  0  0  0  0  0999 V2000
  154.6686  139.4392  184.7514 N   0  0  0  0  0  0  0  0  0  0  0  0
  153.8967  138.2872  184.9480 C   0  0  0  0  0  0  0  0  0  0  0  0
  153.3058  137.7965  183.9576 O   0  0  0  0  0  0  0  0  0  0  0  0
  155.1490  139.8287  185.5985 H   0  0  0  0  0  0  0  0  0  0  0  0
  153.7214  137.6058  186.2407 C   0  0  0  0  0  0  0  0  0  0  0  0
  152.8332  136.4459  186.1075 N   0  0  0  0  0  0  0  0  0  0  0  0
  151.4596  136.4547  186.4237 C   0  0  0  0  0  0  0  0  0  0  0  0
  150.9855  137.5497  186.8608 O   0  0  0  0  0  0  0  0  0  0  0  0
  153.2549  135.5710  185.7543 H   0  0  0  0  0  0  0  0  0  0  0  0
  150.5789  135.2722  186.2700 C   0  0  0  0  0  0  0  0  0  0  0  0
  149.2641  135.6199  185.6516 C   0  0  0  0  0  0  0  0  0  0  0  0
  148.2453  134.8431  186.4429 C   0  0  0  0  0  0  0  0  0  0  0  0
  148.8395  134.8820  187.8481 C   0  0  0  0  0  0  0  0  0  0  0  0
  150.2412  134.6961  187.5706 N   0  0  0  0  0  0  0  0  0  0  0  0
  151.1353  134.0350  188.4546 C   0  0  0  0  0  0  0  0  0  0  0  0
  152.3477  133.9353  188.0593 O   0  0  0  0  0  0  0  0  0  0  0  0
  150.7815  133.4667  189.7648 C   0  0  0  0  0  0  0  0  0  0  0  0
  150.4024  132.0789  189.5902 N   0  0  0  0  0  0  0  0  0  0  0  0
  150.1536  131.8590  188.6003 H   0  0  0  0  0  0  0  0  0  0  0  0
  149.7001  131.7658  190.2803 H   0  0  0  0  0  0  0  0  0  0  0  0
  151.9262  133.4775  190.7630 C   0  0  0  0  0  0  0  0  0  0  0  0
  151.8929  134.7934  191.4927 C   0  0  0  0  0  0  0  0  0  0  0  0
  150.7171  135.4240  191.7871 C   0  0  0  0  0  0  0  0  0  0  0  0
  150.7164  136.6392  192.4803 C   0  0  0  0  0  0  0  0  0  0  0  0
  151.9142  137.2364  192.8879 C   0  0  0  0  0  0  0  0  0  0  0  0
  151.9167  138.4469  193.5789 O   0  0  0  0  0  0  0  0  0  0  0  0
  153.0788  136.5721  192.5731 C   0  0  0  0  0  0  0  0  0  0  0  0
  153.0786  135.3757  191.8903 C   0  0  0  0  0  0  0  0  0  0  0  0
  151.8725  138.3683  194.5999 H   0  0  0  0  0  0  0  0  0  0  0  0
  155.0766  137.0875  186.7634 C   0  0  0  0  0  0  0  0  0  0  0  0
  155.3101  137.5883  188.1369 C   0  0  0  0  0  0  0  0  0  0  0  0
  154.2706  138.3070  188.7292 C   0  0  0  0  0  0  0  0  0  0  0  0
  154.3939  138.7993  190.0235 C   0  0  0  0  0  0  0  0  0  0  0  0
  155.5612  138.5731  190.7328 C   0  0  0  0  0  0  0  0  0  0  0  0
  156.5881  137.8656  190.1537 C   0  0  0  0  0  0  0  0  0  0  0  0
  156.4415  137.3954  188.8843 C   0  0  0  0  0  0  0  0  0  0  0  0
  154.8882  140.1589  183.5102 C   0  0  0  0  0  0  0  0  0  0  0  0
  156.3247  140.0661  183.2020 C   0  0  0  0  0  0  0  0  0  0  0  0
  157.0310  139.4398  184.0947 O   0  0  0  0  0  0  0  0  0  0  0  0
  157.0490  140.5355  182.1174 N   0  0  0  0  0  0  0  0  0  0  0  0
  156.5606  141.0202  181.3358 H   0  0  0  0  0  0  0  0  0  0  0  0
  158.4827  140.3785  181.9751 C   0  0  0  0  0  0  0  0  0  0  0  0
  159.2541  141.1385  182.9614 C   0  0  0  0  0  0  0  0  0  0  0  0
  159.9461  140.5398  183.8104 O   0  0  0  0  0  0  0  0  0  0  0  0
  159.2365  142.5508  182.9749 N   0  0  0  0  0  0  0  0  0  0  0  0
  158.6717  143.0799  182.2656 H   0  0  0  0  0  0  0  0  0  0  0  0
  159.9767  143.3346  183.9375 C   0  0  0  0  0  0  0  0  0  0  0  0
  160.0280  144.7374  183.4843 C   0  0  0  0  0  0  0  0  0  0  0  0
  159.2448  145.1650  182.3516 N   0  0  0  0  0  0  0  0  0  0  0  0
  160.7604  145.5760  184.0865 O   0  0  0  0  0  0  0  0  0  0  0  0
  158.4802  145.8522  182.4984 H   0  0  0  0  0  0  0  0  0  0  0  0
  159.4994  144.7510  181.4309 H   0  0  0  0  0  0  0  0  0  0  0  0
  161.3960  142.8316  184.1011 C   0  0  0  0  0  0  0  0  0  0  0  0
  161.8471  142.8136  185.5031 C   0  0  0  0  0  0  0  0  0  0  0  0
  161.1488  143.1679  186.6299 C   0  0  0  0  0  0  0  0  0  0  0  0
  161.9534  142.9949  187.7111 N   0  0  0  0  0  0  0  0  0  0  0  0
  163.1485  142.5355  187.2627 C   0  0  0  0  0  0  0  0  0  0  0  0
  163.0695  142.4290  185.9106 N   0  0  0  0  0  0  0  0  0  0  0  0
  163.8665  142.0924  185.3122 H   0  0  0  0  0  0  0  0  0  0  0  0
  158.9628  140.6894  180.5587 C   0  0  0  0  0  0  0  0  0  0  0  0
  158.0358  141.7124  180.0083 C   0  0  0  0  0  0  0  0  0  0  0  0
  157.1687  141.3136  178.9991 O   0  0  0  0  0  0  0  0  0  0  0  0
  158.0485  142.8948  180.4542 O   0  0  0  0  0  0  0  0  0  0  0  0
  157.1274  140.3594  178.7275 H   0  0  0  0  0  0  0  0  0  0  0  0
  154.5420  141.6104  183.6420 C   0  0  0  0  0  0  0  0  0  0  0  0
  155.7702  142.4013  184.0038 C   0  0  0  0  0  0  0  0  0  0  0  0
  153.5524  143.7321  182.6891 C   0  0  0  0  0  0  0  0  0  0  0  0
  153.9191  142.2842  182.4788 C   0  0  0  0  0  0  0  0  0  0  0  0
 67 68  1  0  0  0
 68 65  1  0  0  0
 65 66  1  0  0  0
 65 37  1  0  0  0
 37  1  1  0  0  0
  1  2  1  0  0  0
  2  3  2  0  0  0
  2  5  1  0  0  0
  5 30  1  0  0  0
 30 31  1  0  0  0
 31 32  2  0  0  0
 32 33  1  0  0  0
 33 34  2  0  0  0
 34 35  1  0  0  0
 35 36  2  0  0  0
  5  6  1  0  0  0
  6  7  1  0  0  0
  7  8  2  0  0  0
  7 10  1  0  0  0
 10 11  1  0  0  0
 11 12  1  0  0  0
 12 13  1  0  0  0
 13 14  1  0  0  0
 14 15  1  0  0  0
 15 16  2  0  0  0
 15 17  1  0  0  0
 17 18  1  0  0  0
 17 21  1  0  0  0
 21 22  1  0  0  0
 22 23  2  0  0  0
 23 24  1  0  0  0
 24 25  2  0  0  0
 25 26  1  0  0  0
 25 27  1  0  0  0
 27 28  2  0  0  0
 37 38  1  0  0  0
 38 39  2  0  0  0
 38 40  1  0  0  0
 40 42  1  0  0  0
 42 60  1  0  0  0
 60 61  1  0  0  0
 61 62  1  0  0  0
 61 63  2  0  0  0
 42 43  1  0  0  0
 43 44  2  0  0  0
 43 45  1  0  0  0
 45 47  1  0  0  0
 47 53  1  0  0  0
 53 54  1  0  0  0
 54 55  2  0  0  0
 55 56  1  0  0  0
 56 57  2  0  0  0
 57 58  1  0  0  0
 47 48  1  0  0  0
 48 49  1  0  0  0
 48 50  2  0  0  0
 36 31  1  0  0  0
 14 10  1  0  0  0
 28 22  1  0  0  0
 58 54  1  0  0  0
  1  4  1  0  0  0
  6  9  1  0  0  0
 18 19  1  0  0  0
 18 20  1  0  0  0
 26 29  1  0  0  0
 40 41  1  0  0  0
 62 64  1  0  0  0
 45 46  1  0  0  0
 58 59  1  0  0  0
 49 51  1  0  0  0
 49 52  1  0  0  0
M  END
> <minimizedAffinity>
-9.00226

> <CNNscore>
0.2975933254

> <CNNaffinity>
7.3777608871

> <CNN_VS>
2.1955723763

> <CNNaffinity_variance>
0.4105804861

$$$$
[H]OC(=O)C([H])([H])[C@@]([H])(C(=O)N([H])[C@]([H])(C(=O)N([H])[H])C([H])([H])c1c([H])nc([H])n1[H])N([H])C(=O)[C@@]([H])(N([H])C(=O)[C@@]([H])(N([H])C(=O)[C@@]1([H])N(C(=O)[C@@]([H])(N([H])[H])C([H])([H])c2c([H])c([H])c(O[H])c([H])c2[H])C([H])([H])C([H])([H])C1([H])[H])C([H])([H])c1c([H])c([H])c([H])c([H])c1[H])[C@@]([H])(C([H])([H])[H])C([H])([H])C([H])([H])[H]


 68 71  0  0  0  0  0  0  0  0999 V2000
  154.3335  135.6023  189.9435 N   0  0  0  0  0  0  0  0  0  0  0  0
  155.2207  134.5354  189.7534 C   0  0  0  0  0  0  0  0  0  0  0  0
  156.0165  134.2570  190.6809 O   0  0  0  0  0  0  0  0  0  0  0  0
  153.6816  135.8136  189.1496 H   0  0  0  0  0  0  0  0  0  0  0  0
  155.2936  133.7122  188.5356 C   0  0  0  0  0  0  0  0  0  0  0  0
  153.9551  133.4586  187.9914 N   0  0  0  0  0  0  0  0  0  0  0  0
  153.5190  132.2117  187.4994 C   0  0  0  0  0  0  0  0  0  0  0  0
  154.3638  131.2629  187.5311 O   0  0  0  0  0  0  0  0  0  0  0  0
  153.2967  134.2550  187.9764 H   0  0  0  0  0  0  0  0  0  0  0  0
  152.1568  131.9764  186.9643 C   0  0  0  0  0  0  0  0  0  0  0  0
  151.6164  130.6392  187.3546 C   0  0  0  0  0  0  0  0  0  0  0  0
  150.9529  130.1105  186.1105 C   0  0  0  0  0  0  0  0  0  0  0  0
  151.8685  130.6440  185.0123 C   0  0  0  0  0  0  0  0  0  0  0  0
  152.1610  131.9672  185.5023 N   0  0  0  0  0  0  0  0  0  0  0  0
  152.4049  133.0814  184.6557 C   0  0  0  0  0  0  0  0  0  0  0  0
  152.6351  134.1949  185.2418 O   0  0  0  0  0  0  0  0  0  0  0  0
  152.4132  133.0547  183.1847 C   0  0  0  0  0  0  0  0  0  0  0  0
  151.0463  133.0901  182.7045 N   0  0  0  0  0  0  0  0  0  0  0  0
  150.3612  132.8143  183.4425 H   0  0  0  0  0  0  0  0  0  0  0  0
  150.9236  132.5907  181.8084 H   0  0  0  0  0  0  0  0  0  0  0  0
  153.1203  134.2435  182.5573 C   0  0  0  0  0  0  0  0  0  0  0  0
  154.4340  133.7621  182.0027 C   0  0  0  0  0  0  0  0  0  0  0  0
  154.8310  134.0604  180.7298 C   0  0  0  0  0  0  0  0  0  0  0  0
  156.0649  133.6120  180.2465 C   0  0  0  0  0  0  0  0  0  0  0  0
  156.9196  132.8505  181.0509 C   0  0  0  0  0  0  0  0  0  0  0  0
  158.1497  132.4026  180.5723 O   0  0  0  0  0  0  0  0  0  0  0  0
  156.4857  132.5694  182.3272 C   0  0  0  0  0  0  0  0  0  0  0  0
  155.2705  133.0111  182.8023 C   0  0  0  0  0  0  0  0  0  0  0  0
  158.9384  133.0382  180.7290 H   0  0  0  0  0  0  0  0  0  0  0  0
  156.1021  134.4400  187.4424 C   0  0  0  0  0  0  0  0  0  0  0  0
  157.5182  134.0109  187.4954 C   0  0  0  0  0  0  0  0  0  0  0  0
  158.4563  134.9816  187.8498 C   0  0  0  0  0  0  0  0  0  0  0  0
  159.8067  134.6645  187.9435 C   0  0  0  0  0  0  0  0  0  0  0  0
  160.2249  133.3707  187.6826 C   0  0  0  0  0  0  0  0  0  0  0  0
  159.3046  132.4110  187.3330 C   0  0  0  0  0  0  0  0  0  0  0  0
  157.9883  132.7486  187.2478 C   0  0  0  0  0  0  0  0  0  0  0  0
  154.2042  136.4510  191.1140 C   0  0  0  0  0  0  0  0  0  0  0  0
  152.7768  136.4827  191.4726 C   0  0  0  0  0  0  0  0  0  0  0  0
  152.4525  137.4091  192.3237 O   0  0  0  0  0  0  0  0  0  0  0  0
  151.7212  135.6886  191.0528 N   0  0  0  0  0  0  0  0  0  0  0  0
  151.8810  134.9418  190.3449 H   0  0  0  0  0  0  0  0  0  0  0  0
  150.3598  135.8386  191.5267 C   0  0  0  0  0  0  0  0  0  0  0  0
  150.1188  135.1997  192.8225 C   0  0  0  0  0  0  0  0  0  0  0  0
  149.7904  135.8905  193.8090 O   0  0  0  0  0  0  0  0  0  0  0  0
  150.2479  133.8027  192.9859 N   0  0  0  0  0  0  0  0  0  0  0  0
  150.5124  133.1967  192.1705 H   0  0  0  0  0  0  0  0  0  0  0  0
  150.0275  133.1378  194.2500 C   0  0  0  0  0  0  0  0  0  0  0  0
  151.2997  133.0756  194.9940 C   0  0  0  0  0  0  0  0  0  0  0  0
  151.6718  134.1433  195.8890 N   0  0  0  0  0  0  0  0  0  0  0  0
  152.0742  132.0846  194.8518 O   0  0  0  0  0  0  0  0  0  0  0  0
  151.7419  133.9465  196.9062 H   0  0  0  0  0  0  0  0  0  0  0  0
  151.8545  135.0703  195.4519 H   0  0  0  0  0  0  0  0  0  0  0  0
  149.5134  131.7256  194.0612 C   0  0  0  0  0  0  0  0  0  0  0  0
  149.8008  131.1773  192.7247 C   0  0  0  0  0  0  0  0  0  0  0  0
  148.9600  131.0724  191.6454 C   0  0  0  0  0  0  0  0  0  0  0  0
  149.6432  130.5052  190.6169 N   0  0  0  0  0  0  0  0  0  0  0  0
  150.9042  130.2563  191.0510 C   0  0  0  0  0  0  0  0  0  0  0  0
  150.9869  130.6725  192.3416 N   0  0  0  0  0  0  0  0  0  0  0  0
  151.8640  130.5937  192.9168 H   0  0  0  0  0  0  0  0  0  0  0  0
  149.3321  135.3739  190.4965 C   0  0  0  0  0  0  0  0  0  0  0  0
  150.0868  134.6664  189.4294 C   0  0  0  0  0  0  0  0  0  0  0  0
  150.5860  133.4049  189.7275 O   0  0  0  0  0  0  0  0  0  0  0  0
  150.2572  135.2061  188.2995 O   0  0  0  0  0  0  0  0  0  0  0  0
  150.3661  132.9756  190.5954 H   0  0  0  0  0  0  0  0  0  0  0  0
  154.6352  137.8572  190.8297 C   0  0  0  0  0  0  0  0  0  0  0  0
  156.0951  138.0235  191.1555 C   0  0  0  0  0  0  0  0  0  0  0  0
  155.6075  138.2191  188.5248 C   0  0  0  0  0  0  0  0  0  0  0  0
  154.4343  138.3815  189.4586 C   0  0  0  0  0  0  0  0  0  0  0  0
 67 68  1  0  0  0
 68 65  1  0  0  0
 65 66  1  0  0  0
 65 37  1  0  0  0
 37  1  1  0  0  0
  1  2  1  0  0  0
  2  3  2  0  0  0
  2  5  1  0  0  0
  5 30  1  0  0  0
 30 31  1  0  0  0
 31 32  2  0  0  0
 32 33  1  0  0  0
 33 34  2  0  0  0
 34 35  1  0  0  0
 35 36  2  0  0  0
  5  6  1  0  0  0
  6  7  1  0  0  0
  7  8  2  0  0  0
  7 10  1  0  0  0
 10 11  1  0  0  0
 11 12  1  0  0  0
 12 13  1  0  0  0
 13 14  1  0  0  0
 14 15  1  0  0  0
 15 16  2  0  0  0
 15 17  1  0  0  0
 17 18  1  0  0  0
 17 21  1  0  0  0
 21 22  1  0  0  0
 22 23  2  0  0  0
 23 24  1  0  0  0
 24 25  2  0  0  0
 25 26  1  0  0  0
 25 27  1  0  0  0
 27 28  2  0  0  0
 37 38  1  0  0  0
 38 39  2  0  0  0
 38 40  1  0  0  0
 40 42  1  0  0  0
 42 60  1  0  0  0
 60 61  1  0  0  0
 61 62  1  0  0  0
 61 63  2  0  0  0
 42 43  1  0  0  0
 43 44  2  0  0  0
 43 45  1  0  0  0
 45 47  1  0  0  0
 47 53  1  0  0  0
 53 54  1  0  0  0
 54 55  2  0  0  0
 55 56  1  0  0  0
 56 57  2  0  0  0
 57 58  1  0  0  0
 47 48  1  0  0  0
 48 49  1  0  0  0
 48 50  2  0  0  0
 36 31  1  0  0  0
 14 10  1  0  0  0
 28 22  1  0  0  0
 58 54  1  0  0  0
  1  4  1  0  0  0
  6  9  1  0  0  0
 18 19  1  0  0  0
 18 20  1  0  0  0
 26 29  1  0  0  0
 40 41  1  0  0  0
 62 64  1  0  0  0
 45 46  1  0  0  0
 58 59  1  0  0  0
 49 51  1  0  0  0
 49 52  1  0  0  0
M  END
> <minimizedAffinity>
-5.52766

> <CNNscore>
0.2308164090

> <CNNaffinity>
6.2924118042

> <CNN_VS>
1.4523918629

> <CNNaffinity_variance>
0.4959093928

$$$$
[H]OC(=O)C([H])([H])[C@@]([H])(C(=O)N([H])[C@]([H])(C(=O)N([H])[H])C([H])([H])c1c([H])nc([H])n1[H])N([H])C(=O)[C@@]([H])(N([H])C(=O)[C@@]([H])(N([H])C(=O)[C@@]1([H])N(C(=O)[C@@]([H])(N([H])[H])C([H])([H])c2c([H])c([H])c(O[H])c([H])c2[H])C([H])([H])C([H])([H])C1([H])[H])C([H])([H])c1c([H])c([H])c([H])c([H])c1[H])[C@@]([H])(C([H])([H])[H])C([H])([H])C([H])([H])[H]


 68 71  0  0  0  0  0  0  0  0999 V2000
  148.1743  136.2197  187.8877 N   0  0  0  0  0  0  0  0  0  0  0  0
  149.2956  135.3809  187.9129 C   0  0  0  0  0  0  0  0  0  0  0  0
  149.4220  134.5366  186.9952 O   0  0  0  0  0  0  0  0  0  0  0  0
  148.0939  136.9140  188.6696 H   0  0  0  0  0  0  0  0  0  0  0  0
  150.3433  135.4123  188.9460 C   0  0  0  0  0  0  0  0  0  0  0  0
  151.2416  136.5553  188.7494 N   0  0  0  0  0  0  0  0  0  0  0  0
  152.3416  136.5608  187.8680 C   0  0  0  0  0  0  0  0  0  0  0  0
  152.5537  135.4887  187.2196 O   0  0  0  0  0  0  0  0  0  0  0  0
  151.0417  137.4082  189.2977 H   0  0  0  0  0  0  0  0  0  0  0  0
  153.2293  137.7326  187.6775 C   0  0  0  0  0  0  0  0  0  0  0  0
  153.4899  138.0190  186.2344 C   0  0  0  0  0  0  0  0  0  0  0  0
  154.9594  138.3397  186.1616 C   0  0  0  0  0  0  0  0  0  0  0  0
  155.5408  137.4002  187.2144 C   0  0  0  0  0  0  0  0  0  0  0  0
  154.5497  137.4909  188.2565 N   0  0  0  0  0  0  0  0  0  0  0  0
  154.8512  137.3667  189.6390 C   0  0  0  0  0  0  0  0  0  0  0  0
  153.8642  137.4864  190.4440 O   0  0  0  0  0  0  0  0  0  0  0  0
  156.1853  137.1157  190.2063 C   0  0  0  0  0  0  0  0  0  0  0  0
  156.5499  138.2261  191.0633 N   0  0  0  0  0  0  0  0  0  0  0  0
  155.9813  139.0795  190.8674 H   0  0  0  0  0  0  0  0  0  0  0  0
  157.5688  138.3954  191.0874 H   0  0  0  0  0  0  0  0  0  0  0  0
  156.2565  135.8665  191.0674 C   0  0  0  0  0  0  0  0  0  0  0  0
  157.2218  134.9109  190.4194 C   0  0  0  0  0  0  0  0  0  0  0  0
  157.6770  133.7973  191.0672 C   0  0  0  0  0  0  0  0  0  0  0  0
  158.5622  132.9185  190.4337 C   0  0  0  0  0  0  0  0  0  0  0  0
  159.0015  133.1566  189.1269 C   0  0  0  0  0  0  0  0  0  0  0  0
  159.8832  132.2827  188.4931 O   0  0  0  0  0  0  0  0  0  0  0  0
  158.5220  134.2886  188.5064 C   0  0  0  0  0  0  0  0  0  0  0  0
  157.6506  135.1536  189.1308 C   0  0  0  0  0  0  0  0  0  0  0  0
  159.4426  131.5230  187.9646 H   0  0  0  0  0  0  0  0  0  0  0  0
  149.7135  135.5603  190.3460 C   0  0  0  0  0  0  0  0  0  0  0  0
  150.7793  135.6386  191.3707 C   0  0  0  0  0  0  0  0  0  0  0  0
  150.7379  136.7309  192.2385 C   0  0  0  0  0  0  0  0  0  0  0  0
  151.6871  136.8766  193.2438 C   0  0  0  0  0  0  0  0  0  0  0  0
  152.6842  135.9266  193.3856 C   0  0  0  0  0  0  0  0  0  0  0  0
  152.7293  134.8488  192.5331 C   0  0  0  0  0  0  0  0  0  0  0  0
  151.7878  134.7308  191.5566 C   0  0  0  0  0  0  0  0  0  0  0  0
  147.1085  136.2467  186.9027 C   0  0  0  0  0  0  0  0  0  0  0  0
  147.5575  137.1122  185.7998 C   0  0  0  0  0  0  0  0  0  0  0  0
  147.6853  138.3666  186.1130 O   0  0  0  0  0  0  0  0  0  0  0  0
  147.8670  136.8111  184.4827 N   0  0  0  0  0  0  0  0  0  0  0  0
  147.8260  135.8250  184.1507 H   0  0  0  0  0  0  0  0  0  0  0  0
  148.2776  137.7980  183.5040 C   0  0  0  0  0  0  0  0  0  0  0  0
  147.4814  137.7681  182.2750 C   0  0  0  0  0  0  0  0  0  0  0  0
  146.4672  138.4880  182.1691 O   0  0  0  0  0  0  0  0  0  0  0  0
  147.8382  136.9359  181.1909 N   0  0  0  0  0  0  0  0  0  0  0  0
  148.6923  136.3282  181.2489 H   0  0  0  0  0  0  0  0  0  0  0  0
  147.0729  136.8723  179.9666 C   0  0  0  0  0  0  0  0  0  0  0  0
  146.9708  135.4669  179.5306 C   0  0  0  0  0  0  0  0  0  0  0  0
  148.1623  134.6998  179.2633 N   0  0  0  0  0  0  0  0  0  0  0  0
  145.8363  134.9240  179.3874 O   0  0  0  0  0  0  0  0  0  0  0  0
  148.3834  133.8854  179.8685 H   0  0  0  0  0  0  0  0  0  0  0  0
  148.7437  135.0143  178.4589 H   0  0  0  0  0  0  0  0  0  0  0  0
  147.7202  137.6729  178.8557 C   0  0  0  0  0  0  0  0  0  0  0  0
  146.8716  137.7947  177.6580 C   0  0  0  0  0  0  0  0  0  0  0  0
  147.2530  138.0325  176.3615 C   0  0  0  0  0  0  0  0  0  0  0  0
  146.1408  138.0660  175.5815 N   0  0  0  0  0  0  0  0  0  0  0  0
  145.0700  137.8509  176.3861 C   0  0  0  0  0  0  0  0  0  0  0  0
  145.5313  137.6863  177.6532 N   0  0  0  0  0  0  0  0  0  0  0  0
  144.9017  137.5036  178.4759 H   0  0  0  0  0  0  0  0  0  0  0  0
  149.7687  137.7118  183.1832 C   0  0  0  0  0  0  0  0  0  0  0  0
  150.2059  136.3396  183.5505 C   0  0  0  0  0  0  0  0  0  0  0  0
  150.7932  136.1673  184.7975 O   0  0  0  0  0  0  0  0  0  0  0  0
  150.0409  135.3780  182.7475 O   0  0  0  0  0  0  0  0  0  0  0  0
  150.8349  136.9262  185.4365 H   0  0  0  0  0  0  0  0  0  0  0  0
  145.8504  136.8361  187.4630 C   0  0  0  0  0  0  0  0  0  0  0  0
  144.6996  136.5747  186.5290 C   0  0  0  0  0  0  0  0  0  0  0  0
  143.9732  136.6611  189.1465 C   0  0  0  0  0  0  0  0  0  0  0  0
  145.4210  136.4017  188.8128 C   0  0  0  0  0  0  0  0  0  0  0  0
 67 68  1  0  0  0
 68 65  1  0  0  0
 65 66  1  0  0  0
 65 37  1  0  0  0
 37  1  1  0  0  0
  1  2  1  0  0  0
  2  3  2  0  0  0
  2  5  1  0  0  0
  5 30  1  0  0  0
 30 31  1  0  0  0
 31 32  2  0  0  0
 32 33  1  0  0  0
 33 34  2  0  0  0
 34 35  1  0  0  0
 35 36  2  0  0  0
  5  6  1  0  0  0
  6  7  1  0  0  0
  7  8  2  0  0  0
  7 10  1  0  0  0
 10 11  1  0  0  0
 11 12  1  0  0  0
 12 13  1  0  0  0
 13 14  1  0  0  0
 14 15  1  0  0  0
 15 16  2  0  0  0
 15 17  1  0  0  0
 17 18  1  0  0  0
 17 21  1  0  0  0
 21 22  1  0  0  0
 22 23  2  0  0  0
 23 24  1  0  0  0
 24 25  2  0  0  0
 25 26  1  0  0  0
 25 27  1  0  0  0
 27 28  2  0  0  0
 37 38  1  0  0  0
 38 39  2  0  0  0
 38 40  1  0  0  0
 40 42  1  0  0  0
 42 60  1  0  0  0
 60 61  1  0  0  0
 61 62  1  0  0  0
 61 63  2  0  0  0
 42 43  1  0  0  0
 43 44  2  0  0  0
 43 45  1  0  0  0
 45 47  1  0  0  0
 47 53  1  0  0  0
 53 54  1  0  0  0
 54 55  2  0  0  0
 55 56  1  0  0  0
 56 57  2  0  0  0
 57 58  1  0  0  0
 47 48  1  0  0  0
 48 49  1  0  0  0
 48 50  2  0  0  0
 36 31  1  0  0  0
 14 10  1  0  0  0
 28 22  1  0  0  0
 58 54  1  0  0  0
  1  4  1  0  0  0
  6  9  1  0  0  0
 18 19  1  0  0  0
 18 20  1  0  0  0
 26 29  1  0  0  0
 40 41  1  0  0  0
 62 64  1  0  0  0
 45 46  1  0  0  0
 58 59  1  0  0  0
 49 51  1  0  0  0
 49 52  1  0  0  0
M  END
> <minimizedAffinity>
-6.25840

> <CNNscore>
0.2299424559

> <CNNaffinity>
6.0509300232

> <CNN_VS>
1.3913657665

> <CNNaffinity_variance>
0.4280993342

$$$$
[H]OC(=O)C([H])([H])[C@@]([H])(C(=O)N([H])[C@]([H])(C(=O)N([H])[H])C([H])([H])c1c([H])nc([H])n1[H])N([H])C(=O)[C@@]([H])(N([H])C(=O)[C@@]([H])(N([H])C(=O)[C@@]1([H])N(C(=O)[C@@]([H])(N([H])[H])C([H])([H])c2c([H])c([H])c(O[H])c([H])c2[H])C([H])([H])C([H])([H])C1([H])[H])C([H])([H])c1c([H])c([H])c([H])c([H])c1[H])[C@@]([H])(C([H])([H])[H])C([H])([H])C([H])([H])[H]


 68 71  0  0  0  0  0  0  0  0999 V2000
  151.0128  137.2704  182.0304 N   0  0  0  0  0  0  0  0  0  0  0  0
  151.6845  137.4677  183.2434 C   0  0  0  0  0  0  0  0  0  0  0  0
  150.9989  137.6959  184.2676 O   0  0  0  0  0  0  0  0  0  0  0  0
  151.6125  137.0843  181.1904 H   0  0  0  0  0  0  0  0  0  0  0  0
  153.1467  137.4320  183.4078 C   0  0  0  0  0  0  0  0  0  0  0  0
  153.6587  138.7354  183.8449 N   0  0  0  0  0  0  0  0  0  0  0  0
  153.8993  139.8253  182.9842 C   0  0  0  0  0  0  0  0  0  0  0  0
  153.6581  139.6376  181.7507 O   0  0  0  0  0  0  0  0  0  0  0  0
  153.8487  138.8496  184.8543 H   0  0  0  0  0  0  0  0  0  0  0  0
  154.4067  141.1376  183.4509 C   0  0  0  0  0  0  0  0  0  0  0  0
  153.6068  142.2795  182.9137 C   0  0  0  0  0  0  0  0  0  0  0  0
  154.6257  143.3163  182.5207 C   0  0  0  0  0  0  0  0  0  0  0  0
  155.7778  142.4522  182.0155 C   0  0  0  0  0  0  0  0  0  0  0  0
  155.7676  141.3750  182.9726 N   0  0  0  0  0  0  0  0  0  0  0  0
  156.9346  140.6726  183.3759 C   0  0  0  0  0  0  0  0  0  0  0  0
  156.7650  139.7509  184.2466 O   0  0  0  0  0  0  0  0  0  0  0  0
  158.2976  140.9183  182.8792 C   0  0  0  0  0  0  0  0  0  0  0  0
  158.5853  142.3356  182.9726 N   0  0  0  0  0  0  0  0  0  0  0  0
  157.7177  142.9099  183.0581 H   0  0  0  0  0  0  0  0  0  0  0  0
  159.2353  142.6614  182.2386 H   0  0  0  0  0  0  0  0  0  0  0  0
  159.3753  140.2070  183.6790 C   0  0  0  0  0  0  0  0  0  0  0  0
  159.9346  141.1855  184.6763 C   0  0  0  0  0  0  0  0  0  0  0  0
  159.2591  141.5167  185.8170 C   0  0  0  0  0  0  0  0  0  0  0  0
  159.8111  142.4179  186.7337 C   0  0  0  0  0  0  0  0  0  0  0  0
  161.0630  142.9998  186.5068 C   0  0  0  0  0  0  0  0  0  0  0  0
  161.6156  143.8977  187.4185 O   0  0  0  0  0  0  0  0  0  0  0  0
  161.7136  142.6426  185.3468 C   0  0  0  0  0  0  0  0  0  0  0  0
  161.1694  141.7554  184.4446 C   0  0  0  0  0  0  0  0  0  0  0  0
  162.1965  143.4767  188.1506 H   0  0  0  0  0  0  0  0  0  0  0  0
  153.5415  136.4004  184.4841 C   0  0  0  0  0  0  0  0  0  0  0  0
  153.8758  137.0957  185.7478 C   0  0  0  0  0  0  0  0  0  0  0  0
  152.8141  137.3831  186.6070 C   0  0  0  0  0  0  0  0  0  0  0  0
  153.0362  138.0169  187.8242 C   0  0  0  0  0  0  0  0  0  0  0  0
  154.3256  138.3664  188.1879 C   0  0  0  0  0  0  0  0  0  0  0  0
  155.3747  138.0855  187.3449 C   0  0  0  0  0  0  0  0  0  0  0  0
  155.1293  137.4646  186.1583 C   0  0  0  0  0  0  0  0  0  0  0  0
  149.5804  137.2879  181.7964 C   0  0  0  0  0  0  0  0  0  0  0  0
  149.2068  135.9583  181.2867 C   0  0  0  0  0  0  0  0  0  0  0  0
  148.9567  135.0759  182.2070 O   0  0  0  0  0  0  0  0  0  0  0  0
  149.0769  135.4914  179.9881 N   0  0  0  0  0  0  0  0  0  0  0  0
  149.2247  136.1380  179.1853 H   0  0  0  0  0  0  0  0  0  0  0  0
  148.7182  134.1280  179.6525 C   0  0  0  0  0  0  0  0  0  0  0  0
  149.8701  133.2287  179.5529 C   0  0  0  0  0  0  0  0  0  0  0  0
  150.3020  132.8871  178.4327 O   0  0  0  0  0  0  0  0  0  0  0  0
  150.5148  132.7334  180.7079 N   0  0  0  0  0  0  0  0  0  0  0  0
  150.1791  133.0131  181.6625 H   0  0  0  0  0  0  0  0  0  0  0  0
  151.6475  131.8376  180.6499 C   0  0  0  0  0  0  0  0  0  0  0  0
  151.1814  130.4525  180.8496 C   0  0  0  0  0  0  0  0  0  0  0  0
  151.7336  129.3784  180.0615 N   0  0  0  0  0  0  0  0  0  0  0  0
  150.2930  130.1966  181.7141 O   0  0  0  0  0  0  0  0  0  0  0  0
  152.2895  128.6402  180.5354 H   0  0  0  0  0  0  0  0  0  0  0  0
  151.5363  129.4062  179.0397 H   0  0  0  0  0  0  0  0  0  0  0  0
  152.6730  132.1568  181.7179 C   0  0  0  0  0  0  0  0  0  0  0  0
  153.8367  132.8979  181.2020 C   0  0  0  0  0  0  0  0  0  0  0  0
  155.0477  133.1167  181.8089 C   0  0  0  0  0  0  0  0  0  0  0  0
  155.8264  133.8502  180.9711 N   0  0  0  0  0  0  0  0  0  0  0  0
  155.1060  134.0890  179.8467 C   0  0  0  0  0  0  0  0  0  0  0  0
  153.8913  133.5007  180.0012 N   0  0  0  0  0  0  0  0  0  0  0  0
  153.1375  133.5355  179.2684 H   0  0  0  0  0  0  0  0  0  0  0  0
  147.8601  134.0473  178.3912 C   0  0  0  0  0  0  0  0  0  0  0  0
  146.4427  134.0483  178.8382 C   0  0  0  0  0  0  0  0  0  0  0  0
  146.1754  134.5183  180.1177 O   0  0  0  0  0  0  0  0  0  0  0  0
  145.5282  133.6350  178.0701 O   0  0  0  0  0  0  0  0  0  0  0  0
  146.9047  134.9108  180.6656 H   0  0  0  0  0  0  0  0  0  0  0  0
  149.2004  138.2986  180.7581 C   0  0  0  0  0  0  0  0  0  0  0  0
  147.7859  138.7607  180.9836 C   0  0  0  0  0  0  0  0  0  0  0  0
  150.7302  139.6881  179.3029 C   0  0  0  0  0  0  0  0  0  0  0  0
  150.0389  139.5136  180.6319 C   0  0  0  0  0  0  0  0  0  0  0  0
 67 68  1  0  0  0
 68 65  1  0  0  0
 65 66  1  0  0  0
 65 37  1  0  0  0
 37  1  1  0  0  0
  1  2  1  0  0  0
  2  3  2  0  0  0
  2  5  1  0  0  0
  5 30  1  0  0  0
 30 31  1  0  0  0
 31 32  2  0  0  0
 32 33  1  0  0  0
 33 34  2  0  0  0
 34 35  1  0  0  0
 35 36  2  0  0  0
  5  6  1  0  0  0
  6  7  1  0  0  0
  7  8  2  0  0  0
  7 10  1  0  0  0
 10 11  1  0  0  0
 11 12  1  0  0  0
 12 13  1  0  0  0
 13 14  1  0  0  0
 14 15  1  0  0  0
 15 16  2  0  0  0
 15 17  1  0  0  0
 17 18  1  0  0  0
 17 21  1  0  0  0
 21 22  1  0  0  0
 22 23  2  0  0  0
 23 24  1  0  0  0
 24 25  2  0  0  0
 25 26  1  0  0  0
 25 27  1  0  0  0
 27 28  2  0  0  0
 37 38  1  0  0  0
 38 39  2  0  0  0
 38 40  1  0  0  0
 40 42  1  0  0  0
 42 60  1  0  0  0
 60 61  1  0  0  0
 61 62  1  0  0  0
 61 63  2  0  0  0
 42 43  1  0  0  0
 43 44  2  0  0  0
 43 45  1  0  0  0
 45 47  1  0  0  0
 47 53  1  0  0  0
 53 54  1  0  0  0
 54 55  2  0  0  0
 55 56  1  0  0  0
 56 57  2  0  0  0
 57 58  1  0  0  0
 47 48  1  0  0  0
 48 49  1  0  0  0
 48 50  2  0  0  0
 36 31  1  0  0  0
 14 10  1  0  0  0
 28 22  1  0  0  0
 58 54  1  0  0  0
  1  4  1  0  0  0
  6  9  1  0  0  0
 18 19  1  0  0  0
 18 20  1  0  0  0
 26 29  1  0  0  0
 40 41  1  0  0  0
 62 64  1  0  0  0
 45 46  1  0  0  0
 58 59  1  0  0  0
 49 51  1  0  0  0
 49 52  1  0  0  0
M  END
> <minimizedAffinity>
-7.77092

> <CNNscore>
0.1939956248

> <CNNaffinity>
7.0380172729

> <CNN_VS>
1.3653445244

> <CNNaffinity_variance>
0.3823858202

$$$$
[H]OC(=O)C([H])([H])[C@@]([H])(C(=O)N([H])[C@]([H])(C(=O)N([H])[H])C([H])([H])c1c([H])nc([H])n1[H])N([H])C(=O)[C@@]([H])(N([H])C(=O)[C@@]([H])(N([H])C(=O)[C@@]1([H])N(C(=O)[C@@]([H])(N([H])[H])C([H])([H])c2c([H])c([H])c(O[H])c([H])c2[H])C([H])([H])C([H])([H])C1([H])[H])C([H])([H])c1c([H])c([H])c([H])c([H])c1[H])[C@@]([H])(C([H])([H])[H])C([H])([H])C([H])([H])[H]


 68 71  0  0  0  0  0  0  0  0999 V2000
  155.5620  136.1637  188.2078 N   0  0  0  0  0  0  0  0  0  0  0  0
  155.3256  137.1997  187.2954 C   0  0  0  0  0  0  0  0  0  0  0  0
  156.1801  138.1121  187.2039 O   0  0  0  0  0  0  0  0  0  0  0  0
  154.8287  135.4160  188.2645 H   0  0  0  0  0  0  0  0  0  0  0  0
  154.1382  137.3019  186.4319 C   0  0  0  0  0  0  0  0  0  0  0  0
  154.5024  137.7704  185.0903 N   0  0  0  0  0  0  0  0  0  0  0  0
  154.2475  139.0687  184.6041 C   0  0  0  0  0  0  0  0  0  0  0  0
  153.6526  139.8641  185.3967 O   0  0  0  0  0  0  0  0  0  0  0  0
  154.9799  137.0943  184.4715 H   0  0  0  0  0  0  0  0  0  0  0  0
  154.6354  139.5231  183.2475 C   0  0  0  0  0  0  0  0  0  0  0  0
  155.3418  140.8395  183.2698 C   0  0  0  0  0  0  0  0  0  0  0  0
  154.7621  141.6108  182.1137 C   0  0  0  0  0  0  0  0  0  0  0  0
  153.3080  141.1476  182.1217 C   0  0  0  0  0  0  0  0  0  0  0  0
  153.4572  139.7437  182.4106 N   0  0  0  0  0  0  0  0  0  0  0  0
  152.5711  138.7444  181.9267 C   0  0  0  0  0  0  0  0  0  0  0  0
  152.8459  137.5396  182.2571 O   0  0  0  0  0  0  0  0  0  0  0  0
  151.3841  138.9832  181.0908 C   0  0  0  0  0  0  0  0  0  0  0  0
  151.8126  139.4130  179.7748 N   0  0  0  0  0  0  0  0  0  0  0  0
  152.7964  139.7627  179.7744 H   0  0  0  0  0  0  0  0  0  0  0  0
  151.1384  140.0525  179.3232 H   0  0  0  0  0  0  0  0  0  0  0  0
  150.5271  137.7468  180.8815 C   0  0  0  0  0  0  0  0  0  0  0  0
  149.2304  137.9512  181.6174 C   0  0  0  0  0  0  0  0  0  0  0  0
  148.9944  139.0717  182.3631 C   0  0  0  0  0  0  0  0  0  0  0  0
  147.7730  139.2415  183.0238 C   0  0  0  0  0  0  0  0  0  0  0  0
  146.7670  138.2730  182.9380 C   0  0  0  0  0  0  0  0  0  0  0  0
  145.5490  138.4396  183.5949 O   0  0  0  0  0  0  0  0  0  0  0  0
  147.0411  137.1576  182.1782 C   0  0  0  0  0  0  0  0  0  0  0  0
  148.2440  136.9909  181.5281 C   0  0  0  0  0  0  0  0  0  0  0  0
  144.8212  138.9170  183.0537 H   0  0  0  0  0  0  0  0  0  0  0  0
  153.4711  135.9209  186.2694 C   0  0  0  0  0  0  0  0  0  0  0  0
  152.0611  136.0901  185.8508 C   0  0  0  0  0  0  0  0  0  0  0  0
  151.2771  136.9535  186.6175 C   0  0  0  0  0  0  0  0  0  0  0  0
  149.9471  137.1879  186.2876 C   0  0  0  0  0  0  0  0  0  0  0  0
  149.3947  136.5580  185.1853 C   0  0  0  0  0  0  0  0  0  0  0  0
  150.1630  135.7066  184.4269 C   0  0  0  0  0  0  0  0  0  0  0  0
  151.4627  135.4940  184.7727 C   0  0  0  0  0  0  0  0  0  0  0  0
  156.7069  135.9975  189.0845 C   0  0  0  0  0  0  0  0  0  0  0  0
  157.1364  134.5935  188.9774 C   0  0  0  0  0  0  0  0  0  0  0  0
  156.2006  133.7665  188.6192 O   0  0  0  0  0  0  0  0  0  0  0  0
  158.3734  134.0073  189.1948 N   0  0  0  0  0  0  0  0  0  0  0  0
  159.1915  134.5981  189.4520 H   0  0  0  0  0  0  0  0  0  0  0  0
  158.6271  132.5862  189.0663 C   0  0  0  0  0  0  0  0  0  0  0  0
  158.9352  131.9305  190.3393 C   0  0  0  0  0  0  0  0  0  0  0  0
  158.7438  132.5330  191.4156 O   0  0  0  0  0  0  0  0  0  0  0  0
  159.4480  130.6151  190.3806 N   0  0  0  0  0  0  0  0  0  0  0  0
  159.6085  130.0814  189.4910 H   0  0  0  0  0  0  0  0  0  0  0  0
  159.7724  129.9389  191.6160 C   0  0  0  0  0  0  0  0  0  0  0  0
  158.6248  130.0350  192.5377 C   0  0  0  0  0  0  0  0  0  0  0  0
  158.7353  130.7914  193.7605 N   0  0  0  0  0  0  0  0  0  0  0  0
  157.5347  129.4538  192.2621 O   0  0  0  0  0  0  0  0  0  0  0  0
  158.1546  131.6440  193.8796 H   0  0  0  0  0  0  0  0  0  0  0  0
  159.4055  130.4283  194.4696 H   0  0  0  0  0  0  0  0  0  0  0  0
  160.9822  130.5504  192.2917 C   0  0  0  0  0  0  0  0  0  0  0  0
  162.2210  129.7862  192.0659 C   0  0  0  0  0  0  0  0  0  0  0  0
  163.1704  129.9664  191.0917 C   0  0  0  0  0  0  0  0  0  0  0  0
  164.1457  129.0353  191.2590 N   0  0  0  0  0  0  0  0  0  0  0  0
  163.8077  128.2767  192.3317 C   0  0  0  0  0  0  0  0  0  0  0  0
  162.6287  128.7470  192.8157 N   0  0  0  0  0  0  0  0  0  0  0  0
  162.1432  128.3324  193.6517 H   0  0  0  0  0  0  0  0  0  0  0  0
  159.7045  132.2806  188.0273 C   0  0  0  0  0  0  0  0  0  0  0  0
  159.0038  131.7502  186.8287 C   0  0  0  0  0  0  0  0  0  0  0  0
  157.6302  131.9425  186.7530 O   0  0  0  0  0  0  0  0  0  0  0  0
  159.6488  131.1511  185.9221 O   0  0  0  0  0  0  0  0  0  0  0  0
  157.1658  132.4870  187.4414 H   0  0  0  0  0  0  0  0  0  0  0  0
  156.3517  136.2588  190.5161 C   0  0  0  0  0  0  0  0  0  0  0  0
  156.5497  137.7157  190.8375 C   0  0  0  0  0  0  0  0  0  0  0  0
  154.1069  137.0540  191.3632 C   0  0  0  0  0  0  0  0  0  0  0  0
  154.9894  135.8953  190.9712 C   0  0  0  0  0  0  0  0  0  0  0  0
 67 68  1  0  0  0
 68 65  1  0  0  0
 65 66  1  0  0  0
 65 37  1  0  0  0
 37  1  1  0  0  0
  1  2  1  0  0  0
  2  3  2  0  0  0
  2  5  1  0  0  0
  5 30  1  0  0  0
 30 31  1  0  0  0
 31 32  2  0  0  0
 32 33  1  0  0  0
 33 34  2  0  0  0
 34 35  1  0  0  0
 35 36  2  0  0  0
  5  6  1  0  0  0
  6  7  1  0  0  0
  7  8  2  0  0  0
  7 10  1  0  0  0
 10 11  1  0  0  0
 11 12  1  0  0  0
 12 13  1  0  0  0
 13 14  1  0  0  0
 14 15  1  0  0  0
 15 16  2  0  0  0
 15 17  1  0  0  0
 17 18  1  0  0  0
 17 21  1  0  0  0
 21 22  1  0  0  0
 22 23  2  0  0  0
 23 24  1  0  0  0
 24 25  2  0  0  0
 25 26  1  0  0  0
 25 27  1  0  0  0
 27 28  2  0  0  0
 37 38  1  0  0  0
 38 39  2  0  0  0
 38 40  1  0  0  0
 40 42  1  0  0  0
 42 60  1  0  0  0
 60 61  1  0  0  0
 61 62  1  0  0  0
 61 63  2  0  0  0
 42 43  1  0  0  0
 43 44  2  0  0  0
 43 45  1  0  0  0
 45 47  1  0  0  0
 47 53  1  0  0  0
 53 54  1  0  0  0
 54 55  2  0  0  0
 55 56  1  0  0  0
 56 57  2  0  0  0
 57 58  1  0  0  0
 47 48  1  0  0  0
 48 49  1  0  0  0
 48 50  2  0  0  0
 36 31  1  0  0  0
 14 10  1  0  0  0
 28 22  1  0  0  0
 58 54  1  0  0  0
  1  4  1  0  0  0
  6  9  1  0  0  0
 18 19  1  0  0  0
 18 20  1  0  0  0
 26 29  1  0  0  0
 40 41  1  0  0  0
 62 64  1  0  0  0
 45 46  1  0  0  0
 58 59  1  0  0  0
 49 51  1  0  0  0
 49 52  1  0  0  0
M  END
> <minimizedAffinity>
-6.27694

> <CNNscore>
0.1891043037

> <CNNaffinity>
6.2757043839

> <CNN_VS>
1.1867626905

> <CNNaffinity_variance>
0.2645438313

$$$$
[H]OC(=O)C([H])([H])[C@@]([H])(C(=O)N([H])[C@]([H])(C(=O)N([H])[H])C([H])([H])c1c([H])nc([H])n1[H])N([H])C(=O)[C@@]([H])(N([H])C(=O)[C@@]([H])(N([H])C(=O)[C@@]1([H])N(C(=O)[C@@]([H])(N([H])[H])C([H])([H])c2c([H])c([H])c(O[H])c([H])c2[H])C([H])([H])C([H])([H])C1([H])[H])C([H])([H])c1c([H])c([H])c([H])c([H])c1[H])[C@@]([H])(C([H])([H])[H])C([H])([H])C([H])([H])[H]


 68 71  0  0  0  0  0  0  0  0999 V2000
  153.1381  138.0482  185.8533 N   0  0  0  0  0  0  0  0  0  0  0  0
  153.4386  138.0518  184.4854 C   0  0  0  0  0  0  0  0  0  0  0  0
  153.8461  136.9855  183.9676 O   0  0  0  0  0  0  0  0  0  0  0  0
  152.8020  138.9550  186.2592 H   0  0  0  0  0  0  0  0  0  0  0  0
  153.3157  139.2233  183.6029 C   0  0  0  0  0  0  0  0  0  0  0  0
  154.4025  140.1789  183.8431 N   0  0  0  0  0  0  0  0  0  0  0  0
  154.4911  141.4510  183.2425 C   0  0  0  0  0  0  0  0  0  0  0  0
  153.5603  141.7630  182.4356 O   0  0  0  0  0  0  0  0  0  0  0  0
  155.1447  139.8886  184.5010 H   0  0  0  0  0  0  0  0  0  0  0  0
  155.5939  142.4048  183.5096 C   0  0  0  0  0  0  0  0  0  0  0  0
  155.4574  143.6663  182.7206 C   0  0  0  0  0  0  0  0  0  0  0  0
  156.8486  143.9707  182.2315 C   0  0  0  0  0  0  0  0  0  0  0  0
  157.4069  142.5736  181.9757 C   0  0  0  0  0  0  0  0  0  0  0  0
  156.8821  141.8456  183.1031 N   0  0  0  0  0  0  0  0  0  0  0  0
  157.5529  140.7514  183.7118 C   0  0  0  0  0  0  0  0  0  0  0  0
  156.9653  140.2176  184.7149 O   0  0  0  0  0  0  0  0  0  0  0  0
  158.8465  140.1948  183.2861 C   0  0  0  0  0  0  0  0  0  0  0  0
  158.6433  139.3781  182.1062 N   0  0  0  0  0  0  0  0  0  0  0  0
  157.6452  139.0955  181.9887 H   0  0  0  0  0  0  0  0  0  0  0  0
  159.3133  138.5943  182.0416 H   0  0  0  0  0  0  0  0  0  0  0  0
  159.8696  141.2514  182.9068 C   0  0  0  0  0  0  0  0  0  0  0  0
  160.4967  141.7661  184.1744 C   0  0  0  0  0  0  0  0  0  0  0  0
  159.7453  142.0976  185.2664 C   0  0  0  0  0  0  0  0  0  0  0  0
  160.3573  142.5589  186.4368 C   0  0  0  0  0  0  0  0  0  0  0  0
  161.7477  142.6916  186.5183 C   0  0  0  0  0  0  0  0  0  0  0  0
  162.3603  143.1506  187.6831 O   0  0  0  0  0  0  0  0  0  0  0  0
  162.4716  142.3485  185.3981 C   0  0  0  0  0  0  0  0  0  0  0  0
  161.8683  141.8946  184.2460 C   0  0  0  0  0  0  0  0  0  0  0  0
  162.6175  142.4236  188.3584 H   0  0  0  0  0  0  0  0  0  0  0  0
  153.4019  138.7937  182.1242 C   0  0  0  0  0  0  0  0  0  0  0  0
  152.0924  138.9984  181.4644 C   0  0  0  0  0  0  0  0  0  0  0  0
  152.1157  139.5100  180.1661 C   0  0  0  0  0  0  0  0  0  0  0  0
  150.9349  139.7170  179.4622 C   0  0  0  0  0  0  0  0  0  0  0  0
  149.7222  139.4113  180.0562 C   0  0  0  0  0  0  0  0  0  0  0  0
  149.6940  138.9071  181.3350 C   0  0  0  0  0  0  0  0  0  0  0  0
  150.8652  138.7148  182.0023 C   0  0  0  0  0  0  0  0  0  0  0  0
  153.2318  136.9343  186.7793 C   0  0  0  0  0  0  0  0  0  0  0  0
  151.8672  136.6430  187.2485 C   0  0  0  0  0  0  0  0  0  0  0  0
  150.9555  137.4525  186.7997 O   0  0  0  0  0  0  0  0  0  0  0  0
  151.3932  135.6481  188.0892 N   0  0  0  0  0  0  0  0  0  0  0  0
  152.0473  134.9328  188.4697 H   0  0  0  0  0  0  0  0  0  0  0  0
  150.0030  135.5120  188.4754 C   0  0  0  0  0  0  0  0  0  0  0  0
  149.8209  135.1412  189.8807 C   0  0  0  0  0  0  0  0  0  0  0  0
  148.6817  134.8713  190.3138 O   0  0  0  0  0  0  0  0  0  0  0  0
  150.9167  135.0780  190.7696 N   0  0  0  0  0  0  0  0  0  0  0  0
  151.8871  135.2896  190.4294 H   0  0  0  0  0  0  0  0  0  0  0  0
  150.7754  134.7253  192.1640 C   0  0  0  0  0  0  0  0  0  0  0  0
  150.4670  135.9394  192.9429 C   0  0  0  0  0  0  0  0  0  0  0  0
  150.9344  137.2284  192.4963 N   0  0  0  0  0  0  0  0  0  0  0  0
  149.7899  135.8585  194.0093 O   0  0  0  0  0  0  0  0  0  0  0  0
  150.2394  137.9439  192.2075 H   0  0  0  0  0  0  0  0  0  0  0  0
  151.9659  137.3697  192.4913 H   0  0  0  0  0  0  0  0  0  0  0  0
  152.0421  134.1084  192.7199 C   0  0  0  0  0  0  0  0  0  0  0  0
  153.2527  134.5020  191.9789 C   0  0  0  0  0  0  0  0  0  0  0  0
  153.8411  133.8755  190.9092 C   0  0  0  0  0  0  0  0  0  0  0  0
  154.9401  134.5850  190.5418 N   0  0  0  0  0  0  0  0  0  0  0  0
  155.0386  135.6490  191.3776 C   0  0  0  0  0  0  0  0  0  0  0  0
  154.0002  135.5861  192.2512 N   0  0  0  0  0  0  0  0  0  0  0  0
  153.8420  136.2977  193.0096 H   0  0  0  0  0  0  0  0  0  0  0  0
  149.2376  134.5566  187.5617 C   0  0  0  0  0  0  0  0  0  0  0  0
  148.1553  135.3507  186.9237 C   0  0  0  0  0  0  0  0  0  0  0  0
  148.1724  136.7263  187.1161 O   0  0  0  0  0  0  0  0  0  0  0  0
  147.2627  134.7802  186.2349 O   0  0  0  0  0  0  0  0  0  0  0  0
  148.9314  137.1520  187.5943 H   0  0  0  0  0  0  0  0  0  0  0  0
  154.0633  137.2774  187.9771 C   0  0  0  0  0  0  0  0  0  0  0  0
  155.5249  137.2160  187.6232 C   0  0  0  0  0  0  0  0  0  0  0  0
  154.5838  138.8076  189.9203 C   0  0  0  0  0  0  0  0  0  0  0  0
  153.8303  138.5854  188.6329 C   0  0  0  0  0  0  0  0  0  0  0  0
 67 68  1  0  0  0
 68 65  1  0  0  0
 65 66  1  0  0  0
 65 37  1  0  0  0
 37  1  1  0  0  0
  1  2  1  0  0  0
  2  3  2  0  0  0
  2  5  1  0  0  0
  5 30  1  0  0  0
 30 31  1  0  0  0
 31 32  2  0  0  0
 32 33  1  0  0  0
 33 34  2  0  0  0
 34 35  1  0  0  0
 35 36  2  0  0  0
  5  6  1  0  0  0
  6  7  1  0  0  0
  7  8  2  0  0  0
  7 10  1  0  0  0
 10 11  1  0  0  0
 11 12  1  0  0  0
 12 13  1  0  0  0
 13 14  1  0  0  0
 14 15  1  0  0  0
 15 16  2  0  0  0
 15 17  1  0  0  0
 17 18  1  0  0  0
 17 21  1  0  0  0
 21 22  1  0  0  0
 22 23  2  0  0  0
 23 24  1  0  0  0
 24 25  2  0  0  0
 25 26  1  0  0  0
 25 27  1  0  0  0
 27 28  2  0  0  0
 37 38  1  0  0  0
 38 39  2  0  0  0
 38 40  1  0  0  0
 40 42  1  0  0  0
 42 60  1  0  0  0
 60 61  1  0  0  0
 61 62  1  0  0  0
 61 63  2  0  0  0
 42 43  1  0  0  0
 43 44  2  0  0  0
 43 45  1  0  0  0
 45 47  1  0  0  0
 47 53  1  0  0  0
 53 54  1  0  0  0
 54 55  2  0  0  0
 55 56  1  0  0  0
 56 57  2  0  0  0
 57 58  1  0  0  0
 47 48  1  0  0  0
 48 49  1  0  0  0
 48 50  2  0  0  0
 36 31  1  0  0  0
 14 10  1  0  0  0
 28 22  1  0  0  0
 58 54  1  0  0  0
  1  4  1  0  0  0
  6  9  1  0  0  0
 18 19  1  0  0  0
 18 20  1  0  0  0
 26 29  1  0  0  0
 40 41  1  0  0  0
 62 64  1  0  0  0
 45 46  1  0  0  0
 58 59  1  0  0  0
 49 51  1  0  0  0
 49 52  1  0  0  0
M  END
> <minimizedAffinity>
-9.28219

> <CNNscore>
0.1837865263

> <CNNaffinity>
7.2461881638

> <CNN_VS>
1.3317517042

> <CNNaffinity_variance>
0.2417369187

$$$$
[H]OC(=O)C([H])([H])[C@@]([H])(C(=O)N([H])[C@]([H])(C(=O)N([H])[H])C([H])([H])c1c([H])nc([H])n1[H])N([H])C(=O)[C@@]([H])(N([H])C(=O)[C@@]([H])(N([H])C(=O)[C@@]1([H])N(C(=O)[C@@]([H])(N([H])[H])C([H])([H])c2c([H])c([H])c(O[H])c([H])c2[H])C([H])([H])C([H])([H])C1([H])[H])C([H])([H])c1c([H])c([H])c([H])c([H])c1[H])[C@@]([H])(C([H])([H])[H])C([H])([H])C([H])([H])[H]


 68 71  0  0  0  0  0  0  0  0999 V2000
  155.6028  136.1222  188.2321 N   0  0  0  0  0  0  0  0  0  0  0  0
  155.3869  137.1943  187.3573 C   0  0  0  0  0  0  0  0  0  0  0  0
  156.1923  138.1541  187.3897 O   0  0  0  0  0  0  0  0  0  0  0  0
  154.9114  135.3350  188.1844 H   0  0  0  0  0  0  0  0  0  0  0  0
  154.2742  137.2829  186.3980 C   0  0  0  0  0  0  0  0  0  0  0  0
  153.0284  136.7836  186.9902 N   0  0  0  0  0  0  0  0  0  0  0  0
  152.4541  135.5302  186.6971 C   0  0  0  0  0  0  0  0  0  0  0  0
  153.0708  134.8075  185.8531 O   0  0  0  0  0  0  0  0  0  0  0  0
  152.5516  137.4009  187.6681 H   0  0  0  0  0  0  0  0  0  0  0  0
  151.1992  135.0421  187.3171 C   0  0  0  0  0  0  0  0  0  0  0  0
  151.2516  133.5825  187.6321 C   0  0  0  0  0  0  0  0  0  0  0  0
  149.9059  133.0477  187.2195 C   0  0  0  0  0  0  0  0  0  0  0  0
  149.5943  133.8918  185.9868 C   0  0  0  0  0  0  0  0  0  0  0  0
  150.0694  135.1878  186.4008 N   0  0  0  0  0  0  0  0  0  0  0  0
  149.4918  136.4108  185.9666 C   0  0  0  0  0  0  0  0  0  0  0  0
  150.0163  137.4793  186.4351 O   0  0  0  0  0  0  0  0  0  0  0  0
  148.3587  136.5414  185.0373 C   0  0  0  0  0  0  0  0  0  0  0  0
  147.1506  136.0935  185.7007 N   0  0  0  0  0  0  0  0  0  0  0  0
  147.3549  135.4991  186.5344 H   0  0  0  0  0  0  0  0  0  0  0  0
  146.4645  135.6810  185.0476 H   0  0  0  0  0  0  0  0  0  0  0  0
  148.0992  137.9692  184.5892 C   0  0  0  0  0  0  0  0  0  0  0  0
  148.4617  138.0712  183.1321 C   0  0  0  0  0  0  0  0  0  0  0  0
  148.5104  139.2734  182.4845 C   0  0  0  0  0  0  0  0  0  0  0  0
  148.8657  139.3389  181.1330 C   0  0  0  0  0  0  0  0  0  0  0  0
  149.1789  138.1804  180.4138 C   0  0  0  0  0  0  0  0  0  0  0  0
  149.5335  138.2426  179.0672 O   0  0  0  0  0  0  0  0  0  0  0  0
  149.1185  136.9876  181.0994 C   0  0  0  0  0  0  0  0  0  0  0  0
  148.7684  136.9239  182.4301 C   0  0  0  0  0  0  0  0  0  0  0  0
  150.5356  138.3549  178.8830 H   0  0  0  0  0  0  0  0  0  0  0  0
  154.0317  138.7503  185.9900 C   0  0  0  0  0  0  0  0  0  0  0  0
  153.5423  138.8092  184.5940 C   0  0  0  0  0  0  0  0  0  0  0  0
  153.9310  139.9160  183.8378 C   0  0  0  0  0  0  0  0  0  0  0  0
  153.5343  140.0458  182.5117 C   0  0  0  0  0  0  0  0  0  0  0  0
  152.7451  139.0653  181.9350 C   0  0  0  0  0  0  0  0  0  0  0  0
  152.3595  137.9732  182.6758 C   0  0  0  0  0  0  0  0  0  0  0  0
  152.7613  137.8712  183.9727 C   0  0  0  0  0  0  0  0  0  0  0  0
  156.6757  135.9669  189.1974 C   0  0  0  0  0  0  0  0  0  0  0  0
  157.1631  134.5822  189.0869 C   0  0  0  0  0  0  0  0  0  0  0  0
  156.3540  133.7703  188.4753 O   0  0  0  0  0  0  0  0  0  0  0  0
  158.3419  134.0007  189.5266 N   0  0  0  0  0  0  0  0  0  0  0  0
  159.0656  134.5830  189.9975 H   0  0  0  0  0  0  0  0  0  0  0  0
  158.6629  132.5978  189.3557 C   0  0  0  0  0  0  0  0  0  0  0  0
  158.8229  131.8770  190.6207 C   0  0  0  0  0  0  0  0  0  0  0  0
  158.6047  132.4581  191.7037 O   0  0  0  0  0  0  0  0  0  0  0  0
  159.2210  130.5221  190.6466 N   0  0  0  0  0  0  0  0  0  0  0  0
  159.4007  130.0060  189.7503 H   0  0  0  0  0  0  0  0  0  0  0  0
  159.3983  129.7807  191.8745 C   0  0  0  0  0  0  0  0  0  0  0  0
  158.1756  129.8953  192.6915 C   0  0  0  0  0  0  0  0  0  0  0  0
  158.2090  130.5836  193.9583 N   0  0  0  0  0  0  0  0  0  0  0  0
  157.0880  129.3899  192.2867 O   0  0  0  0  0  0  0  0  0  0  0  0
  157.6638  131.4604  194.0697 H   0  0  0  0  0  0  0  0  0  0  0  0
  158.7903  130.1495  194.7050 H   0  0  0  0  0  0  0  0  0  0  0  0
  160.5665  130.3037  192.6843 C   0  0  0  0  0  0  0  0  0  0  0  0
  161.8293  129.5999  192.4024 C   0  0  0  0  0  0  0  0  0  0  0  0
  162.0096  128.3205  191.9405 C   0  0  0  0  0  0  0  0  0  0  0  0
  163.3428  128.0852  191.8242 N   0  0  0  0  0  0  0  0  0  0  0  0
  163.9925  129.2112  192.2118 C   0  0  0  0  0  0  0  0  0  0  0  0
  163.0549  130.1296  192.5625 N   0  0  0  0  0  0  0  0  0  0  0  0
  163.2944  131.0960  192.9020 H   0  0  0  0  0  0  0  0  0  0  0  0
  159.8794  132.3861  188.4564 C   0  0  0  0  0  0  0  0  0  0  0  0
  159.3707  131.8403  187.1710 C   0  0  0  0  0  0  0  0  0  0  0  0
  158.0536  132.1234  186.8321 O   0  0  0  0  0  0  0  0  0  0  0  0
  160.1216  131.1484  186.4266 O   0  0  0  0  0  0  0  0  0  0  0  0
  157.5153  132.7363  187.3984 H   0  0  0  0  0  0  0  0  0  0  0  0
  156.1930  136.1708  190.6007 C   0  0  0  0  0  0  0  0  0  0  0  0
  156.3954  137.6046  191.0110 C   0  0  0  0  0  0  0  0  0  0  0  0
  153.9363  136.9643  191.4171 C   0  0  0  0  0  0  0  0  0  0  0  0
  154.7851  135.8263  190.9079 C   0  0  0  0  0  0  0  0  0  0  0  0
 67 68  1  0  0  0
 68 65  1  0  0  0
 65 66  1  0  0  0
 65 37  1  0  0  0
 37  1  1  0  0  0
  1  2  1  0  0  0
  2  3  2  0  0  0
  2  5  1  0  0  0
  5 30  1  0  0  0
 30 31  1  0  0  0
 31 32  2  0  0  0
 32 33  1  0  0  0
 33 34  2  0  0  0
 34 35  1  0  0  0
 35 36  2  0  0  0
  5  6  1  0  0  0
  6  7  1  0  0  0
  7  8  2  0  0  0
  7 10  1  0  0  0
 10 11  1  0  0  0
 11 12  1  0  0  0
 12 13  1  0  0  0
 13 14  1  0  0  0
 14 15  1  0  0  0
 15 16  2  0  0  0
 15 17  1  0  0  0
 17 18  1  0  0  0
 17 21  1  0  0  0
 21 22  1  0  0  0
 22 23  2  0  0  0
 23 24  1  0  0  0
 24 25  2  0  0  0
 25 26  1  0  0  0
 25 27  1  0  0  0
 27 28  2  0  0  0
 37 38  1  0  0  0
 38 39  2  0  0  0
 38 40  1  0  0  0
 40 42  1  0  0  0
 42 60  1  0  0  0
 60 61  1  0  0  0
 61 62  1  0  0  0
 61 63  2  0  0  0
 42 43  1  0  0  0
 43 44  2  0  0  0
 43 45  1  0  0  0
 45 47  1  0  0  0
 47 53  1  0  0  0
 53 54  1  0  0  0
 54 55  2  0  0  0
 55 56  1  0  0  0
 56 57  2  0  0  0
 57 58  1  0  0  0
 47 48  1  0  0  0
 48 49  1  0  0  0
 48 50  2  0  0  0
 36 31  1  0  0  0
 14 10  1  0  0  0
 28 22  1  0  0  0
 58 54  1  0  0  0
  1  4  1  0  0  0
  6  9  1  0  0  0
 18 19  1  0  0  0
 18 20  1  0  0  0
 26 29  1  0  0  0
 40 41  1  0  0  0
 62 64  1  0  0  0
 45 46  1  0  0  0
 58 59  1  0  0  0
 49 51  1  0  0  0
 49 52  1  0  0  0
M  END
> <minimizedAffinity>
-5.95506

> <CNNscore>
0.1783954948

> <CNNaffinity>
6.0984201431

> <CNN_VS>
1.0879306793

> <CNNaffinity_variance>
0.2866367698

$$$$
[H]OC(=O)C([H])([H])[C@@]([H])(C(=O)N([H])[C@]([H])(C(=O)N([H])[H])C([H])([H])c1c([H])nc([H])n1[H])N([H])C(=O)[C@@]([H])(N([H])C(=O)[C@@]([H])(N([H])C(=O)[C@@]1([H])N(C(=O)[C@@]([H])(N([H])[H])C([H])([H])c2c([H])c([H])c(O[H])c([H])c2[H])C([H])([H])C([H])([H])C1([H])[H])C([H])([H])c1c([H])c([H])c([H])c([H])c1[H])[C@@]([H])(C([H])([H])[H])C([H])([H])C([H])([H])[H]


 68 71  0  0  0  0  0  0  0  0999 V2000
  155.0414  139.3367  184.8033 N   0  0  0  0  0  0  0  0  0  0  0  0
  154.3939  138.1295  185.0946 C   0  0  0  0  0  0  0  0  0  0  0  0
  153.8123  137.5309  184.1595 O   0  0  0  0  0  0  0  0  0  0  0  0
  155.5169  139.8162  185.6057 H   0  0  0  0  0  0  0  0  0  0  0  0
  154.3399  137.5072  186.4273 C   0  0  0  0  0  0  0  0  0  0  0  0
  153.9930  136.0852  186.3300 N   0  0  0  0  0  0  0  0  0  0  0  0
  152.8510  135.5026  186.9161 C   0  0  0  0  0  0  0  0  0  0  0  0
  152.0930  136.2805  187.5757 O   0  0  0  0  0  0  0  0  0  0  0  0
  154.6355  135.4819  185.7905 H   0  0  0  0  0  0  0  0  0  0  0  0
  152.5149  134.0640  186.7946 C   0  0  0  0  0  0  0  0  0  0  0  0
  153.0303  133.2612  187.9445 C   0  0  0  0  0  0  0  0  0  0  0  0
  153.5854  132.0064  187.3241 C   0  0  0  0  0  0  0  0  0  0  0  0
  154.1575  132.5297  186.0096 C   0  0  0  0  0  0  0  0  0  0  0  0
  153.1447  133.4753  185.6138 N   0  0  0  0  0  0  0  0  0  0  0  0
  152.8255  133.7626  184.2598 C   0  0  0  0  0  0  0  0  0  0  0  0
  151.8909  134.6150  184.0698 O   0  0  0  0  0  0  0  0  0  0  0  0
  153.4742  133.1669  183.0812 C   0  0  0  0  0  0  0  0  0  0  0  0
  152.4577  132.8200  182.1082 N   0  0  0  0  0  0  0  0  0  0  0  0
  151.5068  132.7597  182.5349 H   0  0  0  0  0  0  0  0  0  0  0  0
  152.7150  131.9994  181.5357 H   0  0  0  0  0  0  0  0  0  0  0  0
  154.4403  134.1046  182.3781 C   0  0  0  0  0  0  0  0  0  0  0  0
  155.6815  133.3235  182.0400 C   0  0  0  0  0  0  0  0  0  0  0  0
  156.3314  132.5651  182.9725 C   0  0  0  0  0  0  0  0  0  0  0  0
  157.4745  131.8371  182.6252 C   0  0  0  0  0  0  0  0  0  0  0  0
  157.9785  131.8671  181.3204 C   0  0  0  0  0  0  0  0  0  0  0  0
  159.1170  131.1426  180.9714 O   0  0  0  0  0  0  0  0  0  0  0  0
  157.2976  132.6425  180.4085 C   0  0  0  0  0  0  0  0  0  0  0  0
  156.1723  133.3591  180.7512 C   0  0  0  0  0  0  0  0  0  0  0  0
  158.9443  130.1880  180.6405 H   0  0  0  0  0  0  0  0  0  0  0  0
  155.7157  137.5968  187.1186 C   0  0  0  0  0  0  0  0  0  0  0  0
  155.5374  137.9199  188.5524 C   0  0  0  0  0  0  0  0  0  0  0  0
  156.5980  137.6067  189.4039 C   0  0  0  0  0  0  0  0  0  0  0  0
  156.5266  137.8916  190.7628 C   0  0  0  0  0  0  0  0  0  0  0  0
  155.3905  138.4933  191.2765 C   0  0  0  0  0  0  0  0  0  0  0  0
  154.3430  138.8036  190.4418 C   0  0  0  0  0  0  0  0  0  0  0  0
  154.4386  138.5131  189.1150 C   0  0  0  0  0  0  0  0  0  0  0  0
  155.1378  140.0040  183.5179 C   0  0  0  0  0  0  0  0  0  0  0  0
  156.5651  140.0560  183.1609 C   0  0  0  0  0  0  0  0  0  0  0  0
  157.3700  139.6155  184.0806 O   0  0  0  0  0  0  0  0  0  0  0  0
  157.1929  140.4964  182.0063 N   0  0  0  0  0  0  0  0  0  0  0  0
  156.6250  140.8351  181.2018 H   0  0  0  0  0  0  0  0  0  0  0  0
  158.6302  140.5018  181.8207 C   0  0  0  0  0  0  0  0  0  0  0  0
  159.3443  141.3074  182.8139 C   0  0  0  0  0  0  0  0  0  0  0  0
  160.0571  140.7515  183.6747 O   0  0  0  0  0  0  0  0  0  0  0  0
  159.2475  142.7165  182.8210 N   0  0  0  0  0  0  0  0  0  0  0  0
  158.6636  143.2105  182.1018 H   0  0  0  0  0  0  0  0  0  0  0  0
  159.9294  143.5441  183.7899 C   0  0  0  0  0  0  0  0  0  0  0  0
  159.8639  144.9526  183.3568 C   0  0  0  0  0  0  0  0  0  0  0  0
  160.6696  145.9533  184.0118 N   0  0  0  0  0  0  0  0  0  0  0  0
  159.0996  145.2932  182.4071 O   0  0  0  0  0  0  0  0  0  0  0  0
  161.4167  146.4311  183.4717 H   0  0  0  0  0  0  0  0  0  0  0  0
  160.4481  146.1435  185.0112 H   0  0  0  0  0  0  0  0  0  0  0  0
  161.3858  143.1552  183.9370 C   0  0  0  0  0  0  0  0  0  0  0  0
  161.8114  143.0198  185.3406 C   0  0  0  0  0  0  0  0  0  0  0  0
  162.9475  142.4309  185.8358 C   0  0  0  0  0  0  0  0  0  0  0  0
  162.9339  142.5334  187.1906 N   0  0  0  0  0  0  0  0  0  0  0  0
  161.7952  143.1825  187.5406 C   0  0  0  0  0  0  0  0  0  0  0  0
  161.1183  143.4744  186.3995 N   0  0  0  0  0  0  0  0  0  0  0  0
  160.1961  143.9804  186.3906 H   0  0  0  0  0  0  0  0  0  0  0  0
  159.0310  140.9112  180.4046 C   0  0  0  0  0  0  0  0  0  0  0  0
  157.9665  141.8203  179.9054 C   0  0  0  0  0  0  0  0  0  0  0  0
  157.2010  141.3812  178.8327 O   0  0  0  0  0  0  0  0  0  0  0  0
  157.7780  142.9456  180.4487 O   0  0  0  0  0  0  0  0  0  0  0  0
  157.3202  140.4603  178.4809 H   0  0  0  0  0  0  0  0  0  0  0  0
  154.6320  141.4124  183.5849 C   0  0  0  0  0  0  0  0  0  0  0  0
  155.7826  142.3636  183.7758 C   0  0  0  0  0  0  0  0  0  0  0  0
  153.0490  140.8763  181.6887 C   0  0  0  0  0  0  0  0  0  0  0  0
  153.8349  141.9191  182.4434 C   0  0  0  0  0  0  0  0  0  0  0  0
 67 68  1  0  0  0
 68 65  1  0  0  0
 65 66  1  0  0  0
 65 37  1  0  0  0
 37  1  1  0  0  0
  1  2  1  0  0  0
  2  3  2  0  0  0
  2  5  1  0  0  0
  5 30  1  0  0  0
 30 31  1  0  0  0
 31 32  2  0  0  0
 32 33  1  0  0  0
 33 34  2  0  0  0
 34 35  1  0  0  0
 35 36  2  0  0  0
  5  6  1  0  0  0
  6  7  1  0  0  0
  7  8  2  0  0  0
  7 10  1  0  0  0
 10 11  1  0  0  0
 11 12  1  0  0  0
 12 13  1  0  0  0
 13 14  1  0  0  0
 14 15  1  0  0  0
 15 16  2  0  0  0
 15 17  1  0  0  0
 17 18  1  0  0  0
 17 21  1  0  0  0
 21 22  1  0  0  0
 22 23  2  0  0  0
 23 24  1  0  0  0
 24 25  2  0  0  0
 25 26  1  0  0  0
 25 27  1  0  0  0
 27 28  2  0  0  0
 37 38  1  0  0  0
 38 39  2  0  0  0
 38 40  1  0  0  0
 40 42  1  0  0  0
 42 60  1  0  0  0
 60 61  1  0  0  0
 61 62  1  0  0  0
 61 63  2  0  0  0
 42 43  1  0  0  0
 43 44  2  0  0  0
 43 45  1  0  0  0
 45 47  1  0  0  0
 47 53  1  0  0  0
 53 54  1  0  0  0
 54 55  2  0  0  0
 55 56  1  0  0  0
 56 57  2  0  0  0
 57 58  1  0  0  0
 47 48  1  0  0  0
 48 49  1  0  0  0
 48 50  2  0  0  0
 36 31  1  0  0  0
 14 10  1  0  0  0
 28 22  1  0  0  0
 58 54  1  0  0  0
  1  4  1  0  0  0
  6  9  1  0  0  0
 18 19  1  0  0  0
 18 20  1  0  0  0
 26 29  1  0  0  0
 40 41  1  0  0  0
 62 64  1  0  0  0
 45 46  1  0  0  0
 58 59  1  0  0  0
 49 51  1  0  0  0
 49 52  1  0  0  0
M  END
> <minimizedAffinity>
-8.88475

> <CNNscore>
0.1713192910

> <CNNaffinity>
7.4618377686

> <CNN_VS>
1.2783567905

> <CNNaffinity_variance>
0.4405136704

$$$$
[H]OC1([H])C([H])([H])C([H])([H])C2([H])C3([H])C([H])([H])C([H])([H])C4([H])C([H])([H])[C@]([H])(O[H])C([H])([H])C([H])([H])[C@]4(C([H])([H])[H])C3([H])C([H])([H])C([H])([H])[C@]12C([H])([H])[H]


 23 26  0  0  0  0  0  0  0  0999 V2000
  151.6465  137.3921  193.5905 C   0  0  0  0  0  0  0  0  0  0  0  0
  151.7397  136.0089  193.0396 C   0  0  0  0  0  0  0  0  0  0  0  0
  153.0596  135.4120  193.3860 C   0  0  0  0  0  0  0  0  0  0  0  0
  154.0253  135.3838  192.1966 C   0  0  0  0  0  0  0  0  0  0  0  0
  153.8983  136.6915  191.3945 C   0  0  0  0  0  0  0  0  0  0  0  0
  152.5410  136.8237  190.7892 C   0  0  0  0  0  0  0  0  0  0  0  0
  152.4094  136.4810  189.3521 C   0  0  0  0  0  0  0  0  0  0  0  0
  153.6823  136.4117  188.5766 C   0  0  0  0  0  0  0  0  0  0  0  0
  154.6002  137.4496  189.1666 C   0  0  0  0  0  0  0  0  0  0  0  0
  155.7025  137.7090  188.2044 C   0  0  0  0  0  0  0  0  0  0  0  0
  156.5701  136.5100  187.9983 C   0  0  0  0  0  0  0  0  0  0  0  0
  156.0127  135.5547  187.1539 O   0  0  0  0  0  0  0  0  0  0  0  0
  157.0209  135.9799  189.3086 C   0  0  0  0  0  0  0  0  0  0  0  0
  155.9598  135.7278  190.3215 C   0  0  0  0  0  0  0  0  0  0  0  0
  155.0529  136.9364  190.5068 C   0  0  0  0  0  0  0  0  0  0  0  0
  155.9887  138.0202  191.0737 C   0  0  0  0  0  0  0  0  0  0  0  0
  151.6286  135.9267  191.5460 C   0  0  0  0  0  0  0  0  0  0  0  0
  150.1799  136.0887  191.3050 C   0  0  0  0  0  0  0  0  0  0  0  0
  149.6432  135.0384  192.2712 C   0  0  0  0  0  0  0  0  0  0  0  0
  150.5565  135.1677  193.4727 C   0  0  0  0  0  0  0  0  0  0  0  0
  149.8048  135.7787  194.4749 O   0  0  0  0  0  0  0  0  0  0  0  0
  155.5846  136.0123  186.4101 H   0  0  0  0  0  0  0  0  0  0  0  0
  149.1528  136.3844  194.0427 H   0  0  0  0  0  0  0  0  0  0  0  0
  2  1  1  0  0  0
  2  3  1  0  0  0
  3  4  1  0  0  0
  4  5  1  0  0  0
  5  6  1  0  0  0
  6  7  1  0  0  0
  7  8  1  0  0  0
  8  9  1  0  0  0
  9 10  1  0  0  0
 10 11  1  0  0  0
 11 12  1  0  0  0
 11 13  1  0  0  0
 13 14  1  0  0  0
 14 15  1  0  0  0
 15 16  1  0  0  0
  6 17  1  0  0  0
 17 18  1  0  0  0
 18 19  1  0  0  0
 19 20  1  0  0  0
 20 21  1  0  0  0
 17  2  1  0  0  0
 20  2  1  0  0  0
 15  5  1  0  0  0
 15  9  1  0  0  0
 12 22  1  0  0  0
 21 23  1  0  0  0
M  END
> <minimizedAffinity>
-7.42840

> <CNNscore>
0.6545580626

> <CNNaffinity>
5.1379003525

> <CNN_VS>
3.3630540371

> <CNNaffinity_variance>
0.1078738570

$$$$
[H]OC1([H])C([H])([H])C([H])([H])C2([H])C3([H])C([H])([H])C([H])([H])C4([H])C([H])([H])[C@]([H])(O[H])C([H])([H])C([H])([H])[C@]4(C([H])([H])[H])C3([H])C([H])([H])C([H])([H])[C@]12C([H])([H])[H]


 23 26  0  0  0  0  0  0  0  0999 V2000
  159.7761  134.6925  187.7301 C   0  0  0  0  0  0  0  0  0  0  0  0
  158.6728  133.7139  187.9539 C   0  0  0  0  0  0  0  0  0  0  0  0
  157.5055  134.0591  187.0957 C   0  0  0  0  0  0  0  0  0  0  0  0
  156.3686  134.7195  187.8828 C   0  0  0  0  0  0  0  0  0  0  0  0
  156.9538  135.7038  188.9115 C   0  0  0  0  0  0  0  0  0  0  0  0
  157.7720  134.9911  189.9356 C   0  0  0  0  0  0  0  0  0  0  0  0
  157.1309  134.7336  191.2481 C   0  0  0  0  0  0  0  0  0  0  0  0
  155.9037  135.5291  191.5444 C   0  0  0  0  0  0  0  0  0  0  0  0
  156.0974  136.8733  190.8938 C   0  0  0  0  0  0  0  0  0  0  0  0
  155.1210  137.8282  191.4796 C   0  0  0  0  0  0  0  0  0  0  0  0
  153.7074  137.4573  191.1680 C   0  0  0  0  0  0  0  0  0  0  0  0
  153.2151  136.4197  191.9537 O   0  0  0  0  0  0  0  0  0  0  0  0
  153.5492  137.2471  189.7079 C   0  0  0  0  0  0  0  0  0  0  0  0
  154.5195  136.3206  189.0631 C   0  0  0  0  0  0  0  0  0  0  0  0
  155.9590  136.6756  189.4085 C   0  0  0  0  0  0  0  0  0  0  0  0
  156.1593  138.0682  188.7822 C   0  0  0  0  0  0  0  0  0  0  0  0
  158.1536  133.6745  189.3607 C   0  0  0  0  0  0  0  0  0  0  0  0
  159.1882  132.9045  190.0817 C   0  0  0  0  0  0  0  0  0  0  0  0
  159.2882  131.6920  189.1627 C   0  0  0  0  0  0  0  0  0  0  0  0
  159.1610  132.2906  187.7771 C   0  0  0  0  0  0  0  0  0  0  0  0
  160.4296  132.2283  187.2031 O   0  0  0  0  0  0  0  0  0  0  0  0
  153.5215  136.5522  192.8672 H   0  0  0  0  0  0  0  0  0  0  0  0
  161.0982  132.3152  187.9272 H   0  0  0  0  0  0  0  0  0  0  0  0
  2  1  1  0  0  0
  2  3  1  0  0  0
  3  4  1  0  0  0
  4  5  1  0  0  0
  5  6  1  0  0  0
  6  7  1  0  0  0
  7  8  1  0  0  0
  8  9  1  0  0  0
  9 10  1  0  0  0
 10 11  1  0  0  0
 11 12  1  0  0  0
 11 13  1  0  0  0
 13 14  1  0  0  0
 14 15  1  0  0  0
 15 16  1  0  0  0
  6 17  1  0  0  0
 17 18  1  0  0  0
 18 19  1  0  0  0
 19 20  1  0  0  0
 20 21  1  0  0  0
 17  2  1  0  0  0
 20  2  1  0  0  0
 15  5  1  0  0  0
 15  9  1  0  0  0
 12 22  1  0  0  0
 21 23  1  0  0  0
M  END
> <minimizedAffinity>
-6.83694

> <CNNscore>
0.6030890942

> <CNNaffinity>
5.0478067398

> <CNN_VS>
3.0442771912

> <CNNaffinity_variance>
0.1947153807

$$$$
[H]OC1([H])C([H])([H])C([H])([H])C2([H])C3([H])C([H])([H])C([H])([H])C4([H])C([H])([H])[C@]([H])(O[H])C([H])([H])C([H])([H])[C@]4(C([H])([H])[H])C3([H])C([H])([H])C([H])([H])[C@]12C([H])([H])[H]


 23 26  0  0  0  0  0  0  0  0999 V2000
  150.1794  135.8004  192.3276 C   0  0  0  0  0  0  0  0  0  0  0  0
  151.4182  135.9080  193.1516 C   0  0  0  0  0  0  0  0  0  0  0  0
  151.9683  137.2893  193.0642 C   0  0  0  0  0  0  0  0  0  0  0  0
  153.1984  137.3787  192.1548 C   0  0  0  0  0  0  0  0  0  0  0  0
  152.9891  136.4957  190.9114 C   0  0  0  0  0  0  0  0  0  0  0  0
  152.8858  135.0547  191.2839 C   0  0  0  0  0  0  0  0  0  0  0  0
  154.0979  134.2218  191.0912 C   0  0  0  0  0  0  0  0  0  0  0  0
  155.1536  134.7973  190.2076 C   0  0  0  0  0  0  0  0  0  0  0  0
  154.4382  135.5915  189.1469 C   0  0  0  0  0  0  0  0  0  0  0  0
  155.3820  135.8447  188.0274 C   0  0  0  0  0  0  0  0  0  0  0  0
  156.5301  136.7090  188.4371 C   0  0  0  0  0  0  0  0  0  0  0  0
  157.5111  136.0323  189.1556 O   0  0  0  0  0  0  0  0  0  0  0  0
  156.0276  137.9391  189.0970 C   0  0  0  0  0  0  0  0  0  0  0  0
  155.0565  137.7451  190.2083 C   0  0  0  0  0  0  0  0  0  0  0  0
  153.9046  136.8359  189.8036 C   0  0  0  0  0  0  0  0  0  0  0  0
  153.1859  137.6195  188.6895 C   0  0  0  0  0  0  0  0  0  0  0  0
  152.5285  134.9937  192.7255 C   0  0  0  0  0  0  0  0  0  0  0  0
  152.1074  133.6803  193.2552 C   0  0  0  0  0  0  0  0  0  0  0  0
  151.8153  134.0714  194.6997 C   0  0  0  0  0  0  0  0  0  0  0  0
  151.1729  135.4369  194.5704 C   0  0  0  0  0  0  0  0  0  0  0  0
  149.8184  135.2629  194.8491 O   0  0  0  0  0  0  0  0  0  0  0  0
  157.6456  135.1596  188.7478 H   0  0  0  0  0  0  0  0  0  0  0  0
  149.5593  134.3544  194.5554 H   0  0  0  0  0  0  0  0  0  0  0  0
  2  1  1  0  0  0
  2  3  1  0  0  0
  3  4  1  0  0  0
  4  5  1  0  0  0
  5  6  1  0  0  0
  6  7  1  0  0  0
  7  8  1  0  0  0
  8  9  1  0  0  0
  9 10  1  0  0  0
 10 11  1  0  0  0
 11 12  1  0  0  0
 11 13  1  0  0  0
 13 14  1  0  0  0
 14 15  1  0  0  0
 15 16  1  0  0  0
  6 17  1  0  0  0
 17 18  1  0  0  0
 18 19  1  0  0  0
 19 20  1  0  0  0
 20 21  1  0  0  0
 17  2  1  0  0  0
 20  2  1  0  0  0
 15  5  1  0  0  0
 15  9  1  0  0  0
 12 22  1  0  0  0
 21 23  1  0  0  0
M  END
> <minimizedAffinity>
-6.77103

> <CNNscore>
0.5231056213

> <CNNaffinity>
4.9013156891

> <CNN_VS>
2.5639057159

> <CNNaffinity_variance>
0.0417997502

$$$$
[H]OC1([H])C([H])([H])C([H])([H])C2([H])C3([H])C([H])([H])C([H])([H])C4([H])C([H])([H])[C@]([H])(O[H])C([H])([H])C([H])([H])[C@]4(C([H])([H])[H])C3([H])C([H])([H])C([H])([H])[C@]12C([H])([H])[H]


 23 26  0  0  0  0  0  0  0  0999 V2000
  155.1476  138.8685  185.1133 C   0  0  0  0  0  0  0  0  0  0  0  0
  153.8793  138.1679  185.4678 C   0  0  0  0  0  0  0  0  0  0  0  0
  153.1878  138.8948  186.5686 C   0  0  0  0  0  0  0  0  0  0  0  0
  153.3353  138.1937  187.9232 C   0  0  0  0  0  0  0  0  0  0  0  0
  154.7662  137.6455  188.0701 C   0  0  0  0  0  0  0  0  0  0  0  0
  155.0466  136.5895  187.0541 C   0  0  0  0  0  0  0  0  0  0  0  0
  154.9641  135.1801  187.5088 C   0  0  0  0  0  0  0  0  0  0  0  0
  154.9889  134.9663  188.9853 C   0  0  0  0  0  0  0  0  0  0  0  0
  155.8771  136.0388  189.5584 C   0  0  0  0  0  0  0  0  0  0  0  0
  156.2636  135.6462  190.9386 C   0  0  0  0  0  0  0  0  0  0  0  0
  155.0908  135.5925  191.8630 C   0  0  0  0  0  0  0  0  0  0  0  0
  154.3161  134.4457  191.7177 O   0  0  0  0  0  0  0  0  0  0  0  0
  154.3259  136.8614  191.7849 C   0  0  0  0  0  0  0  0  0  0  0  0
  153.9365  137.3171  190.4225 C   0  0  0  0  0  0  0  0  0  0  0  0
  155.1236  137.3383  189.4698 C   0  0  0  0  0  0  0  0  0  0  0  0
  156.0606  138.4049  190.0667 C   0  0  0  0  0  0  0  0  0  0  0  0
  154.0622  136.7605  185.9535 C   0  0  0  0  0  0  0  0  0  0  0  0
  154.3115  136.0030  184.7096 C   0  0  0  0  0  0  0  0  0  0  0  0
  153.1273  136.4839  183.8783 C   0  0  0  0  0  0  0  0  0  0  0  0
  153.0151  137.9498  184.2427 C   0  0  0  0  0  0  0  0  0  0  0  0
  153.4666  138.6665  183.1358 O   0  0  0  0  0  0  0  0  0  0  0  0
  154.9102  133.6851  191.5977 H   0  0  0  0  0  0  0  0  0  0  0  0
  154.1596  138.1254  182.6823 H   0  0  0  0  0  0  0  0  0  0  0  0
  2  1  1  0  0  0
  2  3  1  0  0  0
  3  4  1  0  0  0
  4  5  1  0  0  0
  5  6  1  0  0  0
  6  7  1  0  0  0
  7  8  1  0  0  0
  8  9  1  0  0  0
  9 10  1  0  0  0
 10 11  1  0  0  0
 11 12  1  0  0  0
 11 13  1  0  0  0
 13 14  1  0  0  0
 14 15  1  0  0  0
 15 16  1  0  0  0
  6 17  1  0  0  0
 17 18  1  0  0  0
 18 19  1  0  0  0
 19 20  1  0  0  0
 20 21  1  0  0  0
 17  2  1  0  0  0
 20  2  1  0  0  0
 15  5  1  0  0  0
 15  9  1  0  0  0
 12 22  1  0  0  0
 21 23  1  0  0  0
M  END
> <minimizedAffinity>
-6.30831

> <CNNscore>
0.4999799132

> <CNNaffinity>
5.0836553574

> <CNN_VS>
2.5417256355

> <CNNaffinity_variance>
0.0567013696

$$$$
[H]OC1([H])C([H])([H])C([H])([H])C2([H])C3([H])C([H])([H])C([H])([H])C4([H])C([H])([H])[C@]([H])(O[H])C([H])([H])C([H])([H])[C@]4(C([H])([H])[H])C3([H])C([H])([H])C([H])([H])[C@]12C([H])([H])[H]


 23 26  0  0  0  0  0  0  0  0999 V2000
  155.4256  138.3072  189.6671 C   0  0  0  0  0  0  0  0  0  0  0  0
  154.6638  137.1879  189.0410 C   0  0  0  0  0  0  0  0  0  0  0  0
  153.2187  137.5391  188.9607 C   0  0  0  0  0  0  0  0  0  0  0  0
  152.3763  136.8196  190.0195 C   0  0  0  0  0  0  0  0  0  0  0  0
  153.1418  136.7838  191.3545 C   0  0  0  0  0  0  0  0  0  0  0  0
  154.3914  135.9768  191.2386 C   0  0  0  0  0  0  0  0  0  0  0  0
  154.3484  134.5913  191.7664 C   0  0  0  0  0  0  0  0  0  0  0  0
  153.2154  134.2756  192.6845 C   0  0  0  0  0  0  0  0  0  0  0  0
  152.9275  135.5350  193.4582 C   0  0  0  0  0  0  0  0  0  0  0  0
  152.1072  135.1839  194.6465 C   0  0  0  0  0  0  0  0  0  0  0  0
  150.7611  134.6547  194.2709 C   0  0  0  0  0  0  0  0  0  0  0  0
  150.7791  133.3286  193.8496 O   0  0  0  0  0  0  0  0  0  0  0  0
  150.0955  135.5871  193.3282 C   0  0  0  0  0  0  0  0  0  0  0  0
  150.8832  135.9949  192.1329 C   0  0  0  0  0  0  0  0  0  0  0  0
  152.2682  136.5009  192.5111 C   0  0  0  0  0  0  0  0  0  0  0  0
  151.9878  137.7695  193.3381 C   0  0  0  0  0  0  0  0  0  0  0  0
  154.7326  135.8925  189.7942 C   0  0  0  0  0  0  0  0  0  0  0  0
  156.0732  135.3734  189.4529 C   0  0  0  0  0  0  0  0  0  0  0  0
  156.0102  135.4882  187.9339 C   0  0  0  0  0  0  0  0  0  0  0  0
  155.2707  136.7911  187.7108 C   0  0  0  0  0  0  0  0  0  0  0  0
  156.2176  137.7093  187.2604 O   0  0  0  0  0  0  0  0  0  0  0  0
  151.3842  132.8301  194.4251 H   0  0  0  0  0  0  0  0  0  0  0  0
  157.0879  137.4781  187.6702 H   0  0  0  0  0  0  0  0  0  0  0  0
  2  1  1  0  0  0
  2  3  1  0  0  0
  3  4  1  0  0  0
  4  5  1  0  0  0
  5  6  1  0  0  0
  6  7  1  0  0  0
  7  8  1  0  0  0
  8  9  1  0  0  0
  9 10  1  0  0  0
 10 11  1  0  0  0
 11 12  1  0  0  0
 11 13  1  0  0  0
 13 14  1  0  0  0
 14 15  1  0  0  0
 15 16  1  0  0  0
  6 17  1  0  0  0
 17 18  1  0  0  0
 18 19  1  0  0  0
 19 20  1  0  0  0
 20 21  1  0  0  0
 17  2  1  0  0  0
 20  2  1  0  0  0
 15  5  1  0  0  0
 15  9  1  0  0  0
 12 22  1  0  0  0
 21 23  1  0  0  0
M  END
> <minimizedAffinity>
-7.09677

> <CNNscore>
0.4715312123

> <CNNaffinity>
4.9087386131

> <CNN_VS>
2.3146233559

> <CNNaffinity_variance>
0.0524468124

$$$$
[H]OC1([H])C([H])([H])C([H])([H])C2([H])C3([H])C([H])([H])C([H])([H])C4([H])C([H])([H])[C@]([H])(O[H])C([H])([H])C([H])([H])[C@]4(C([H])([H])[H])C3([H])C([H])([H])C([H])([H])[C@]12C([H])([H])[H]


 23 26  0  0  0  0  0  0  0  0999 V2000
  158.2803  140.7071  181.2849 C   0  0  0  0  0  0  0  0  0  0  0  0
  157.5979  141.8733  181.9170 C   0  0  0  0  0  0  0  0  0  0  0  0
  158.3871  143.1138  181.6794 C   0  0  0  0  0  0  0  0  0  0  0  0
  159.1626  143.5673  182.9208 C   0  0  0  0  0  0  0  0  0  0  0  0
  159.7531  142.3409  183.6398 C   0  0  0  0  0  0  0  0  0  0  0  0
  158.6756  141.4493  184.1595 C   0  0  0  0  0  0  0  0  0  0  0  0
  158.3551  141.5535  185.6039 C   0  0  0  0  0  0  0  0  0  0  0  0
  159.3729  142.2396  186.4523 C   0  0  0  0  0  0  0  0  0  0  0  0
  160.7170  141.9124  185.8575 C   0  0  0  0  0  0  0  0  0  0  0  0
  161.7672  142.2164  186.8640 C   0  0  0  0  0  0  0  0  0  0  0  0
  161.8405  143.6738  187.1855 C   0  0  0  0  0  0  0  0  0  0  0  0
  160.8395  144.1070  188.0496 O   0  0  0  0  0  0  0  0  0  0  0  0
  161.9526  144.4633  185.9344 C   0  0  0  0  0  0  0  0  0  0  0  0
  160.9419  144.1794  184.8793 C   0  0  0  0  0  0  0  0  0  0  0  0
  160.8405  142.6911  184.5757 C   0  0  0  0  0  0  0  0  0  0  0  0
  162.2243  142.3333  184.0024 C   0  0  0  0  0  0  0  0  0  0  0  0
  157.4351  141.7661  183.4043 C   0  0  0  0  0  0  0  0  0  0  0  0
  156.3031  140.8283  183.5540 C   0  0  0  0  0  0  0  0  0  0  0  0
  155.2981  141.4930  182.6197 C   0  0  0  0  0  0  0  0  0  0  0  0
  156.1549  141.9717  181.4661 C   0  0  0  0  0  0  0  0  0  0  0  0
  155.8726  141.1314  180.3905 O   0  0  0  0  0  0  0  0  0  0  0  0
  160.7164  143.4345  188.7413 H   0  0  0  0  0  0  0  0  0  0  0  0
  155.6473  140.2379  180.7506 H   0  0  0  0  0  0  0  0  0  0  0  0
  2  1  1  0  0  0
  2  3  1  0  0  0
  3  4  1  0  0  0
  4  5  1  0  0  0
  5  6  1  0  0  0
  6  7  1  0  0  0
  7  8  1  0  0  0
  8  9  1  0  0  0
  9 10  1  0  0  0
 10 11  1  0  0  0
 11 12  1  0  0  0
 11 13  1  0  0  0
 13 14  1  0  0  0
 14 15  1  0  0  0
 15 16  1  0  0  0
  6 17  1  0  0  0
 17 18  1  0  0  0
 18 19  1  0  0  0
 19 20  1  0  0  0
 20 21  1  0  0  0
 17  2  1  0  0  0
 20  2  1  0  0  0
 15  5  1  0  0  0
 15  9  1  0  0  0
 12 22  1  0  0  0
 21 23  1  0  0  0
M  END
> <minimizedAffinity>
-5.35566

> <CNNscore>
0.4610663056

> <CNNaffinity>
6.4239792824

> <CNN_VS>
2.9618804455

> <CNNaffinity_variance>
0.4332905412

$$$$
[H]OC1([H])C([H])([H])C([H])([H])C2([H])C3([H])C([H])([H])C([H])([H])C4([H])C([H])([H])[C@]([H])(O[H])C([H])([H])C([H])([H])[C@]4(C([H])([H])[H])C3([H])C([H])([H])C([H])([H])[C@]12C([H])([H])[H]


 23 26  0  0  0  0  0  0  0  0999 V2000
  155.0990  135.9307  188.9239 C   0  0  0  0  0  0  0  0  0  0  0  0
  154.3937  137.1476  189.4206 C   0  0  0  0  0  0  0  0  0  0  0  0
  154.8244  137.4516  190.8136 C   0  0  0  0  0  0  0  0  0  0  0  0
  153.7715  137.0602  191.8560 C   0  0  0  0  0  0  0  0  0  0  0  0
  153.1318  135.7152  191.4670 C   0  0  0  0  0  0  0  0  0  0  0  0
  152.3828  135.8255  190.1813 C   0  0  0  0  0  0  0  0  0  0  0  0
  150.9088  135.9641  190.2717 C   0  0  0  0  0  0  0  0  0  0  0  0
  150.2965  135.6012  191.5831 C   0  0  0  0  0  0  0  0  0  0  0  0
  151.1235  134.4750  192.1447 C   0  0  0  0  0  0  0  0  0  0  0  0
  150.3477  133.8100  193.2237 C   0  0  0  0  0  0  0  0  0  0  0  0
  150.1019  134.7153  194.3869 C   0  0  0  0  0  0  0  0  0  0  0  0
  149.0802  135.6355  194.1733 O   0  0  0  0  0  0  0  0  0  0  0  0
  151.3807  135.3152  194.8406 C   0  0  0  0  0  0  0  0  0  0  0  0
  152.2125  135.9710  193.7949 C   0  0  0  0  0  0  0  0  0  0  0  0
  152.4341  135.0629  192.5933 C   0  0  0  0  0  0  0  0  0  0  0  0
  153.2463  133.8846  193.1624 C   0  0  0  0  0  0  0  0  0  0  0  0
  152.8996  137.0231  189.4684 C   0  0  0  0  0  0  0  0  0  0  0  0
  152.5013  137.1833  188.0545 C   0  0  0  0  0  0  0  0  0  0  0  0
  153.2519  138.4687  187.7239 C   0  0  0  0  0  0  0  0  0  0  0  0
  154.5650  138.3078  188.4616 C   0  0  0  0  0  0  0  0  0  0  0  0
  155.5342  138.0602  187.4910 O   0  0  0  0  0  0  0  0  0  0  0  0
  148.3526  135.1868  193.7095 H   0  0  0  0  0  0  0  0  0  0  0  0
  155.1040  137.5721  186.7458 H   0  0  0  0  0  0  0  0  0  0  0  0
  2  1  1  0  0  0
  2  3  1  0  0  0
  3  4  1  0  0  0
  4  5  1  0  0  0
  5  6  1  0  0  0
  6  7  1  0  0  0
  7  8  1  0  0  0
  8  9  1  0  0  0
  9 10  1  0  0  0
 10 11  1  0  0  0
 11 12  1  0  0  0
 11 13  1  0  0  0
 13 14  1  0  0  0
 14 15  1  0  0  0
 15 16  1  0  0  0
  6 17  1  0  0  0
 17 18  1  0  0  0
 18 19  1  0  0  0
 19 20  1  0  0  0
 20 21  1  0  0  0
 17  2  1  0  0  0
 20  2  1  0  0  0
 15  5  1  0  0  0
 15  9  1  0  0  0
 12 22  1  0  0  0
 21 23  1  0  0  0
M  END
> <minimizedAffinity>
-6.79037

> <CNNscore>
0.4593489766

> <CNNaffinity>
4.8724060059

> <CNN_VS>
2.2381346226

> <CNNaffinity_variance>
0.1137757301

$$$$
[H]OC1([H])C([H])([H])C([H])([H])C2([H])C3([H])C([H])([H])C([H])([H])C4([H])C([H])([H])[C@]([H])(O[H])C([H])([H])C([H])([H])[C@]4(C([H])([H])[H])C3([H])C([H])([H])C([H])([H])[C@]12C([H])([H])[H]


 23 26  0  0  0  0  0  0  0  0999 V2000
  155.5017  136.5812  187.6819 C   0  0  0  0  0  0  0  0  0  0  0  0
  154.4657  137.6339  187.8911 C   0  0  0  0  0  0  0  0  0  0  0  0
  154.7719  138.4101  189.1248 C   0  0  0  0  0  0  0  0  0  0  0  0
  153.8667  138.0303  190.3014 C   0  0  0  0  0  0  0  0  0  0  0  0
  153.6525  136.5060  190.3197 C   0  0  0  0  0  0  0  0  0  0  0  0
  152.9196  136.0493  189.1030 C   0  0  0  0  0  0  0  0  0  0  0  0
  151.4684  135.7818  189.2531 C   0  0  0  0  0  0  0  0  0  0  0  0
  150.9729  135.6258  190.6519 C   0  0  0  0  0  0  0  0  0  0  0  0
  152.0858  134.9754  191.4303 C   0  0  0  0  0  0  0  0  0  0  0  0
  151.5249  134.4323  192.6948 C   0  0  0  0  0  0  0  0  0  0  0  0
  151.0114  135.5079  193.5961 C   0  0  0  0  0  0  0  0  0  0  0  0
  149.7682  136.0069  193.2195 O   0  0  0  0  0  0  0  0  0  0  0  0
  152.0536  136.5457  193.7910 C   0  0  0  0  0  0  0  0  0  0  0  0
  152.6702  137.1050  192.5572 C   0  0  0  0  0  0  0  0  0  0  0  0
  153.1620  136.0097  191.6213 C   0  0  0  0  0  0  0  0  0  0  0  0
  154.2760  135.3092  192.4214 C   0  0  0  0  0  0  0  0  0  0  0  0
  153.0726  137.1071  188.0699 C   0  0  0  0  0  0  0  0  0  0  0  0
  152.6622  136.7617  186.6932 C   0  0  0  0  0  0  0  0  0  0  0  0
  153.0087  138.0693  185.9898 C   0  0  0  0  0  0  0  0  0  0  0  0
  154.3024  138.4929  186.6539 C   0  0  0  0  0  0  0  0  0  0  0  0
  155.3134  138.2801  185.7184 O   0  0  0  0  0  0  0  0  0  0  0  0
  149.2090  135.2624  192.9385 H   0  0  0  0  0  0  0  0  0  0  0  0
  155.0536  137.5084  185.1564 H   0  0  0  0  0  0  0  0  0  0  0  0
  2  1  1  0  0  0
  2  3  1  0  0  0
  3  4  1  0  0  0
  4  5  1  0  0  0
  5  6  1  0  0  0
  6  7  1  0  0  0
  7  8  1  0  0  0
  8  9  1  0  0  0
  9 10  1  0  0  0
 10 11  1  0  0  0
 11 12  1  0  0  0
 11 13  1  0  0  0
 13 14  1  0  0  0
 14 15  1  0  0  0
 15 16  1  0  0  0
  6 17  1  0  0  0
 17 18  1  0  0  0
 18 19  1  0  0  0
 19 20  1  0  0  0
 20 21  1  0  0  0
 17  2  1  0  0  0
 20  2  1  0  0  0
 15  5  1  0  0  0
 15  9  1  0  0  0
 12 22  1  0  0  0
 21 23  1  0  0  0
M  END
> <minimizedAffinity>
-6.27992

> <CNNscore>
0.4497255981

> <CNNaffinity>
4.9762773514

> <CNN_VS>
2.2379593849

> <CNNaffinity_variance>
0.0672461763

$$$$
[H]OC1([H])C([H])([H])C([H])([H])C2([H])C3([H])C([H])([H])C([H])([H])C4([H])C([H])([H])[C@]([H])(O[H])C([H])([H])C([H])([H])[C@]4(C([H])([H])[H])C3([H])C([H])([H])C([H])([H])[C@]12C([H])([H])[H]


 23 26  0  0  0  0  0  0  0  0999 V2000
  154.7067  136.0351  188.9550 C   0  0  0  0  0  0  0  0  0  0  0  0
  155.0671  136.1428  190.3985 C   0  0  0  0  0  0  0  0  0  0  0  0
  155.1984  134.7833  190.9923 C   0  0  0  0  0  0  0  0  0  0  0  0
  153.9974  134.4011  191.8640 C   0  0  0  0  0  0  0  0  0  0  0  0
  152.6976  134.8862  191.1971 C   0  0  0  0  0  0  0  0  0  0  0  0
  152.6575  136.3753  191.1125 C   0  0  0  0  0  0  0  0  0  0  0  0
  151.8451  137.0849  192.1306 C   0  0  0  0  0  0  0  0  0  0  0  0
  150.8633  136.2501  192.8826 C   0  0  0  0  0  0  0  0  0  0  0  0
  150.3725  135.1981  191.9234 C   0  0  0  0  0  0  0  0  0  0  0  0
  149.1240  134.6049  192.4692 C   0  0  0  0  0  0  0  0  0  0  0  0
  149.3570  133.8703  193.7495 C   0  0  0  0  0  0  0  0  0  0  0  0
  149.4853  134.7032  194.8568 O   0  0  0  0  0  0  0  0  0  0  0  0
  150.4668  132.9001  193.5819 C   0  0  0  0  0  0  0  0  0  0  0  0
  151.7337  133.4349  193.0121 C   0  0  0  0  0  0  0  0  0  0  0  0
  151.4938  134.2141  191.7265 C   0  0  0  0  0  0  0  0  0  0  0  0
  150.9530  133.1567  190.7461 C   0  0  0  0  0  0  0  0  0  0  0  0
  154.0555  136.8645  191.2388 C   0  0  0  0  0  0  0  0  0  0  0  0
  154.2986  138.2855  190.9151 C   0  0  0  0  0  0  0  0  0  0  0  0
  155.8060  138.3418  191.1376 C   0  0  0  0  0  0  0  0  0  0  0  0
  156.2910  137.0146  190.5921 C   0  0  0  0  0  0  0  0  0  0  0  0
  156.9419  137.2960  189.3922 O   0  0  0  0  0  0  0  0  0  0  0  0
  148.8259  135.4146  194.7860 H   0  0  0  0  0  0  0  0  0  0  0  0
  156.5056  138.0848  188.9846 H   0  0  0  0  0  0  0  0  0  0  0  0
  2  1  1  0  0  0
  2  3  1  0  0  0
  3  4  1  0  0  0
  4  5  1  0  0  0
  5  6  1  0  0  0
  6  7  1  0  0  0
  7  8  1  0  0  0
  8  9  1  0  0  0
  9 10  1  0  0  0
 10 11  1  0  0  0
 11 12  1  0  0  0
 11 13  1  0  0  0
 13 14  1  0  0  0
 14 15  1  0  0  0
 15 16  1  0  0  0
  6 17  1  0  0  0
 17 18  1  0  0  0
 18 19  1  0  0  0
 19 20  1  0  0  0
 20 21  1  0  0  0
 17  2  1  0  0  0
 20  2  1  0  0  0
 15  5  1  0  0  0
 15  9  1  0  0  0
 12 22  1  0  0  0
 21 23  1  0  0  0
M  END
> <minimizedAffinity>
-6.05922

> <CNNscore>
0.4060308635

> <CNNaffinity>
4.7806820869

> <CNN_VS>
1.9411045313

> <CNNaffinity_variance>
0.0358891860

$$$$
[H]OC(=O)[C@@]([H])(N([H])C(=O)[C@@]1([H])N(C(=O)[C@@]([H])(N([H])[H])C([H])([H])c2c([H])c([H])c(O[H])c([H])c2[H])C([H])([H])C([H])([H])C1([H])[H])C([H])([H])c1c([H])c([H])c(O[H])c([H])c1[H]


 38 40  0  0  0  0  0  0  0  0999 V2000
  157.2604  140.6113  183.7652 C   0  0  0  0  0  0  0  0  0  0  0  0
  156.9360  140.1607  184.9295 O   0  0  0  0  0  0  0  0  0  0  0  0
  156.3168  141.4405  183.1126 N   0  0  0  0  0  0  0  0  0  0  0  0
  156.2844  142.1202  181.8622 C   0  0  0  0  0  0  0  0  0  0  0  0
  155.9258  143.5367  182.3009 C   0  0  0  0  0  0  0  0  0  0  0  0
  154.8548  143.2271  183.3320 C   0  0  0  0  0  0  0  0  0  0  0  0
  155.0124  141.7852  183.7156 C   0  0  0  0  0  0  0  0  0  0  0  0
  158.6340  139.2213  182.2624 N   0  0  0  0  0  0  0  0  0  0  0  0
  158.5728  140.1841  183.3020 C   0  0  0  0  0  0  0  0  0  0  0  0
  158.4388  138.2489  182.4924 H   0  0  0  0  0  0  0  0  0  0  0  0
  158.4578  139.5491  181.3088 H   0  0  0  0  0  0  0  0  0  0  0  0
  159.4776  141.3965  183.0041 C   0  0  0  0  0  0  0  0  0  0  0  0
  160.1753  141.8368  184.2404 C   0  0  0  0  0  0  0  0  0  0  0  0
  159.5083  142.1197  185.4046 C   0  0  0  0  0  0  0  0  0  0  0  0
  160.1781  142.5285  186.5450 C   0  0  0  0  0  0  0  0  0  0  0  0
  161.5482  142.6653  186.5462 C   0  0  0  0  0  0  0  0  0  0  0  0
  162.2518  143.0789  187.6914 O   0  0  0  0  0  0  0  0  0  0  0  0
  162.2210  142.3814  185.3766 C   0  0  0  0  0  0  0  0  0  0  0  0
  161.5616  141.9739  184.2374 C   0  0  0  0  0  0  0  0  0  0  0  0
  162.5630  142.3532  188.3164 H   0  0  0  0  0  0  0  0  0  0  0  0
  153.9826  140.8803  183.1862 C   0  0  0  0  0  0  0  0  0  0  0  0
  153.1787  141.2905  182.3231 O   0  0  0  0  0  0  0  0  0  0  0  0
  153.8709  139.5384  183.6301 N   0  0  0  0  0  0  0  0  0  0  0  0
  154.5423  139.1872  184.3545 H   0  0  0  0  0  0  0  0  0  0  0  0
  152.8770  138.6125  183.1404 C   0  0  0  0  0  0  0  0  0  0  0  0
  152.7676  137.3813  183.9223 C   0  0  0  0  0  0  0  0  0  0  0  0
  152.1941  137.4264  185.1711 O   0  0  0  0  0  0  0  0  0  0  0  0
  153.1738  136.2536  183.5211 O   0  0  0  0  0  0  0  0  0  0  0  0
  152.1078  136.6701  185.8139 H   0  0  0  0  0  0  0  0  0  0  0  0
  153.0260  138.3491  181.6624 C   0  0  0  0  0  0  0  0  0  0  0  0
  151.7666  138.3754  180.9123 C   0  0  0  0  0  0  0  0  0  0  0  0
  151.5854  139.3114  179.9208 C   0  0  0  0  0  0  0  0  0  0  0  0
  150.3951  139.3663  179.1869 C   0  0  0  0  0  0  0  0  0  0  0  0
  149.3636  138.4852  179.4315 C   0  0  0  0  0  0  0  0  0  0  0  0
  148.1866  138.5529  178.6932 O   0  0  0  0  0  0  0  0  0  0  0  0
  149.5573  137.5519  180.4272 C   0  0  0  0  0  0  0  0  0  0  0  0
  150.7234  137.4916  181.1524 C   0  0  0  0  0  0  0  0  0  0  0  0
  147.4613  139.1672  179.0891 H   0  0  0  0  0  0  0  0  0  0  0  0
  8  9  1  0  0  0
  9 12  1  0  0  0
 12 13  1  0  0  0
 13 14  2  0  0  0
 14 15  1  0  0  0
 15 16  2  0  0  0
 16 17  1  0  0  0
 16 18  1  0  0  0
 18 19  2  0  0  0
  9  1  1  0  0  0
  1  2  2  0  0  0
  1  3  1  0  0  0
  3  4  1  0  0  0
  4  5  1  0  0  0
  5  6  1  0  0  0
  6  7  1  0  0  0
  7 21  1  0  0  0
 21 22  2  0  0  0
 21 23  1  0  0  0
 23 25  1  0  0  0
 25 30  1  0  0  0
 30 31  1  0  0  0
 31 32  2  0  0  0
 32 33  1  0  0  0
 33 34  2  0  0  0
 34 35  1  0  0  0
 34 36  1  0  0  0
 36 37  2  0  0  0
 25 26  1  0  0  0
 26 27  1  0  0  0
 26 28  2  0  0  0
 19 13  1  0  0  0
  7  3  1  0  0  0
 37 31  1  0  0  0
  8 10  1  0  0  0
  8 11  1  0  0  0
 17 20  1  0  0  0
 23 24  1  0  0  0
 35 38  1  0  0  0
 27 29  1  0  0  0
M  END
> <minimizedAffinity>
-9.31166

> <CNNscore>
0.4657563269

> <CNNaffinity>
6.1839056015

> <CNN_VS>
2.8801932335

> <CNNaffinity_variance>
0.0268464833

$$$$
[H]OC(=O)[C@@]([H])(N([H])C(=O)[C@@]1([H])N(C(=O)[C@@]([H])(N([H])[H])C([H])([H])c2c([H])c([H])c(O[H])c([H])c2[H])C([H])([H])C([H])([H])C1([H])[H])C([H])([H])c1c([H])c([H])c(O[H])c([H])c1[H]


 38 40  0  0  0  0  0  0  0  0999 V2000
  153.6464  137.8677  184.3640 C   0  0  0  0  0  0  0  0  0  0  0  0
  154.2473  138.9795  184.1059 O   0  0  0  0  0  0  0  0  0  0  0  0
  153.4351  137.5544  185.7282 N   0  0  0  0  0  0  0  0  0  0  0  0
  152.8316  136.4654  186.4184 C   0  0  0  0  0  0  0  0  0  0  0  0
  151.8543  137.1961  187.3340 C   0  0  0  0  0  0  0  0  0  0  0  0
  152.7358  138.3440  187.7934 C   0  0  0  0  0  0  0  0  0  0  0  0
  153.8765  138.4425  186.8238 C   0  0  0  0  0  0  0  0  0  0  0  0
  153.7177  135.7547  183.0960 N   0  0  0  0  0  0  0  0  0  0  0  0
  153.2755  137.0994  183.1843 C   0  0  0  0  0  0  0  0  0  0  0  0
  154.6922  135.5813  182.8579 H   0  0  0  0  0  0  0  0  0  0  0  0
  153.2119  135.0576  183.6493 H   0  0  0  0  0  0  0  0  0  0  0  0
  151.7653  137.2182  182.8972 C   0  0  0  0  0  0  0  0  0  0  0  0
  151.5312  138.0822  181.7106 C   0  0  0  0  0  0  0  0  0  0  0  0
  152.4038  139.0697  181.3318 C   0  0  0  0  0  0  0  0  0  0  0  0
  152.1662  139.8632  180.2226 C   0  0  0  0  0  0  0  0  0  0  0  0
  151.0354  139.6841  179.4576 C   0  0  0  0  0  0  0  0  0  0  0  0
  150.7713  140.4769  178.3266 O   0  0  0  0  0  0  0  0  0  0  0  0
  150.1566  138.6917  179.8368 C   0  0  0  0  0  0  0  0  0  0  0  0
  150.3859  137.8977  180.9394 C   0  0  0  0  0  0  0  0  0  0  0  0
  151.1293  140.1417  177.4470 H   0  0  0  0  0  0  0  0  0  0  0  0
  155.1728  137.9727  187.3323 C   0  0  0  0  0  0  0  0  0  0  0  0
  156.2012  138.1151  186.6385 O   0  0  0  0  0  0  0  0  0  0  0  0
  155.2948  137.3544  188.6024 N   0  0  0  0  0  0  0  0  0  0  0  0
  154.4357  137.2315  189.1902 H   0  0  0  0  0  0  0  0  0  0  0  0
  156.5451  136.8770  189.1444 C   0  0  0  0  0  0  0  0  0  0  0  0
  156.9296  135.5442  188.6809 C   0  0  0  0  0  0  0  0  0  0  0  0
  155.9500  134.6466  188.3271 O   0  0  0  0  0  0  0  0  0  0  0  0
  158.1268  135.1511  188.5815 O   0  0  0  0  0  0  0  0  0  0  0  0
  156.0836  133.7004  188.0452 H   0  0  0  0  0  0  0  0  0  0  0  0
  156.5986  137.0060  190.6466 C   0  0  0  0  0  0  0  0  0  0  0  0
  155.3154  136.7834  191.3200 C   0  0  0  0  0  0  0  0  0  0  0  0
  155.0176  135.5373  191.8208 C   0  0  0  0  0  0  0  0  0  0  0  0
  153.8013  135.2894  192.4669 C   0  0  0  0  0  0  0  0  0  0  0  0
  152.8600  136.2840  192.6242 C   0  0  0  0  0  0  0  0  0  0  0  0
  151.6557  136.0214  193.2688 O   0  0  0  0  0  0  0  0  0  0  0  0
  153.1701  137.5282  192.1183 C   0  0  0  0  0  0  0  0  0  0  0  0
  154.3625  137.7796  191.4824 C   0  0  0  0  0  0  0  0  0  0  0  0
  150.8945  135.7037  192.6527 H   0  0  0  0  0  0  0  0  0  0  0  0
  8  9  1  0  0  0
  9 12  1  0  0  0
 12 13  1  0  0  0
 13 14  2  0  0  0
 14 15  1  0  0  0
 15 16  2  0  0  0
 16 17  1  0  0  0
 16 18  1  0  0  0
 18 19  2  0  0  0
  9  1  1  0  0  0
  1  2  2  0  0  0
  1  3  1  0  0  0
  3  4  1  0  0  0
  4  5  1  0  0  0
  5  6  1  0  0  0
  6  7  1  0  0  0
  7 21  1  0  0  0
 21 22  2  0  0  0
 21 23  1  0  0  0
 23 25  1  0  0  0
 25 30  1  0  0  0
 30 31  1  0  0  0
 31 32  2  0  0  0
 32 33  1  0  0  0
 33 34  2  0  0  0
 34 35  1  0  0  0
 34 36  1  0  0  0
 36 37  2  0  0  0
 25 26  1  0  0  0
 26 27  1  0  0  0
 26 28  2  0  0  0
 19 13  1  0  0  0
  7  3  1  0  0  0
 37 31  1  0  0  0
  8 10  1  0  0  0
  8 11  1  0  0  0
 17 20  1  0  0  0
 23 24  1  0  0  0
 35 38  1  0  0  0
 27 29  1  0  0  0
M  END
> <minimizedAffinity>
-6.91474

> <CNNscore>
0.2376117855

> <CNNaffinity>
4.9738407135

> <CNN_VS>
1.1818431616

> <CNNaffinity_variance>
0.1212226897

$$$$
[H]OC(=O)[C@@]([H])(N([H])C(=O)[C@@]1([H])N(C(=O)[C@@]([H])(N([H])[H])C([H])([H])c2c([H])c([H])c(O[H])c([H])c2[H])C([H])([H])C([H])([H])C1([H])[H])C([H])([H])c1c([H])c([H])c(O[H])c([H])c1[H]


 38 40  0  0  0  0  0  0  0  0999 V2000
  157.0051  140.3320  183.8347 C   0  0  0  0  0  0  0  0  0  0  0  0
  156.7332  139.8149  184.9847 O   0  0  0  0  0  0  0  0  0  0  0  0
  155.9532  141.0069  183.1700 N   0  0  0  0  0  0  0  0  0  0  0  0
  155.8376  141.6932  181.9282 C   0  0  0  0  0  0  0  0  0  0  0  0
  155.2423  143.0245  182.3765 C   0  0  0  0  0  0  0  0  0  0  0  0
  154.2140  142.5267  183.3767 C   0  0  0  0  0  0  0  0  0  0  0  0
  154.5969  141.1237  183.7452 C   0  0  0  0  0  0  0  0  0  0  0  0
  158.6199  139.2158  182.3434 N   0  0  0  0  0  0  0  0  0  0  0  0
  158.3796  140.1328  183.3983 C   0  0  0  0  0  0  0  0  0  0  0  0
  158.5796  138.2198  182.5507 H   0  0  0  0  0  0  0  0  0  0  0  0
  158.4148  139.5319  181.3916 H   0  0  0  0  0  0  0  0  0  0  0  0
  159.0826  141.4818  183.1462 C   0  0  0  0  0  0  0  0  0  0  0  0
  159.8759  141.8818  184.3378 C   0  0  0  0  0  0  0  0  0  0  0  0
  159.3048  142.1096  185.5634 C   0  0  0  0  0  0  0  0  0  0  0  0
  160.0627  142.4816  186.6605 C   0  0  0  0  0  0  0  0  0  0  0  0
  161.4269  142.6361  186.5544 C   0  0  0  0  0  0  0  0  0  0  0  0
  162.2187  143.0131  187.6537 O   0  0  0  0  0  0  0  0  0  0  0  0
  162.0032  142.4075  185.3229 C   0  0  0  0  0  0  0  0  0  0  0  0
  161.2558  142.0370  184.2262 C   0  0  0  0  0  0  0  0  0  0  0  0
  162.5877  142.2673  188.2210 H   0  0  0  0  0  0  0  0  0  0  0  0
  153.7411  140.0718  183.1789 C   0  0  0  0  0  0  0  0  0  0  0  0
  153.9677  138.8738  183.4485 O   0  0  0  0  0  0  0  0  0  0  0  0
  152.6517  140.3777  182.3244 N   0  0  0  0  0  0  0  0  0  0  0  0
  152.4556  141.3813  182.0937 H   0  0  0  0  0  0  0  0  0  0  0  0
  151.7837  139.3803  181.7443 C   0  0  0  0  0  0  0  0  0  0  0  0
  152.4597  138.4491  180.8415 C   0  0  0  0  0  0  0  0  0  0  0  0
  152.6921  137.1591  181.2565 O   0  0  0  0  0  0  0  0  0  0  0  0
  152.8548  138.7551  179.6804 O   0  0  0  0  0  0  0  0  0  0  0  0
  153.1829  136.4519  180.7549 H   0  0  0  0  0  0  0  0  0  0  0  0
  150.5491  139.9911  181.1288 C   0  0  0  0  0  0  0  0  0  0  0  0
  149.5896  139.0163  180.6009 C   0  0  0  0  0  0  0  0  0  0  0  0
  148.9028  138.1997  181.4691 C   0  0  0  0  0  0  0  0  0  0  0  0
  147.9817  137.2569  180.9993 C   0  0  0  0  0  0  0  0  0  0  0  0
  147.7303  137.1134  179.6516 C   0  0  0  0  0  0  0  0  0  0  0  0
  146.8116  136.1714  179.2005 O   0  0  0  0  0  0  0  0  0  0  0  0
  148.4245  137.9374  178.7918 C   0  0  0  0  0  0  0  0  0  0  0  0
  149.3309  138.8659  179.2454 C   0  0  0  0  0  0  0  0  0  0  0  0
  147.2066  135.2419  179.0005 H   0  0  0  0  0  0  0  0  0  0  0  0
  8  9  1  0  0  0
  9 12  1  0  0  0
 12 13  1  0  0  0
 13 14  2  0  0  0
 14 15  1  0  0  0
 15 16  2  0  0  0
 16 17  1  0  0  0
 16 18  1  0  0  0
 18 19  2  0  0  0
  9  1  1  0  0  0
  1  2  2  0  0  0
  1  3  1  0  0  0
  3  4  1  0  0  0
  4  5  1  0  0  0
  5  6  1  0  0  0
  6  7  1  0  0  0
  7 21  1  0  0  0
 21 22  2  0  0  0
 21 23  1  0  0  0
 23 25  1  0  0  0
 25 30  1  0  0  0
 30 31  1  0  0  0
 31 32  2  0  0  0
 32 33  1  0  0  0
 33 34  2  0  0  0
 34 35  1  0  0  0
 34 36  1  0  0  0
 36 37  2  0  0  0
 25 26  1  0  0  0
 26 27  1  0  0  0
 26 28  2  0  0  0
 19 13  1  0  0  0
  7  3  1  0  0  0
 37 31  1  0  0  0
  8 10  1  0  0  0
  8 11  1  0  0  0
 17 20  1  0  0  0
 23 24  1  0  0  0
 35 38  1  0  0  0
 27 29  1  0  0  0
M  END
> <minimizedAffinity>
-8.85847

> <CNNscore>
0.2368713170

> <CNNaffinity>
5.6779336929

> <CNN_VS>
1.3449395895

> <CNNaffinity_variance>
0.0029683863

$$$$
[H]OC(=O)[C@@]([H])(N([H])C(=O)[C@@]1([H])N(C(=O)[C@@]([H])(N([H])[H])C([H])([H])c2c([H])c([H])c(O[H])c([H])c2[H])C([H])([H])C([H])([H])C1([H])[H])C([H])([H])c1c([H])c([H])c(O[H])c([H])c1[H]


 38 40  0  0  0  0  0  0  0  0999 V2000
  153.4689  136.5538  183.6168 C   0  0  0  0  0  0  0  0  0  0  0  0
  152.8783  137.3703  182.8114 O   0  0  0  0  0  0  0  0  0  0  0  0
  153.8943  137.0763  184.8617 N   0  0  0  0  0  0  0  0  0  0  0  0
  154.5601  136.5311  185.9957 C   0  0  0  0  0  0  0  0  0  0  0  0
  153.6238  136.9532  187.1239 C   0  0  0  0  0  0  0  0  0  0  0  0
  153.3229  138.3781  186.6937 C   0  0  0  0  0  0  0  0  0  0  0  0
  153.6859  138.4890  185.2422 C   0  0  0  0  0  0  0  0  0  0  0  0
  152.9615  134.1489  183.8070 N   0  0  0  0  0  0  0  0  0  0  0  0
  153.6046  135.1986  183.1027 C   0  0  0  0  0  0  0  0  0  0  0  0
  153.3803  133.8225  184.6757 H   0  0  0  0  0  0  0  0  0  0  0  0
  151.9517  134.0457  183.6751 H   0  0  0  0  0  0  0  0  0  0  0  0
  153.2902  135.1434  181.5943 C   0  0  0  0  0  0  0  0  0  0  0  0
  154.0777  134.0650  180.9413 C   0  0  0  0  0  0  0  0  0  0  0  0
  155.4482  134.0319  180.9667 C   0  0  0  0  0  0  0  0  0  0  0  0
  156.1621  133.0177  180.3516 C   0  0  0  0  0  0  0  0  0  0  0  0
  155.5122  132.0008  179.6887 C   0  0  0  0  0  0  0  0  0  0  0  0
  156.2144  130.9595  179.0561 O   0  0  0  0  0  0  0  0  0  0  0  0
  154.1340  132.0323  179.6619 C   0  0  0  0  0  0  0  0  0  0  0  0
  153.4162  133.0381  180.2716 C   0  0  0  0  0  0  0  0  0  0  0  0
  156.4139  130.1455  179.6144 H   0  0  0  0  0  0  0  0  0  0  0  0
  154.9110  139.2499  184.9596 C   0  0  0  0  0  0  0  0  0  0  0  0
  155.9089  139.1185  185.6986 O   0  0  0  0  0  0  0  0  0  0  0  0
  154.9972  140.1407  183.8599 N   0  0  0  0  0  0  0  0  0  0  0  0
  154.1634  140.2562  183.2353 H   0  0  0  0  0  0  0  0  0  0  0  0
  156.1775  140.9093  183.5419 C   0  0  0  0  0  0  0  0  0  0  0  0
  156.0921  141.6452  182.2808 C   0  0  0  0  0  0  0  0  0  0  0  0
  156.7459  141.1595  181.1732 O   0  0  0  0  0  0  0  0  0  0  0  0
  155.4451  142.7214  182.1356 O   0  0  0  0  0  0  0  0  0  0  0  0
  156.8025  141.5930  180.2779 H   0  0  0  0  0  0  0  0  0  0  0  0
  157.4370  140.0855  183.6481 C   0  0  0  0  0  0  0  0  0  0  0  0
  158.5951  140.8143  184.1744 C   0  0  0  0  0  0  0  0  0  0  0  0
  159.7475  140.8901  183.4271 C   0  0  0  0  0  0  0  0  0  0  0  0
  160.8722  141.5755  183.9000 C   0  0  0  0  0  0  0  0  0  0  0  0
  160.8648  142.1981  185.1298 C   0  0  0  0  0  0  0  0  0  0  0  0
  161.9911  142.8753  185.5857 O   0  0  0  0  0  0  0  0  0  0  0  0
  159.7043  142.1151  185.8691 C   0  0  0  0  0  0  0  0  0  0  0  0
  158.5955  141.4439  185.4116 C   0  0  0  0  0  0  0  0  0  0  0  0
  162.6525  142.3013  186.1272 H   0  0  0  0  0  0  0  0  0  0  0  0
  8  9  1  0  0  0
  9 12  1  0  0  0
 12 13  1  0  0  0
 13 14  2  0  0  0
 14 15  1  0  0  0
 15 16  2  0  0  0
 16 17  1  0  0  0
 16 18  1  0  0  0
 18 19  2  0  0  0
  9  1  1  0  0  0
  1  2  2  0  0  0
  1  3  1  0  0  0
  3  4  1  0  0  0
  4  5  1  0  0  0
  5  6  1  0  0  0
  6  7  1  0  0  0
  7 21  1  0  0  0
 21 22  2  0  0  0
 21 23  1  0  0  0
 23 25  1  0  0  0
 25 30  1  0  0  0
 30 31  1  0  0  0
 31 32  2  0  0  0
 32 33  1  0  0  0
 33 34  2  0  0  0
 34 35  1  0  0  0
 34 36  1  0  0  0
 36 37  2  0  0  0
 25 26  1  0  0  0
 26 27  1  0  0  0
 26 28  2  0  0  0
 19 13  1  0  0  0
  7  3  1  0  0  0
 37 31  1  0  0  0
  8 10  1  0  0  0
  8 11  1  0  0  0
 17 20  1  0  0  0
 23 24  1  0  0  0
 35 38  1  0  0  0
 27 29  1  0  0  0
M  END
> <minimizedAffinity>
-7.17726

> <CNNscore>
0.2336041480

> <CNNaffinity>
5.5064682961

> <CNN_VS>
1.2863337994

> <CNNaffinity_variance>
0.0191752855

$$$$
[H]OC(=O)[C@@]([H])(N([H])C(=O)[C@@]1([H])N(C(=O)[C@@]([H])(N([H])[H])C([H])([H])c2c([H])c([H])c(O[H])c([H])c2[H])C([H])([H])C([H])([H])C1([H])[H])C([H])([H])c1c([H])c([H])c(O[H])c([H])c1[H]


 38 40  0  0  0  0  0  0  0  0999 V2000
  155.8590  135.1731  189.6884 C   0  0  0  0  0  0  0  0  0  0  0  0
  154.8022  134.4431  189.8070 O   0  0  0  0  0  0  0  0  0  0  0  0
  155.6820  136.5754  189.7674 N   0  0  0  0  0  0  0  0  0  0  0  0
  156.5566  137.6958  189.6899 C   0  0  0  0  0  0  0  0  0  0  0  0
  156.1873  138.4523  190.9622 C   0  0  0  0  0  0  0  0  0  0  0  0
  154.6752  138.3219  190.9135 C   0  0  0  0  0  0  0  0  0  0  0  0
  154.3573  137.1976  189.9723 C   0  0  0  0  0  0  0  0  0  0  0  0
  157.0638  133.0228  189.7337 N   0  0  0  0  0  0  0  0  0  0  0  0
  157.0883  134.4194  189.4881 C   0  0  0  0  0  0  0  0  0  0  0  0
  157.0675  132.7022  190.6999 H   0  0  0  0  0  0  0  0  0  0  0  0
  156.6396  132.4281  189.0165 H   0  0  0  0  0  0  0  0  0  0  0  0
  157.7198  134.7420  188.1190 C   0  0  0  0  0  0  0  0  0  0  0  0
  157.1320  133.8778  187.0621 C   0  0  0  0  0  0  0  0  0  0  0  0
  155.9021  134.1219  186.5072 C   0  0  0  0  0  0  0  0  0  0  0  0
  155.3733  133.3038  185.5237 C   0  0  0  0  0  0  0  0  0  0  0  0
  156.0723  132.2086  185.0674 C   0  0  0  0  0  0  0  0  0  0  0  0
  155.5570  131.3624  184.0695 O   0  0  0  0  0  0  0  0  0  0  0  0
  157.3092  131.9613  185.6241 C   0  0  0  0  0  0  0  0  0  0  0  0
  157.8425  132.7708  186.6034 C   0  0  0  0  0  0  0  0  0  0  0  0
  155.7786  131.6013  183.1166 H   0  0  0  0  0  0  0  0  0  0  0  0
  153.8103  137.6062  188.6710 C   0  0  0  0  0  0  0  0  0  0  0  0
  153.6120  138.8157  188.4320 O   0  0  0  0  0  0  0  0  0  0  0  0
  153.4961  136.6582  187.6646 N   0  0  0  0  0  0  0  0  0  0  0  0
  153.6598  135.6411  187.8582 H   0  0  0  0  0  0  0  0  0  0  0  0
  152.9573  137.0105  186.3721 C   0  0  0  0  0  0  0  0  0  0  0  0
  151.7594  136.2599  185.9969 C   0  0  0  0  0  0  0  0  0  0  0  0
  150.5958  136.9409  185.7277 O   0  0  0  0  0  0  0  0  0  0  0  0
  151.7186  135.0000  185.9018 O   0  0  0  0  0  0  0  0  0  0  0  0
  149.7091  136.5416  185.5112 H   0  0  0  0  0  0  0  0  0  0  0  0
  154.0125  136.9947  185.2939 C   0  0  0  0  0  0  0  0  0  0  0  0
  154.0356  138.1942  184.4511 C   0  0  0  0  0  0  0  0  0  0  0  0
  154.9292  139.2026  184.7282 C   0  0  0  0  0  0  0  0  0  0  0  0
  154.9767  140.3619  183.9460 C   0  0  0  0  0  0  0  0  0  0  0  0
  154.1307  140.5340  182.8713 C   0  0  0  0  0  0  0  0  0  0  0  0
  154.1903  141.6923  182.1035 O   0  0  0  0  0  0  0  0  0  0  0  0
  153.2400  139.5165  182.6037 C   0  0  0  0  0  0  0  0  0  0  0  0
  153.1872  138.3748  183.3673 C   0  0  0  0  0  0  0  0  0  0  0  0
  153.5796  142.4568  182.4241 H   0  0  0  0  0  0  0  0  0  0  0  0
  8  9  1  0  0  0
  9 12  1  0  0  0
 12 13  1  0  0  0
 13 14  2  0  0  0
 14 15  1  0  0  0
 15 16  2  0  0  0
 16 17  1  0  0  0
 16 18  1  0  0  0
 18 19  2  0  0  0
  9  1  1  0  0  0
  1  2  2  0  0  0
  1  3  1  0  0  0
  3  4  1  0  0  0
  4  5  1  0  0  0
  5  6  1  0  0  0
  6  7  1  0  0  0
  7 21  1  0  0  0
 21 22  2  0  0  0
 21 23  1  0  0  0
 23 25  1  0  0  0
 25 30  1  0  0  0
 30 31  1  0  0  0
 31 32  2  0  0  0
 32 33  1  0  0  0
 33 34  2  0  0  0
 34 35  1  0  0  0
 34 36  1  0  0  0
 36 37  2  0  0  0
 25 26  1  0  0  0
 26 27  1  0  0  0
 26 28  2  0  0  0
 19 13  1  0  0  0
  7  3  1  0  0  0
 37 31  1  0  0  0
  8 10  1  0  0  0
  8 11  1  0  0  0
 17 20  1  0  0  0
 23 24  1  0  0  0
 35 38  1  0  0  0
 27 29  1  0  0  0
M  END
> <minimizedAffinity>
-5.93198

> <CNNscore>
0.2110382169

> <CNNaffinity>
4.9884343147

> <CNN_VS>
1.0527502298

> <CNNaffinity_variance>
0.0979802981

$$$$
[H]OC(=O)[C@@]([H])(N([H])C(=O)[C@@]1([H])N(C(=O)[C@@]([H])(N([H])[H])C([H])([H])c2c([H])c([H])c(O[H])c([H])c2[H])C([H])([H])C([H])([H])C1([H])[H])C([H])([H])c1c([H])c([H])c(O[H])c([H])c1[H]


 38 40  0  0  0  0  0  0  0  0999 V2000
  156.9591  140.4185  183.7867 C   0  0  0  0  0  0  0  0  0  0  0  0
  156.4887  139.7371  184.7758 O   0  0  0  0  0  0  0  0  0  0  0  0
  156.0404  141.2157  183.0626 N   0  0  0  0  0  0  0  0  0  0  0  0
  156.1454  142.0886  181.9430 C   0  0  0  0  0  0  0  0  0  0  0  0
  155.4786  143.3499  182.4835 C   0  0  0  0  0  0  0  0  0  0  0  0
  154.2902  142.7309  183.1978 C   0  0  0  0  0  0  0  0  0  0  0  0
  154.6037  141.2781  183.4028 C   0  0  0  0  0  0  0  0  0  0  0  0
  158.8154  139.2898  182.6215 N   0  0  0  0  0  0  0  0  0  0  0  0
  158.3894  140.2527  183.5716 C   0  0  0  0  0  0  0  0  0  0  0  0
  158.7771  138.3060  182.8804 H   0  0  0  0  0  0  0  0  0  0  0  0
  158.7454  139.5443  181.6324 H   0  0  0  0  0  0  0  0  0  0  0  0
  159.0776  141.6138  183.3452 C   0  0  0  0  0  0  0  0  0  0  0  0
  159.9012  141.9795  184.5272 C   0  0  0  0  0  0  0  0  0  0  0  0
  159.3663  142.1399  185.7795 C   0  0  0  0  0  0  0  0  0  0  0  0
  160.1520  142.4809  186.8671 C   0  0  0  0  0  0  0  0  0  0  0  0
  161.5082  142.6716  186.7241 C   0  0  0  0  0  0  0  0  0  0  0  0
  162.3278  143.0184  187.8129 O   0  0  0  0  0  0  0  0  0  0  0  0
  162.0481  142.5109  185.4656 C   0  0  0  0  0  0  0  0  0  0  0  0
  161.2729  142.1715  184.3782 C   0  0  0  0  0  0  0  0  0  0  0  0
  162.7316  142.2572  188.3342 H   0  0  0  0  0  0  0  0  0  0  0  0
  153.8628  140.3495  182.5376 C   0  0  0  0  0  0  0  0  0  0  0  0
  153.7066  140.6174  181.3280 O   0  0  0  0  0  0  0  0  0  0  0  0
  153.3120  139.1431  183.0392 N   0  0  0  0  0  0  0  0  0  0  0  0
  153.4391  138.9118  184.0536 H   0  0  0  0  0  0  0  0  0  0  0  0
  152.5771  138.2003  182.2294 C   0  0  0  0  0  0  0  0  0  0  0  0
  151.4252  138.7757  181.5357 C   0  0  0  0  0  0  0  0  0  0  0  0
  151.5159  139.0453  180.1906 O   0  0  0  0  0  0  0  0  0  0  0  0
  150.3276  139.0494  182.1000 O   0  0  0  0  0  0  0  0  0  0  0  0
  150.8218  139.4789  179.6225 H   0  0  0  0  0  0  0  0  0  0  0  0
  152.2269  136.9476  182.9937 C   0  0  0  0  0  0  0  0  0  0  0  0
  153.1115  135.8089  182.7288 C   0  0  0  0  0  0  0  0  0  0  0  0
  153.9498  135.3542  183.7201 C   0  0  0  0  0  0  0  0  0  0  0  0
  154.8087  134.2714  183.5006 C   0  0  0  0  0  0  0  0  0  0  0  0
  154.8448  133.6230  182.2847 C   0  0  0  0  0  0  0  0  0  0  0  0
  155.7043  132.5482  182.0823 O   0  0  0  0  0  0  0  0  0  0  0  0
  154.0001  134.0878  181.2995 C   0  0  0  0  0  0  0  0  0  0  0  0
  153.1536  135.1507  181.5073 C   0  0  0  0  0  0  0  0  0  0  0  0
  156.6368  132.8000  181.7260 H   0  0  0  0  0  0  0  0  0  0  0  0
  8  9  1  0  0  0
  9 12  1  0  0  0
 12 13  1  0  0  0
 13 14  2  0  0  0
 14 15  1  0  0  0
 15 16  2  0  0  0
 16 17  1  0  0  0
 16 18  1  0  0  0
 18 19  2  0  0  0
  9  1  1  0  0  0
  1  2  2  0  0  0
  1  3  1  0  0  0
  3  4  1  0  0  0
  4  5  1  0  0  0
  5  6  1  0  0  0
  6  7  1  0  0  0
  7 21  1  0  0  0
 21 22  2  0  0  0
 21 23  1  0  0  0
 23 25  1  0  0  0
 25 30  1  0  0  0
 30 31  1  0  0  0
 31 32  2  0  0  0
 32 33  1  0  0  0
 33 34  2  0  0  0
 34 35  1  0  0  0
 34 36  1  0  0  0
 36 37  2  0  0  0
 25 26  1  0  0  0
 26 27  1  0  0  0
 26 28  2  0  0  0
 19 13  1  0  0  0
  7  3  1  0  0  0
 37 31  1  0  0  0
  8 10  1  0  0  0
  8 11  1  0  0  0
 17 20  1  0  0  0
 23 24  1  0  0  0
 35 38  1  0  0  0
 27 29  1  0  0  0
M  END
> <minimizedAffinity>
-8.96648

> <CNNscore>
0.1936247200

> <CNNaffinity>
5.9063048363

> <CNN_VS>
1.1436066628

> <CNNaffinity_variance>
0.0304516293

$$$$
[H]OC(=O)[C@@]([H])(N([H])C(=O)[C@@]1([H])N(C(=O)[C@@]([H])(N([H])[H])C([H])([H])c2c([H])c([H])c(O[H])c([H])c2[H])C([H])([H])C([H])([H])C1([H])[H])C([H])([H])c1c([H])c([H])c(O[H])c([H])c1[H]


 38 40  0  0  0  0  0  0  0  0999 V2000
  157.2676  140.5269  183.2642 C   0  0  0  0  0  0  0  0  0  0  0  0
  157.2429  139.9923  184.4379 O   0  0  0  0  0  0  0  0  0  0  0  0
  156.1534  141.3189  182.8966 N   0  0  0  0  0  0  0  0  0  0  0  0
  155.7982  142.0603  181.7344 C   0  0  0  0  0  0  0  0  0  0  0  0
  155.4658  143.4214  182.3379 C   0  0  0  0  0  0  0  0  0  0  0  0
  154.6768  142.9801  183.5580 C   0  0  0  0  0  0  0  0  0  0  0  0
  155.0019  141.5351  183.7971 C   0  0  0  0  0  0  0  0  0  0  0  0
  158.5631  138.9402  181.8925 N   0  0  0  0  0  0  0  0  0  0  0  0
  158.4635  140.2216  182.4920 C   0  0  0  0  0  0  0  0  0  0  0  0
  158.7881  138.1450  182.4870 H   0  0  0  0  0  0  0  0  0  0  0  0
  158.0276  138.7810  181.0347 H   0  0  0  0  0  0  0  0  0  0  0  0
  158.7729  141.3445  181.4817 C   0  0  0  0  0  0  0  0  0  0  0  0
  159.2324  142.5667  182.1919 C   0  0  0  0  0  0  0  0  0  0  0  0
  159.9371  142.5175  183.3671 C   0  0  0  0  0  0  0  0  0  0  0  0
  160.3556  143.6686  184.0123 C   0  0  0  0  0  0  0  0  0  0  0  0
  160.0746  144.9110  183.4892 C   0  0  0  0  0  0  0  0  0  0  0  0
  160.4884  146.0949  184.1252 O   0  0  0  0  0  0  0  0  0  0  0  0
  159.3660  144.9627  182.3076 C   0  0  0  0  0  0  0  0  0  0  0  0
  158.9460  143.8216  181.6593 C   0  0  0  0  0  0  0  0  0  0  0  0
  161.3927  146.4542  183.8656 H   0  0  0  0  0  0  0  0  0  0  0  0
  153.9339  140.5872  183.4498 C   0  0  0  0  0  0  0  0  0  0  0  0
  152.9774  140.9614  182.7396 O   0  0  0  0  0  0  0  0  0  0  0  0
  153.9549  139.2434  183.9016 N   0  0  0  0  0  0  0  0  0  0  0  0
  154.7547  138.9224  184.4983 H   0  0  0  0  0  0  0  0  0  0  0  0
  152.9300  138.2762  183.5872 C   0  0  0  0  0  0  0  0  0  0  0  0
  152.7515  137.2398  184.6036 C   0  0  0  0  0  0  0  0  0  0  0  0
  151.7587  136.3027  184.4415 O   0  0  0  0  0  0  0  0  0  0  0  0
  153.4622  137.1442  185.6446 O   0  0  0  0  0  0  0  0  0  0  0  0
  151.5092  135.5828  185.0835 H   0  0  0  0  0  0  0  0  0  0  0  0
  153.0943  137.7056  182.2002 C   0  0  0  0  0  0  0  0  0  0  0  0
  151.9785  137.9887  181.2924 C   0  0  0  0  0  0  0  0  0  0  0  0
  150.8549  137.1960  181.3283 C   0  0  0  0  0  0  0  0  0  0  0  0
  149.7727  137.4364  180.4744 C   0  0  0  0  0  0  0  0  0  0  0  0
  149.7944  138.4750  179.5683 C   0  0  0  0  0  0  0  0  0  0  0  0
  148.7104  138.7008  178.7263 O   0  0  0  0  0  0  0  0  0  0  0  0
  150.9256  139.2623  179.5420 C   0  0  0  0  0  0  0  0  0  0  0  0
  151.9927  139.0325  180.3774 C   0  0  0  0  0  0  0  0  0  0  0  0
  148.7515  138.2056  177.8246 H   0  0  0  0  0  0  0  0  0  0  0  0
  8  9  1  0  0  0
  9 12  1  0  0  0
 12 13  1  0  0  0
 13 14  2  0  0  0
 14 15  1  0  0  0
 15 16  2  0  0  0
 16 17  1  0  0  0
 16 18  1  0  0  0
 18 19  2  0  0  0
  9  1  1  0  0  0
  1  2  2  0  0  0
  1  3  1  0  0  0
  3  4  1  0  0  0
  4  5  1  0  0  0
  5  6  1  0  0  0
  6  7  1  0  0  0
  7 21  1  0  0  0
 21 22  2  0  0  0
 21 23  1  0  0  0
 23 25  1  0  0  0
 25 30  1  0  0  0
 30 31  1  0  0  0
 31 32  2  0  0  0
 32 33  1  0  0  0
 33 34  2  0  0  0
 34 35  1  0  0  0
 34 36  1  0  0  0
 36 37  2  0  0  0
 25 26  1  0  0  0
 26 27  1  0  0  0
 26 28  2  0  0  0
 19 13  1  0  0  0
  7  3  1  0  0  0
 37 31  1  0  0  0
  8 10  1  0  0  0
  8 11  1  0  0  0
 17 20  1  0  0  0
 23 24  1  0  0  0
 35 38  1  0  0  0
 27 29  1  0  0  0
M  END
> <minimizedAffinity>
-7.82004

> <CNNscore>
0.1936213523

> <CNNaffinity>
5.9283814430

> <CNN_VS>
1.1478612423

> <CNNaffinity_variance>
0.0389713347

$$$$
[H]OC(=O)[C@@]([H])(N([H])C(=O)[C@@]1([H])N(C(=O)[C@@]([H])(N([H])[H])C([H])([H])c2c([H])c([H])c(O[H])c([H])c2[H])C([H])([H])C([H])([H])C1([H])[H])C([H])([H])c1c([H])c([H])c(O[H])c([H])c1[H]


 38 40  0  0  0  0  0  0  0  0999 V2000
  153.4824  134.0601  189.4893 C   0  0  0  0  0  0  0  0  0  0  0  0
  153.4016  133.2355  188.5007 O   0  0  0  0  0  0  0  0  0  0  0  0
  152.4622  135.0356  189.5959 N   0  0  0  0  0  0  0  0  0  0  0  0
  152.1879  136.0948  190.5066 C   0  0  0  0  0  0  0  0  0  0  0  0
  150.7402  135.7970  190.8846 C   0  0  0  0  0  0  0  0  0  0  0  0
  150.1809  135.4445  189.5176 C   0  0  0  0  0  0  0  0  0  0  0  0
  151.3479  135.1273  188.6296 C   0  0  0  0  0  0  0  0  0  0  0  0
  154.4096  133.7095  191.7465 N   0  0  0  0  0  0  0  0  0  0  0  0
  154.6349  133.8484  190.3532 C   0  0  0  0  0  0  0  0  0  0  0  0
  154.2030  134.5464  192.2882 H   0  0  0  0  0  0  0  0  0  0  0  0
  154.0574  132.8069  192.0768 H   0  0  0  0  0  0  0  0  0  0  0  0
  155.5350  132.7202  189.8106 C   0  0  0  0  0  0  0  0  0  0  0  0
  156.7856  133.2859  189.2401 C   0  0  0  0  0  0  0  0  0  0  0  0
  156.8950  133.6601  187.9255 C   0  0  0  0  0  0  0  0  0  0  0  0
  158.0697  134.1850  187.4147 C   0  0  0  0  0  0  0  0  0  0  0  0
  159.1757  134.3494  188.2183 C   0  0  0  0  0  0  0  0  0  0  0  0
  160.3802  134.8802  187.7235 O   0  0  0  0  0  0  0  0  0  0  0  0
  159.0679  133.9738  189.5405 C   0  0  0  0  0  0  0  0  0  0  0  0
  157.9023  133.4506  190.0565 C   0  0  0  0  0  0  0  0  0  0  0  0
  160.4888  135.8800  187.7777 H   0  0  0  0  0  0  0  0  0  0  0  0
  151.6655  136.1504  187.6235 C   0  0  0  0  0  0  0  0  0  0  0  0
  150.7624  136.8939  187.1865 O   0  0  0  0  0  0  0  0  0  0  0  0
  152.9821  136.3224  187.1263 N   0  0  0  0  0  0  0  0  0  0  0  0
  153.7452  135.7018  187.4886 H   0  0  0  0  0  0  0  0  0  0  0  0
  153.3428  137.3123  186.1390 C   0  0  0  0  0  0  0  0  0  0  0  0
  153.9871  136.7627  184.9465 C   0  0  0  0  0  0  0  0  0  0  0  0
  154.1403  135.4012  184.8318 O   0  0  0  0  0  0  0  0  0  0  0  0
  154.4235  137.4685  183.9930 O   0  0  0  0  0  0  0  0  0  0  0  0
  154.6030  134.9143  184.0960 H   0  0  0  0  0  0  0  0  0  0  0  0
  154.1183  138.4580  186.7408 C   0  0  0  0  0  0  0  0  0  0  0  0
  154.7955  138.1358  188.0005 C   0  0  0  0  0  0  0  0  0  0  0  0
  154.3110  138.6457  189.1826 C   0  0  0  0  0  0  0  0  0  0  0  0
  154.9342  138.3603  190.4026 C   0  0  0  0  0  0  0  0  0  0  0  0
  156.0542  137.5590  190.4627 C   0  0  0  0  0  0  0  0  0  0  0  0
  156.6622  137.2849  191.6834 O   0  0  0  0  0  0  0  0  0  0  0  0
  156.5301  137.0540  189.2716 C   0  0  0  0  0  0  0  0  0  0  0  0
  155.9236  137.3297  188.0693 C   0  0  0  0  0  0  0  0  0  0  0  0
  157.3955  137.9518  191.9619 H   0  0  0  0  0  0  0  0  0  0  0  0
  8  9  1  0  0  0
  9 12  1  0  0  0
 12 13  1  0  0  0
 13 14  2  0  0  0
 14 15  1  0  0  0
 15 16  2  0  0  0
 16 17  1  0  0  0
 16 18  1  0  0  0
 18 19  2  0  0  0
  9  1  1  0  0  0
  1  2  2  0  0  0
  1  3  1  0  0  0
  3  4  1  0  0  0
  4  5  1  0  0  0
  5  6  1  0  0  0
  6  7  1  0  0  0
  7 21  1  0  0  0
 21 22  2  0  0  0
 21 23  1  0  0  0
 23 25  1  0  0  0
 25 30  1  0  0  0
 30 31  1  0  0  0
 31 32  2  0  0  0
 32 33  1  0  0  0
 33 34  2  0  0  0
 34 35  1  0  0  0
 34 36  1  0  0  0
 36 37  2  0  0  0
 25 26  1  0  0  0
 26 27  1  0  0  0
 26 28  2  0  0  0
 19 13  1  0  0  0
  7  3  1  0  0  0
 37 31  1  0  0  0
  8 10  1  0  0  0
  8 11  1  0  0  0
 17 20  1  0  0  0
 23 24  1  0  0  0
 35 38  1  0  0  0
 27 29  1  0  0  0
M  END
> <minimizedAffinity>
-5.71326

> <CNNscore>
0.1864960641

> <CNNaffinity>
4.8182005882

> <CNN_VS>
0.8985754251

> <CNNaffinity_variance>
0.1865186393

$$$$
[H]OC(=O)[C@@]([H])(N([H])C(=O)[C@@]1([H])N(C(=O)[C@@]([H])(N([H])[H])C([H])([H])c2c([H])c([H])c(O[H])c([H])c2[H])C([H])([H])C([H])([H])C1([H])[H])C([H])([H])c1c([H])c([H])c(O[H])c([H])c1[H]


 38 40  0  0  0  0  0  0  0  0999 V2000
  154.8747  136.3239  188.3401 C   0  0  0  0  0  0  0  0  0  0  0  0
  155.8109  135.5847  187.8491 O   0  0  0  0  0  0  0  0  0  0  0  0
  154.2077  137.1935  187.4441 N   0  0  0  0  0  0  0  0  0  0  0  0
  153.1536  138.1412  187.5748 C   0  0  0  0  0  0  0  0  0  0  0  0
  152.2037  137.6862  186.4711 C   0  0  0  0  0  0  0  0  0  0  0  0
  153.2048  137.4067  185.3642 C   0  0  0  0  0  0  0  0  0  0  0  0
  154.5526  137.2713  186.0092 C   0  0  0  0  0  0  0  0  0  0  0  0
  155.7386  135.6919  190.5608 N   0  0  0  0  0  0  0  0  0  0  0  0
  154.6519  136.1393  189.7669 C   0  0  0  0  0  0  0  0  0  0  0  0
  156.0005  134.7093  190.5115 H   0  0  0  0  0  0  0  0  0  0  0  0
  156.4519  136.3822  190.8109 H   0  0  0  0  0  0  0  0  0  0  0  0
  153.9701  137.3757  190.3863 C   0  0  0  0  0  0  0  0  0  0  0  0
  152.8161  136.9626  191.2272 C   0  0  0  0  0  0  0  0  0  0  0  0
  151.7480  136.2648  190.7248 C   0  0  0  0  0  0  0  0  0  0  0  0
  150.6832  135.8899  191.5261 C   0  0  0  0  0  0  0  0  0  0  0  0
  150.6629  136.2090  192.8654 C   0  0  0  0  0  0  0  0  0  0  0  0
  149.5932  135.8398  193.7002 O   0  0  0  0  0  0  0  0  0  0  0  0
  151.7360  136.9107  193.3726 C   0  0  0  0  0  0  0  0  0  0  0  0
  152.7996  137.2875  192.5817 C   0  0  0  0  0  0  0  0  0  0  0  0
  149.6665  134.9464  194.1591 H   0  0  0  0  0  0  0  0  0  0  0  0
  155.4663  138.4019  185.7938 C   0  0  0  0  0  0  0  0  0  0  0  0
  156.2574  138.7428  186.6978 O   0  0  0  0  0  0  0  0  0  0  0  0
  155.4783  139.1281  184.5761 N   0  0  0  0  0  0  0  0  0  0  0  0
  154.8168  138.8477  183.8129 H   0  0  0  0  0  0  0  0  0  0  0  0
  156.3564  140.2448  184.3178 C   0  0  0  0  0  0  0  0  0  0  0  0
  155.8440  141.1946  183.3306 C   0  0  0  0  0  0  0  0  0  0  0  0
  155.2492  142.3569  183.7613 O   0  0  0  0  0  0  0  0  0  0  0  0
  155.9107  141.0166  182.0809 O   0  0  0  0  0  0  0  0  0  0  0  0
  154.8216  143.0532  183.1912 H   0  0  0  0  0  0  0  0  0  0  0  0
  157.7664  139.8004  184.0169 C   0  0  0  0  0  0  0  0  0  0  0  0
  158.8066  140.7014  184.5224 C   0  0  0  0  0  0  0  0  0  0  0  0
  158.6634  141.2763  185.7638 C   0  0  0  0  0  0  0  0  0  0  0  0
  159.6357  142.1427  186.2760 C   0  0  0  0  0  0  0  0  0  0  0  0
  160.7699  142.4500  185.5555 C   0  0  0  0  0  0  0  0  0  0  0  0
  161.7271  143.3131  186.0787 O   0  0  0  0  0  0  0  0  0  0  0  0
  160.9020  141.8676  184.3131 C   0  0  0  0  0  0  0  0  0  0  0  0
  159.9515  141.0157  183.8031 C   0  0  0  0  0  0  0  0  0  0  0  0
  161.5829  144.3076  185.8544 H   0  0  0  0  0  0  0  0  0  0  0  0
  8  9  1  0  0  0
  9 12  1  0  0  0
 12 13  1  0  0  0
 13 14  2  0  0  0
 14 15  1  0  0  0
 15 16  2  0  0  0
 16 17  1  0  0  0
 16 18  1  0  0  0
 18 19  2  0  0  0
  9  1  1  0  0  0
  1  2  2  0  0  0
  1  3  1  0  0  0
  3  4  1  0  0  0
  4  5  1  0  0  0
  5  6  1  0  0  0
  6  7  1  0  0  0
  7 21  1  0  0  0
 21 22  2  0  0  0
 21 23  1  0  0  0
 23 25  1  0  0  0
 25 30  1  0  0  0
 30 31  1  0  0  0
 31 32  2  0  0  0
 32 33  1  0  0  0
 33 34  2  0  0  0
 34 35  1  0  0  0
 34 36  1  0  0  0
 36 37  2  0  0  0
 25 26  1  0  0  0
 26 27  1  0  0  0
 26 28  2  0  0  0
 19 13  1  0  0  0
  7  3  1  0  0  0
 37 31  1  0  0  0
  8 10  1  0  0  0
  8 11  1  0  0  0
 17 20  1  0  0  0
 23 24  1  0  0  0
 35 38  1  0  0  0
 27 29  1  0  0  0
M  END
> <minimizedAffinity>
-8.35614

> <CNNscore>
0.1783902049

> <CNNaffinity>
5.3907566071

> <CNN_VS>
0.9616581798

> <CNNaffinity_variance>
0.0688550621

$$$$
[H]OC(=O)[C@@]([H])(N([H])C(=O)[C@@]([H])(S[H])C([H])([H])C([H])(C([H])([H])[H])C([H])([H])[H])C([H])([H])c1c([H])c([H])c(-c2c([H])c([H])c([H])c([H])c2[H])c([H])c1[H]


 29 30  0  0  0  0  0  0  0  0999 V2000
  153.3746  137.9893  183.4919 C   0  0  0  0  0  0  0  0  0  0  0  0
  151.8040  138.7700  181.6902 C   0  0  0  0  0  0  0  0  0  0  0  0
  152.7954  138.5902  180.8894 O   0  0  0  0  0  0  0  0  0  0  0  0
  152.0458  138.4702  183.0619 N   0  0  0  0  0  0  0  0  0  0  0  0
  151.2657  138.6025  183.7304 H   0  0  0  0  0  0  0  0  0  0  0  0
  150.5311  139.2606  181.1382 C   0  0  0  0  0  0  0  0  0  0  0  0
  150.9637  140.0809  179.5472 S   0  0  0  0  0  0  0  0  0  0  0  0
  152.2713  140.6155  179.6182 H   0  0  0  0  0  0  0  0  0  0  0  0
  149.4413  138.2909  180.9420 C   0  0  0  0  0  0  0  0  0  0  0  0
  147.0406  138.8686  180.4551 C   0  0  0  0  0  0  0  0  0  0  0  0
  148.0991  138.5852  181.4842 C   0  0  0  0  0  0  0  0  0  0  0  0
  148.0160  139.5643  182.6004 C   0  0  0  0  0  0  0  0  0  0  0  0
  153.1977  136.7991  184.3353 C   0  0  0  0  0  0  0  0  0  0  0  0
  153.7843  136.6369  185.5879 O   0  0  0  0  0  0  0  0  0  0  0  0
  152.4742  135.8270  183.9402 O   0  0  0  0  0  0  0  0  0  0  0  0
  153.9862  135.7462  185.9895 H   0  0  0  0  0  0  0  0  0  0  0  0
  153.9308  139.1562  184.2937 C   0  0  0  0  0  0  0  0  0  0  0  0
  154.8521  140.0221  183.5663 C   0  0  0  0  0  0  0  0  0  0  0  0
  156.2056  139.7213  183.6293 C   0  0  0  0  0  0  0  0  0  0  0  0
  157.0968  140.5127  182.9345 C   0  0  0  0  0  0  0  0  0  0  0  0
  156.6888  141.5930  182.1791 C   0  0  0  0  0  0  0  0  0  0  0  0
  155.3508  141.8944  182.1139 C   0  0  0  0  0  0  0  0  0  0  0  0
  154.4520  141.1018  182.8105 C   0  0  0  0  0  0  0  0  0  0  0  0
  157.6469  142.4167  181.4522 C   0  0  0  0  0  0  0  0  0  0  0  0
  158.1251  143.6083  181.9711 C   0  0  0  0  0  0  0  0  0  0  0  0
  159.0316  144.3926  181.2893 C   0  0  0  0  0  0  0  0  0  0  0  0
  159.4995  144.0132  180.0521 C   0  0  0  0  0  0  0  0  0  0  0  0
  159.0309  142.8276  179.5231 C   0  0  0  0  0  0  0  0  0  0  0  0
  158.1264  142.0444  180.2026 C   0  0  0  0  0  0  0  0  0  0  0  0
 10 11  1  0  0  0
 11 12  1  0  0  0
 11  9  1  0  0  0
  9  6  1  0  0  0
  6  7  1  0  0  0
  6  2  1  0  0  0
  2  3  2  0  0  0
  2  4  1  0  0  0
  4  1  1  0  0  0
  1 17  1  0  0  0
 17 18  1  0  0  0
 18 19  2  0  0  0
 19 20  1  0  0  0
 20 21  2  0  0  0
 21 22  1  0  0  0
 22 23  2  0  0  0
 21 24  1  0  0  0
 24 25  2  0  0  0
 25 26  1  0  0  0
 26 27  2  0  0  0
 27 28  1  0  0  0
 28 29  2  0  0  0
  1 13  1  0  0  0
 13 14  1  0  0  0
 13 15  2  0  0  0
 23 18  1  0  0  0
 29 24  1  0  0  0
  7  8  1  0  0  0
  4  5  1  0  0  0
 14 16  1  0  0  0
M  END
> <minimizedAffinity>
-7.37288

> <CNNscore>
0.5581409931

> <CNNaffinity>
5.7000951767

> <CNN_VS>
3.1814568043

> <CNNaffinity_variance>
0.1673670560

$$$$
[H]OC(=O)[C@@]([H])(N([H])C(=O)[C@@]([H])(S[H])C([H])([H])C([H])(C([H])([H])[H])C([H])([H])[H])C([H])([H])c1c([H])c([H])c(-c2c([H])c([H])c([H])c([H])c2[H])c([H])c1[H]


 29 30  0  0  0  0  0  0  0  0999 V2000
  154.1577  138.9606  184.8733 C   0  0  0  0  0  0  0  0  0  0  0  0
  155.6428  140.6939  183.8185 C   0  0  0  0  0  0  0  0  0  0  0  0
  154.5477  141.2814  183.4834 O   0  0  0  0  0  0  0  0  0  0  0  0
  155.5025  139.4786  184.5486 N   0  0  0  0  0  0  0  0  0  0  0  0
  156.3664  138.9840  184.8348 H   0  0  0  0  0  0  0  0  0  0  0  0
  156.9215  141.3093  183.4285 C   0  0  0  0  0  0  0  0  0  0  0  0
  158.0954  140.9211  184.7932 S   0  0  0  0  0  0  0  0  0  0  0  0
  157.3950  140.8096  186.0170 H   0  0  0  0  0  0  0  0  0  0  0  0
  157.4997  140.9398  182.1264 C   0  0  0  0  0  0  0  0  0  0  0  0
  157.9819  141.8900  179.8464 C   0  0  0  0  0  0  0  0  0  0  0  0
  158.2113  141.9606  181.3303 C   0  0  0  0  0  0  0  0  0  0  0  0
  159.6538  142.1694  181.6253 C   0  0  0  0  0  0  0  0  0  0  0  0
  154.1771  138.4137  186.2369 C   0  0  0  0  0  0  0  0  0  0  0  0
  154.7827  137.2090  186.5854 O   0  0  0  0  0  0  0  0  0  0  0  0
  153.6174  139.0415  187.1946 O   0  0  0  0  0  0  0  0  0  0  0  0
  154.5011  136.6579  187.3679 H   0  0  0  0  0  0  0  0  0  0  0  0
  153.9425  137.8636  183.8416 C   0  0  0  0  0  0  0  0  0  0  0  0
  152.6973  137.9600  183.0880 C   0  0  0  0  0  0  0  0  0  0  0  0
  152.6283  138.9061  182.0749 C   0  0  0  0  0  0  0  0  0  0  0  0
  151.4688  139.0050  181.3338 C   0  0  0  0  0  0  0  0  0  0  0  0
  150.3756  138.1954  181.5652 C   0  0  0  0  0  0  0  0  0  0  0  0
  150.4392  137.2580  182.5664 C   0  0  0  0  0  0  0  0  0  0  0  0
  151.6024  137.1555  183.3135 C   0  0  0  0  0  0  0  0  0  0  0  0
  149.1596  138.3159  180.7702 C   0  0  0  0  0  0  0  0  0  0  0  0
  149.0601  137.7670  179.5026 C   0  0  0  0  0  0  0  0  0  0  0  0
  147.9131  137.8769  178.7450 C   0  0  0  0  0  0  0  0  0  0  0  0
  146.8117  138.5451  179.2288 C   0  0  0  0  0  0  0  0  0  0  0  0
  146.8974  139.0970  180.4910 C   0  0  0  0  0  0  0  0  0  0  0  0
  148.0414  138.9880  181.2477 C   0  0  0  0  0  0  0  0  0  0  0  0
 10 11  1  0  0  0
 11 12  1  0  0  0
 11  9  1  0  0  0
  9  6  1  0  0  0
  6  7  1  0  0  0
  6  2  1  0  0  0
  2  3  2  0  0  0
  2  4  1  0  0  0
  4  1  1  0  0  0
  1 17  1  0  0  0
 17 18  1  0  0  0
 18 19  2  0  0  0
 19 20  1  0  0  0
 20 21  2  0  0  0
 21 22  1  0  0  0
 22 23  2  0  0  0
 21 24  1  0  0  0
 24 25  2  0  0  0
 25 26  1  0  0  0
 26 27  2  0  0  0
 27 28  1  0  0  0
 28 29  2  0  0  0
  1 13  1  0  0  0
 13 14  1  0  0  0
 13 15  2  0  0  0
 23 18  1  0  0  0
 29 24  1  0  0  0
  7  8  1  0  0  0
  4  5  1  0  0  0
 14 16  1  0  0  0
M  END
> <minimizedAffinity>
-6.16793

> <CNNscore>
0.4425608814

> <CNNaffinity>
5.5762820244

> <CNN_VS>
2.4678442478

> <CNNaffinity_variance>
0.1891680658

$$$$
[H]OC(=O)[C@@]([H])(N([H])C(=O)[C@@]([H])(S[H])C([H])([H])C([H])(C([H])([H])[H])C([H])([H])[H])C([H])([H])c1c([H])c([H])c(-c2c([H])c([H])c([H])c([H])c2[H])c([H])c1[H]


 29 30  0  0  0  0  0  0  0  0999 V2000
  153.3152  136.7488  185.8201 C   0  0  0  0  0  0  0  0  0  0  0  0
  154.5298  136.3375  187.9830 C   0  0  0  0  0  0  0  0  0  0  0  0
  153.3575  136.2398  188.5051 O   0  0  0  0  0  0  0  0  0  0  0  0
  154.5712  136.6000  186.5833 N   0  0  0  0  0  0  0  0  0  0  0  0
  155.5009  136.6813  186.1339 H   0  0  0  0  0  0  0  0  0  0  0  0
  155.7054  136.1756  188.8533 C   0  0  0  0  0  0  0  0  0  0  0  0
  156.2883  137.8829  189.2225 S   0  0  0  0  0  0  0  0  0  0  0  0
  155.9796  138.7436  188.1433 H   0  0  0  0  0  0  0  0  0  0  0  0
  155.5470  135.4019  190.0953 C   0  0  0  0  0  0  0  0  0  0  0  0
  156.6503  135.9760  192.2832 C   0  0  0  0  0  0  0  0  0  0  0  0
  155.4508  136.1114  191.3873 C   0  0  0  0  0  0  0  0  0  0  0  0
  154.1961  135.9384  192.1667 C   0  0  0  0  0  0  0  0  0  0  0  0
  153.4807  136.1120  184.5063 C   0  0  0  0  0  0  0  0  0  0  0  0
  152.5824  136.2549  183.4518 O   0  0  0  0  0  0  0  0  0  0  0  0
  154.4908  135.3721  184.2678 O   0  0  0  0  0  0  0  0  0  0  0  0
  152.4702  135.5763  182.7291 H   0  0  0  0  0  0  0  0  0  0  0  0
  153.1584  138.2560  185.6872 C   0  0  0  0  0  0  0  0  0  0  0  0
  154.2133  138.9224  184.9315 C   0  0  0  0  0  0  0  0  0  0  0  0
  153.8548  139.5699  183.7573 C   0  0  0  0  0  0  0  0  0  0  0  0
  154.8298  140.2247  183.0335 C   0  0  0  0  0  0  0  0  0  0  0  0
  156.1490  140.2581  183.4369 C   0  0  0  0  0  0  0  0  0  0  0  0
  156.5083  139.6190  184.5978 C   0  0  0  0  0  0  0  0  0  0  0  0
  155.5317  138.9598  185.3281 C   0  0  0  0  0  0  0  0  0  0  0  0
  157.1641  140.9560  182.6574 C   0  0  0  0  0  0  0  0  0  0  0  0
  156.8267  141.8289  181.6366 C   0  0  0  0  0  0  0  0  0  0  0  0
  157.7814  142.4927  180.8951 C   0  0  0  0  0  0  0  0  0  0  0  0
  159.1215  142.3083  181.1472 C   0  0  0  0  0  0  0  0  0  0  0  0
  159.4717  141.4408  182.1620 C   0  0  0  0  0  0  0  0  0  0  0  0
  158.5200  140.7780  182.9024 C   0  0  0  0  0  0  0  0  0  0  0  0
 10 11  1  0  0  0
 11 12  1  0  0  0
 11  9  1  0  0  0
  9  6  1  0  0  0
  6  7  1  0  0  0
  6  2  1  0  0  0
  2  3  2  0  0  0
  2  4  1  0  0  0
  4  1  1  0  0  0
  1 17  1  0  0  0
 17 18  1  0  0  0
 18 19  2  0  0  0
 19 20  1  0  0  0
 20 21  2  0  0  0
 21 22  1  0  0  0
 22 23  2  0  0  0
 21 24  1  0  0  0
 24 25  2  0  0  0
 25 26  1  0  0  0
 26 27  2  0  0  0
 27 28  1  0  0  0
 28 29  2  0  0  0
  1 13  1  0  0  0
 13 14  1  0  0  0
 13 15  2  0  0  0
 23 18  1  0  0  0
 29 24  1  0  0  0
  7  8  1  0  0  0
  4  5  1  0  0  0
 14 16  1  0  0  0
M  END
> <minimizedAffinity>
-6.11299

> <CNNscore>
0.4423580170

> <CNNaffinity>
5.3196215630

> <CNN_VS>
2.3531773090

> <CNNaffinity_variance>
0.1593799591

$$$$
[H]OC(=O)[C@@]([H])(N([H])C(=O)[C@@]([H])(S[H])C([H])([H])C([H])(C([H])([H])[H])C([H])([H])[H])C([H])([H])c1c([H])c([H])c(-c2c([H])c([H])c([H])c([H])c2[H])c([H])c1[H]


 29 30  0  0  0  0  0  0  0  0999 V2000
  153.5576  137.6002  184.3380 C   0  0  0  0  0  0  0  0  0  0  0  0
  151.7976  137.6947  182.5447 C   0  0  0  0  0  0  0  0  0  0  0  0
  152.7790  137.5942  181.7182 O   0  0  0  0  0  0  0  0  0  0  0  0
  152.1422  137.7005  183.9271 N   0  0  0  0  0  0  0  0  0  0  0  0
  151.3733  137.7775  184.6168 H   0  0  0  0  0  0  0  0  0  0  0  0
  150.4308  137.7948  182.0083 C   0  0  0  0  0  0  0  0  0  0  0  0
  149.3293  137.1439  183.3328 S   0  0  0  0  0  0  0  0  0  0  0  0
  150.0133  136.1685  184.0952 H   0  0  0  0  0  0  0  0  0  0  0  0
  149.9628  139.1111  181.5451 C   0  0  0  0  0  0  0  0  0  0  0  0
  149.3374  138.3658  179.2240 C   0  0  0  0  0  0  0  0  0  0  0  0
  149.9622  139.4158  180.0997 C   0  0  0  0  0  0  0  0  0  0  0  0
  151.2372  139.8986  179.5056 C   0  0  0  0  0  0  0  0  0  0  0  0
  153.6686  136.6092  185.4172 C   0  0  0  0  0  0  0  0  0  0  0  0
  152.6469  135.7361  185.7822 O   0  0  0  0  0  0  0  0  0  0  0  0
  154.7449  136.5043  186.0919 O   0  0  0  0  0  0  0  0  0  0  0  0
  152.5573  135.3457  186.6959 H   0  0  0  0  0  0  0  0  0  0  0  0
  153.8807  138.9999  184.8385 C   0  0  0  0  0  0  0  0  0  0  0  0
  154.8236  139.7482  184.0147 C   0  0  0  0  0  0  0  0  0  0  0  0
  154.3086  140.7106  183.1575 C   0  0  0  0  0  0  0  0  0  0  0  0
  155.1802  141.4463  182.3813 C   0  0  0  0  0  0  0  0  0  0  0  0
  156.5464  141.2580  182.4281 C   0  0  0  0  0  0  0  0  0  0  0  0
  157.0605  140.3071  183.2746 C   0  0  0  0  0  0  0  0  0  0  0  0
  156.1881  139.5657  184.0562 C   0  0  0  0  0  0  0  0  0  0  0  0
  157.4504  142.0463  181.5995 C   0  0  0  0  0  0  0  0  0  0  0  0
  157.8757  141.6021  180.3587 C   0  0  0  0  0  0  0  0  0  0  0  0
  158.7306  142.3423  179.5693 C   0  0  0  0  0  0  0  0  0  0  0  0
  159.1975  143.5654  179.9930 C   0  0  0  0  0  0  0  0  0  0  0  0
  158.7814  144.0201  181.2280 C   0  0  0  0  0  0  0  0  0  0  0  0
  157.9285  143.2823  182.0163 C   0  0  0  0  0  0  0  0  0  0  0  0
 10 11  1  0  0  0
 11 12  1  0  0  0
 11  9  1  0  0  0
  9  6  1  0  0  0
  6  7  1  0  0  0
  6  2  1  0  0  0
  2  3  2  0  0  0
  2  4  1  0  0  0
  4  1  1  0  0  0
  1 17  1  0  0  0
 17 18  1  0  0  0
 18 19  2  0  0  0
 19 20  1  0  0  0
 20 21  2  0  0  0
 21 22  1  0  0  0
 22 23  2  0  0  0
 21 24  1  0  0  0
 24 25  2  0  0  0
 25 26  1  0  0  0
 26 27  2  0  0  0
 27 28  1  0  0  0
 28 29  2  0  0  0
  1 13  1  0  0  0
 13 14  1  0  0  0
 13 15  2  0  0  0
 23 18  1  0  0  0
 29 24  1  0  0  0
  7  8  1  0  0  0
  4  5  1  0  0  0
 14 16  1  0  0  0
M  END
> <minimizedAffinity>
-7.51108

> <CNNscore>
0.4377582073

> <CNNaffinity>
5.4761958122

> <CNN_VS>
2.3972496986

> <CNNaffinity_variance>
0.1301930845

$$$$
[H]OC(=O)[C@@]([H])(N([H])C(=O)[C@@]([H])(S[H])C([H])([H])C([H])(C([H])([H])[H])C([H])([H])[H])C([H])([H])c1c([H])c([H])c(-c2c([H])c([H])c([H])c([H])c2[H])c([H])c1[H]


 29 30  0  0  0  0  0  0  0  0999 V2000
  153.2308  138.0614  183.0159 C   0  0  0  0  0  0  0  0  0  0  0  0
  151.6474  138.9533  181.2782 C   0  0  0  0  0  0  0  0  0  0  0  0
  152.6742  138.9798  180.5027 O   0  0  0  0  0  0  0  0  0  0  0  0
  151.8759  138.4803  182.6026 N   0  0  0  0  0  0  0  0  0  0  0  0
  151.0677  138.4447  183.2495 H   0  0  0  0  0  0  0  0  0  0  0  0
  150.3508  139.4043  180.7479 C   0  0  0  0  0  0  0  0  0  0  0  0
  150.7213  140.1643  179.1120 S   0  0  0  0  0  0  0  0  0  0  0  0
  152.0227  140.7182  179.1192 H   0  0  0  0  0  0  0  0  0  0  0  0
  149.2693  138.4135  180.6264 C   0  0  0  0  0  0  0  0  0  0  0  0
  146.8572  139.1175  180.4836 C   0  0  0  0  0  0  0  0  0  0  0  0
  147.9951  138.6359  181.3398 C   0  0  0  0  0  0  0  0  0  0  0  0
  148.0525  139.4052  182.6111 C   0  0  0  0  0  0  0  0  0  0  0  0
  153.1289  136.8033  183.7682 C   0  0  0  0  0  0  0  0  0  0  0  0
  151.9831  136.3885  184.4425 O   0  0  0  0  0  0  0  0  0  0  0  0
  154.1233  136.0092  183.8400 O   0  0  0  0  0  0  0  0  0  0  0  0
  151.9994  135.7733  185.2277 H   0  0  0  0  0  0  0  0  0  0  0  0
  153.6969  139.2018  183.9083 C   0  0  0  0  0  0  0  0  0  0  0  0
  153.9934  138.8264  185.2863 C   0  0  0  0  0  0  0  0  0  0  0  0
  155.3103  138.5236  185.6030 C   0  0  0  0  0  0  0  0  0  0  0  0
  155.6214  138.1843  186.9036 C   0  0  0  0  0  0  0  0  0  0  0  0
  154.6682  138.1358  187.9002 C   0  0  0  0  0  0  0  0  0  0  0  0
  153.3641  138.4345  187.5915 C   0  0  0  0  0  0  0  0  0  0  0  0
  153.0472  138.7759  186.2859 C   0  0  0  0  0  0  0  0  0  0  0  0
  155.0178  137.7750  189.2686 C   0  0  0  0  0  0  0  0  0  0  0  0
  154.0553  137.4075  190.1941 C   0  0  0  0  0  0  0  0  0  0  0  0
  154.3786  137.0648  191.4902 C   0  0  0  0  0  0  0  0  0  0  0  0
  155.6874  137.0762  191.9152 C   0  0  0  0  0  0  0  0  0  0  0  0
  156.6568  137.4407  191.0028 C   0  0  0  0  0  0  0  0  0  0  0  0
  156.3353  137.7828  189.7095 C   0  0  0  0  0  0  0  0  0  0  0  0
 10 11  1  0  0  0
 11 12  1  0  0  0
 11  9  1  0  0  0
  9  6  1  0  0  0
  6  7  1  0  0  0
  6  2  1  0  0  0
  2  3  2  0  0  0
  2  4  1  0  0  0
  4  1  1  0  0  0
  1 17  1  0  0  0
 17 18  1  0  0  0
 18 19  2  0  0  0
 19 20  1  0  0  0
 20 21  2  0  0  0
 21 22  1  0  0  0
 22 23  2  0  0  0
 21 24  1  0  0  0
 24 25  2  0  0  0
 25 26  1  0  0  0
 26 27  2  0  0  0
 27 28  1  0  0  0
 28 29  2  0  0  0
  1 13  1  0  0  0
 13 14  1  0  0  0
 13 15  2  0  0  0
 23 18  1  0  0  0
 29 24  1  0  0  0
  7  8  1  0  0  0
  4  5  1  0  0  0
 14 16  1  0  0  0
M  END
> <minimizedAffinity>
-6.59019

> <CNNscore>
0.4231684208

> <CNNaffinity>
5.0239615440

> <CNN_VS>
2.1259818077

> <CNNaffinity_variance>
0.0423311256

$$$$
[H]OC(=O)[C@@]([H])(N([H])C(=O)[C@@]([H])(S[H])C([H])([H])C([H])(C([H])([H])[H])C([H])([H])[H])C([H])([H])c1c([H])c([H])c(-c2c([H])c([H])c([H])c([H])c2[H])c([H])c1[H]


 29 30  0  0  0  0  0  0  0  0999 V2000
  153.7272  138.3281  185.3138 C   0  0  0  0  0  0  0  0  0  0  0  0
  153.4115  138.3948  187.8075 C   0  0  0  0  0  0  0  0  0  0  0  0
  152.7256  139.4619  187.5901 O   0  0  0  0  0  0  0  0  0  0  0  0
  153.9577  137.7570  186.6565 N   0  0  0  0  0  0  0  0  0  0  0  0
  154.5126  136.8941  186.7995 H   0  0  0  0  0  0  0  0  0  0  0  0
  153.5742  137.9310  189.1947 C   0  0  0  0  0  0  0  0  0  0  0  0
  153.2243  136.1234  189.1576 S   0  0  0  0  0  0  0  0  0  0  0  0
  152.2985  135.8307  188.1292 H   0  0  0  0  0  0  0  0  0  0  0  0
  154.8551  138.1975  189.8688 C   0  0  0  0  0  0  0  0  0  0  0  0
  156.3290  137.0392  191.5480 C   0  0  0  0  0  0  0  0  0  0  0  0
  155.7758  137.0773  190.1508 C   0  0  0  0  0  0  0  0  0  0  0  0
  156.8506  136.8134  189.1575 C   0  0  0  0  0  0  0  0  0  0  0  0
  152.5700  137.6572  184.7058 C   0  0  0  0  0  0  0  0  0  0  0  0
  152.0968  137.9270  183.4241 O   0  0  0  0  0  0  0  0  0  0  0  0
  151.9243  136.7675  185.3510 O   0  0  0  0  0  0  0  0  0  0  0  0
  151.1502  137.7811  183.1452 H   0  0  0  0  0  0  0  0  0  0  0  0
  155.0106  138.0016  184.5654 C   0  0  0  0  0  0  0  0  0  0  0  0
  155.6796  139.1465  183.9577 C   0  0  0  0  0  0  0  0  0  0  0  0
  157.0087  139.3681  184.2905 C   0  0  0  0  0  0  0  0  0  0  0  0
  157.6709  140.4327  183.7147 C   0  0  0  0  0  0  0  0  0  0  0  0
  157.0571  141.2847  182.8194 C   0  0  0  0  0  0  0  0  0  0  0  0
  155.7424  141.0694  182.4872 C   0  0  0  0  0  0  0  0  0  0  0  0
  155.0734  140.0007  183.0635 C   0  0  0  0  0  0  0  0  0  0  0  0
  157.7749  142.4040  182.2220 C   0  0  0  0  0  0  0  0  0  0  0  0
  158.2716  143.4443  182.9896 C   0  0  0  0  0  0  0  0  0  0  0  0
  158.9516  144.5063  182.4315 C   0  0  0  0  0  0  0  0  0  0  0  0
  159.1635  144.5704  181.0733 C   0  0  0  0  0  0  0  0  0  0  0  0
  158.6736  143.5400  180.2966 C   0  0  0  0  0  0  0  0  0  0  0  0
  157.9950  142.4800  180.8524 C   0  0  0  0  0  0  0  0  0  0  0  0
 10 11  1  0  0  0
 11 12  1  0  0  0
 11  9  1  0  0  0
  9  6  1  0  0  0
  6  7  1  0  0  0
  6  2  1  0  0  0
  2  3  2  0  0  0
  2  4  1  0  0  0
  4  1  1  0  0  0
  1 17  1  0  0  0
 17 18  1  0  0  0
 18 19  2  0  0  0
 19 20  1  0  0  0
 20 21  2  0  0  0
 21 22  1  0  0  0
 22 23  2  0  0  0
 21 24  1  0  0  0
 24 25  2  0  0  0
 25 26  1  0  0  0
 26 27  2  0  0  0
 27 28  1  0  0  0
 28 29  2  0  0  0
  1 13  1  0  0  0
 13 14  1  0  0  0
 13 15  2  0  0  0
 23 18  1  0  0  0
 29 24  1  0  0  0
  7  8  1  0  0  0
  4  5  1  0  0  0
 14 16  1  0  0  0
M  END
> <minimizedAffinity>
-6.07230

> <CNNscore>
0.3527837098

> <CNNaffinity>
5.4124851227

> <CNN_VS>
1.9094365835

> <CNNaffinity_variance>
0.2993357778

$$$$
[H]OC(=O)[C@@]([H])(N([H])C(=O)[C@@]([H])(S[H])C([H])([H])C([H])(C([H])([H])[H])C([H])([H])[H])C([H])([H])c1c([H])c([H])c(-c2c([H])c([H])c([H])c([H])c2[H])c([H])c1[H]


 29 30  0  0  0  0  0  0  0  0999 V2000
  153.8018  139.1001  184.1554 C   0  0  0  0  0  0  0  0  0  0  0  0
  153.8831  138.4395  186.5802 C   0  0  0  0  0  0  0  0  0  0  0  0
  152.8806  139.2336  186.7251 O   0  0  0  0  0  0  0  0  0  0  0  0
  154.4057  138.3267  185.2596 N   0  0  0  0  0  0  0  0  0  0  0  0
  155.2112  137.6927  185.1109 H   0  0  0  0  0  0  0  0  0  0  0  0
  154.3978  137.7299  187.7623 C   0  0  0  0  0  0  0  0  0  0  0  0
  156.1377  137.2847  187.3550 S   0  0  0  0  0  0  0  0  0  0  0  0
  156.2740  137.0919  185.9604 H   0  0  0  0  0  0  0  0  0  0  0  0
  154.3285  138.4121  189.0647 C   0  0  0  0  0  0  0  0  0  0  0  0
  153.7204  137.2006  191.1851 C   0  0  0  0  0  0  0  0  0  0  0  0
  154.8027  137.7148  190.2775 C   0  0  0  0  0  0  0  0  0  0  0  0
  155.8746  138.3768  191.0676 C   0  0  0  0  0  0  0  0  0  0  0  0
  152.7261  138.3023  183.5509 C   0  0  0  0  0  0  0  0  0  0  0  0
  151.9423  138.7320  182.4830 O   0  0  0  0  0  0  0  0  0  0  0  0
  152.4530  137.1398  183.9967 O   0  0  0  0  0  0  0  0  0  0  0  0
  151.0169  138.4011  182.3118 H   0  0  0  0  0  0  0  0  0  0  0  0
  154.9575  139.2934  183.1854 C   0  0  0  0  0  0  0  0  0  0  0  0
  156.1233  139.9718  183.7409 C   0  0  0  0  0  0  0  0  0  0  0  0
  157.2555  139.2087  183.9901 C   0  0  0  0  0  0  0  0  0  0  0  0
  158.3785  139.8292  184.4972 C   0  0  0  0  0  0  0  0  0  0  0  0
  158.4147  141.1824  184.7650 C   0  0  0  0  0  0  0  0  0  0  0  0
  157.2970  141.9413  184.5200 C   0  0  0  0  0  0  0  0  0  0  0  0
  156.1664  141.3217  184.0105 C   0  0  0  0  0  0  0  0  0  0  0  0
  159.6118  141.8188  185.3006 C   0  0  0  0  0  0  0  0  0  0  0  0
  159.6512  142.3320  186.5863 C   0  0  0  0  0  0  0  0  0  0  0  0
  160.7800  142.9353  187.0998 C   0  0  0  0  0  0  0  0  0  0  0  0
  161.9229  143.0499  186.3420 C   0  0  0  0  0  0  0  0  0  0  0  0
  161.8972  142.5425  185.0586 C   0  0  0  0  0  0  0  0  0  0  0  0
  160.7715  141.9405  184.5454 C   0  0  0  0  0  0  0  0  0  0  0  0
 10 11  1  0  0  0
 11 12  1  0  0  0
 11  9  1  0  0  0
  9  6  1  0  0  0
  6  7  1  0  0  0
  6  2  1  0  0  0
  2  3  2  0  0  0
  2  4  1  0  0  0
  4  1  1  0  0  0
  1 17  1  0  0  0
 17 18  1  0  0  0
 18 19  2  0  0  0
 19 20  1  0  0  0
 20 21  2  0  0  0
 21 22  1  0  0  0
 22 23  2  0  0  0
 21 24  1  0  0  0
 24 25  2  0  0  0
 25 26  1  0  0  0
 26 27  2  0  0  0
 27 28  1  0  0  0
 28 29  2  0  0  0
  1 13  1  0  0  0
 13 14  1  0  0  0
 13 15  2  0  0  0
 23 18  1  0  0  0
 29 24  1  0  0  0
  7  8  1  0  0  0
  4  5  1  0  0  0
 14 16  1  0  0  0
M  END
> <minimizedAffinity>
-7.49602

> <CNNscore>
0.3235082626

> <CNNaffinity>
5.7361001968

> <CNN_VS>
1.8556758165

> <CNNaffinity_variance>
0.1371921003

$$$$
[H]OC(=O)[C@@]([H])(N([H])C(=O)[C@@]([H])(S[H])C([H])([H])C([H])(C([H])([H])[H])C([H])([H])[H])C([H])([H])c1c([H])c([H])c(-c2c([H])c([H])c([H])c([H])c2[H])c([H])c1[H]


 29 30  0  0  0  0  0  0  0  0999 V2000
  153.2436  137.1057  183.3044 C   0  0  0  0  0  0  0  0  0  0  0  0
  150.7435  137.3076  183.4800 C   0  0  0  0  0  0  0  0  0  0  0  0
  150.9132  137.0597  184.7315 O   0  0  0  0  0  0  0  0  0  0  0  0
  151.9247  137.3470  182.6844 N   0  0  0  0  0  0  0  0  0  0  0  0
  151.8204  137.5471  181.6735 H   0  0  0  0  0  0  0  0  0  0  0  0
  149.3754  137.5238  182.9827 C   0  0  0  0  0  0  0  0  0  0  0  0
  148.3058  137.5783  184.4808 S   0  0  0  0  0  0  0  0  0  0  0  0
  148.8610  136.7716  185.5013 H   0  0  0  0  0  0  0  0  0  0  0  0
  149.1265  138.6938  182.1251 C   0  0  0  0  0  0  0  0  0  0  0  0
  149.2226  138.7026  179.6102 C   0  0  0  0  0  0  0  0  0  0  0  0
  148.3962  138.5213  180.8528 C   0  0  0  0  0  0  0  0  0  0  0  0
  147.0910  139.2211  180.7172 C   0  0  0  0  0  0  0  0  0  0  0  0
  153.2384  135.7744  183.9264 C   0  0  0  0  0  0  0  0  0  0  0  0
  153.3621  135.5530  185.2957 O   0  0  0  0  0  0  0  0  0  0  0  0
  153.1179  134.7260  183.2115 O   0  0  0  0  0  0  0  0  0  0  0  0
  153.7260  134.7100  185.6859 H   0  0  0  0  0  0  0  0  0  0  0  0
  153.3484  138.2038  184.3519 C   0  0  0  0  0  0  0  0  0  0  0  0
  154.2513  139.2978  184.0116 C   0  0  0  0  0  0  0  0  0  0  0  0
  155.5284  139.2725  184.5545 C   0  0  0  0  0  0  0  0  0  0  0  0
  156.4088  140.2850  184.2332 C   0  0  0  0  0  0  0  0  0  0  0  0
  156.0631  141.3218  183.3908 C   0  0  0  0  0  0  0  0  0  0  0  0
  154.8008  141.3510  182.8514 C   0  0  0  0  0  0  0  0  0  0  0  0
  153.9131  140.3356  183.1717 C   0  0  0  0  0  0  0  0  0  0  0  0
  157.0087  142.3821  183.0638 C   0  0  0  0  0  0  0  0  0  0  0  0
  156.6118  143.5361  182.4091 C   0  0  0  0  0  0  0  0  0  0  0  0
  157.5005  144.5433  182.0967 C   0  0  0  0  0  0  0  0  0  0  0  0
  158.8314  144.4354  182.4294 C   0  0  0  0  0  0  0  0  0  0  0  0
  159.2404  143.2901  183.0823 C   0  0  0  0  0  0  0  0  0  0  0  0
  158.3545  142.2847  183.3943 C   0  0  0  0  0  0  0  0  0  0  0  0
 10 11  1  0  0  0
 11 12  1  0  0  0
 11  9  1  0  0  0
  9  6  1  0  0  0
  6  7  1  0  0  0
  6  2  1  0  0  0
  2  3  2  0  0  0
  2  4  1  0  0  0
  4  1  1  0  0  0
  1 17  1  0  0  0
 17 18  1  0  0  0
 18 19  2  0  0  0
 19 20  1  0  0  0
 20 21  2  0  0  0
 21 22  1  0  0  0
 22 23  2  0  0  0
 21 24  1  0  0  0
 24 25  2  0  0  0
 25 26  1  0  0  0
 26 27  2  0  0  0
 27 28  1  0  0  0
 28 29  2  0  0  0
  1 13  1  0  0  0
 13 14  1  0  0  0
 13 15  2  0  0  0
 23 18  1  0  0  0
 29 24  1  0  0  0
  7  8  1  0  0  0
  4  5  1  0  0  0
 14 16  1  0  0  0
M  END
> <minimizedAffinity>
-6.45991

> <CNNscore>
0.3099195957

> <CNNaffinity>
5.3750886917

> <CNN_VS>
1.6658452749

> <CNNaffinity_variance>
0.2080611736

$$$$
[H]OC(=O)[C@@]([H])(N([H])C(=O)[C@@]([H])(S[H])C([H])([H])C([H])(C([H])([H])[H])C([H])([H])[H])C([H])([H])c1c([H])c([H])c(-c2c([H])c([H])c([H])c([H])c2[H])c([H])c1[H]


 29 30  0  0  0  0  0  0  0  0999 V2000
  154.8167  141.6259  182.7044 C   0  0  0  0  0  0  0  0  0  0  0  0
  153.3207  139.6142  182.5112 C   0  0  0  0  0  0  0  0  0  0  0  0
  153.7117  139.3353  183.7053 O   0  0  0  0  0  0  0  0  0  0  0  0
  153.8619  140.8003  181.9369 N   0  0  0  0  0  0  0  0  0  0  0  0
  153.5637  141.0526  180.9776 H   0  0  0  0  0  0  0  0  0  0  0  0
  152.3698  138.7062  181.8501 C   0  0  0  0  0  0  0  0  0  0  0  0
  152.1300  137.3028  183.0180 S   0  0  0  0  0  0  0  0  0  0  0  0
  153.3026  137.1047  183.7838 H   0  0  0  0  0  0  0  0  0  0  0  0
  151.0717  139.2532  181.4233 C   0  0  0  0  0  0  0  0  0  0  0  0
  150.9723  140.2201  179.1019 C   0  0  0  0  0  0  0  0  0  0  0  0
  150.6345  139.0811  180.0229 C   0  0  0  0  0  0  0  0  0  0  0  0
  149.2369  138.6257  179.7976 C   0  0  0  0  0  0  0  0  0  0  0  0
  154.4901  143.0436  182.4978 C   0  0  0  0  0  0  0  0  0  0  0  0
  155.3821  143.9827  181.9861 O   0  0  0  0  0  0  0  0  0  0  0  0
  153.3333  143.4912  182.7912 O   0  0  0  0  0  0  0  0  0  0  0  0
  155.3245  144.9594  182.1814 H   0  0  0  0  0  0  0  0  0  0  0  0
  156.1627  141.2742  182.0892 C   0  0  0  0  0  0  0  0  0  0  0  0
  157.3156  141.5051  182.9524 C   0  0  0  0  0  0  0  0  0  0  0  0
  158.4292  142.1149  182.3917 C   0  0  0  0  0  0  0  0  0  0  0  0
  159.5261  142.3627  183.1909 C   0  0  0  0  0  0  0  0  0  0  0  0
  159.5540  142.0250  184.5286 C   0  0  0  0  0  0  0  0  0  0  0  0
  158.4547  141.4215  185.0876 C   0  0  0  0  0  0  0  0  0  0  0  0
  157.3504  141.1708  184.2880 C   0  0  0  0  0  0  0  0  0  0  0  0
  160.7233  142.2957  185.3559 C   0  0  0  0  0  0  0  0  0  0  0  0
  162.0111  142.1252  184.8758 C   0  0  0  0  0  0  0  0  0  0  0  0
  163.1219  142.3794  185.6526 C   0  0  0  0  0  0  0  0  0  0  0  0
  162.9877  142.8176  186.9501 C   0  0  0  0  0  0  0  0  0  0  0  0
  161.7096  142.9917  187.4412 C   0  0  0  0  0  0  0  0  0  0  0  0
  160.6007  142.7383  186.6671 C   0  0  0  0  0  0  0  0  0  0  0  0
 10 11  1  0  0  0
 11 12  1  0  0  0
 11  9  1  0  0  0
  9  6  1  0  0  0
  6  7  1  0  0  0
  6  2  1  0  0  0
  2  3  2  0  0  0
  2  4  1  0  0  0
  4  1  1  0  0  0
  1 17  1  0  0  0
 17 18  1  0  0  0
 18 19  2  0  0  0
 19 20  1  0  0  0
 20 21  2  0  0  0
 21 22  1  0  0  0
 22 23  2  0  0  0
 21 24  1  0  0  0
 24 25  2  0  0  0
 25 26  1  0  0  0
 26 27  2  0  0  0
 27 28  1  0  0  0
 28 29  2  0  0  0
  1 13  1  0  0  0
 13 14  1  0  0  0
 13 15  2  0  0  0
 23 18  1  0  0  0
 29 24  1  0  0  0
  7  8  1  0  0  0
  4  5  1  0  0  0
 14 16  1  0  0  0
M  END
> <minimizedAffinity>
-8.74821

> <CNNscore>
0.3038885295

> <CNNaffinity>
5.8136963844

> <CNN_VS>
1.7667156458

> <CNNaffinity_variance>
0.0859912932

$$$$
[H]O[C@]1([H])[C@@]([H])(C([H])([H])OP(=O)(O[H])OP(=O)(O[H])OP(=O)(O[H])O[H])OC([H])(n2c([H])nc3c(N([H])[H])nc([H])nc32)[C@]1([H])O[H]


 39 41  0  0  0  0  0  0  0  0999 V2000
  158.0559  140.4906  183.8575 C   0  0  0  0  0  0  0  0  0  0  0  0
  156.9389  139.8882  184.3635 O   0  0  0  0  0  0  0  0  0  0  0  0
  155.8210  140.4114  183.7648 C   0  0  0  0  0  0  0  0  0  0  0  0
  156.2820  140.7564  182.3786 C   0  0  0  0  0  0  0  0  0  0  0  0
  155.4603  141.6232  181.7063 O   0  0  0  0  0  0  0  0  0  0  0  0
  157.6240  141.4141  182.7397 C   0  0  0  0  0  0  0  0  0  0  0  0
  157.3270  142.6803  183.1926 O   0  0  0  0  0  0  0  0  0  0  0  0
  155.9439  142.3488  181.2307 H   0  0  0  0  0  0  0  0  0  0  0  0
  157.2117  142.7662  184.1558 H   0  0  0  0  0  0  0  0  0  0  0  0
  162.0157  143.3219  187.4710 N   0  0  0  0  0  0  0  0  0  0  0  0
  161.7125  142.6745  186.2427 C   0  0  0  0  0  0  0  0  0  0  0  0
  162.6235  142.5085  185.2680 N   0  0  0  0  0  0  0  0  0  0  0  0
  162.3254  141.8940  184.1093 C   0  0  0  0  0  0  0  0  0  0  0  0
  161.0786  141.4056  183.8621 N   0  0  0  0  0  0  0  0  0  0  0  0
  160.1326  141.5474  184.8067 C   0  0  0  0  0  0  0  0  0  0  0  0
  158.8516  141.1848  184.8605 N   0  0  0  0  0  0  0  0  0  0  0  0
  158.3714  141.5759  186.0452 C   0  0  0  0  0  0  0  0  0  0  0  0
  159.3327  142.1819  186.7426 N   0  0  0  0  0  0  0  0  0  0  0  0
  160.4348  142.1726  185.9866 C   0  0  0  0  0  0  0  0  0  0  0  0
  161.9030  144.3709  187.5632 H   0  0  0  0  0  0  0  0  0  0  0  0
  162.3537  142.8177  188.3182 H   0  0  0  0  0  0  0  0  0  0  0  0
  154.6272  139.5217  183.8030 C   0  0  0  0  0  0  0  0  0  0  0  0
  154.3875  138.9622  185.0517 O   0  0  0  0  0  0  0  0  0  0  0  0
  153.6404  137.4773  184.9316 P   0  0  0  0  0  0  0  0  0  0  0  0
  153.4534  136.7854  186.4717 O   0  0  0  0  0  0  0  0  0  0  0  0
  152.2261  137.6858  184.3872 O   0  0  0  0  0  0  0  0  0  0  0  0
  153.5055  137.5195  187.1574 H   0  0  0  0  0  0  0  0  0  0  0  0
  154.4160  136.4059  183.9083 O   0  0  0  0  0  0  0  0  0  0  0  0
  153.9947  134.8106  184.1540 P   0  0  0  0  0  0  0  0  0  0  0  0
  152.3432  134.7631  184.5647 O   0  0  0  0  0  0  0  0  0  0  0  0
  154.1665  133.9556  182.9304 O   0  0  0  0  0  0  0  0  0  0  0  0
  152.0650  135.5853  185.0378 H   0  0  0  0  0  0  0  0  0  0  0  0
  154.8312  134.1584  185.4909 O   0  0  0  0  0  0  0  0  0  0  0  0
  153.8218  133.1548  186.3954 P   0  0  0  0  0  0  0  0  0  0  0  0
  154.7698  132.2981  187.5162 O   0  0  0  0  0  0  0  0  0  0  0  0
  152.6993  134.0546  187.3019 O   0  0  0  0  0  0  0  0  0  0  0  0
  153.1334  132.1280  185.5247 O   0  0  0  0  0  0  0  0  0  0  0  0
  155.6379  132.0760  187.0963 H   0  0  0  0  0  0  0  0  0  0  0  0
  151.9467  134.3601  186.7613 H   0  0  0  0  0  0  0  0  0  0  0  0
 10 11  1  0  0  0
 11 12  2  0  0  0
 12 13  1  0  0  0
 13 14  2  0  0  0
 14 15  1  0  0  0
 15 16  1  0  0  0
 16 17  1  0  0  0
 17 18  2  0  0  0
 18 19  1  0  0  0
 16  1  1  0  0  0
  1  2  1  0  0  0
  2  3  1  0  0  0
  3 22  1  0  0  0
 22 23  1  0  0  0
 23 24  1  0  0  0
 24 25  1  0  0  0
 24 26  2  0  0  0
 24 28  1  0  0  0
 28 29  1  0  0  0
 29 30  1  0  0  0
 29 31  2  0  0  0
 29 33  1  0  0  0
 33 34  1  0  0  0
 34 35  1  0  0  0
 34 36  1  0  0  0
 34 37  2  0  0  0
  3  4  1  0  0  0
  4  5  1  0  0  0
  4  6  1  0  0  0
  6  7  1  0  0  0
 19 11  1  0  0  0
  6  1  1  0  0  0
 19 15  2  0  0  0
 10 20  1  0  0  0
 10 21  1  0  0  0
 25 27  1  0  0  0
 30 32  1  0  0  0
 35 38  1  0  0  0
 36 39  1  0  0  0
  5  8  1  0  0  0
  7  9  1  0  0  0
M  END
> <minimizedAffinity>
-5.68569

> <CNNscore>
0.5004871488

> <CNNaffinity>
5.2620325089

> <CNN_VS>
2.6335797310

> <CNNaffinity_variance>
1.7086637020

$$$$
[H]O[C@]1([H])[C@@]([H])(C([H])([H])OP(=O)(O[H])OP(=O)(O[H])OP(=O)(O[H])O[H])OC([H])(n2c([H])nc3c(N([H])[H])nc([H])nc32)[C@]1([H])O[H]


 39 41  0  0  0  0  0  0  0  0999 V2000
  159.7018  141.2582  182.7248 C   0  0  0  0  0  0  0  0  0  0  0  0
  158.7161  140.4768  183.2581 O   0  0  0  0  0  0  0  0  0  0  0  0
  157.5118  141.1276  183.1682 C   0  0  0  0  0  0  0  0  0  0  0  0
  157.6333  141.9394  181.9115 C   0  0  0  0  0  0  0  0  0  0  0  0
  156.7142  142.9497  181.7972 O   0  0  0  0  0  0  0  0  0  0  0  0
  159.0531  142.4879  182.1284 C   0  0  0  0  0  0  0  0  0  0  0  0
  158.9384  143.5134  183.0405 O   0  0  0  0  0  0  0  0  0  0  0  0
  157.1002  143.8118  181.4901 H   0  0  0  0  0  0  0  0  0  0  0  0
  159.0683  143.2635  183.9728 H   0  0  0  0  0  0  0  0  0  0  0  0
  163.4394  142.8731  187.2166 N   0  0  0  0  0  0  0  0  0  0  0  0
  162.1225  142.6821  186.7176 C   0  0  0  0  0  0  0  0  0  0  0  0
  161.0261  142.9259  187.4566 N   0  0  0  0  0  0  0  0  0  0  0  0
  159.7844  142.7416  186.9739 C   0  0  0  0  0  0  0  0  0  0  0  0
  159.5721  142.2961  185.7047 N   0  0  0  0  0  0  0  0  0  0  0  0
  160.6374  142.0383  184.9263 C   0  0  0  0  0  0  0  0  0  0  0  0
  160.7527  141.6024  183.6725 N   0  0  0  0  0  0  0  0  0  0  0  0
  162.0574  141.5213  183.3923 C   0  0  0  0  0  0  0  0  0  0  0  0
  162.7699  141.9007  184.4535 N   0  0  0  0  0  0  0  0  0  0  0  0
  161.9019  142.2254  185.4165 C   0  0  0  0  0  0  0  0  0  0  0  0
  163.9384  142.0865  187.7202 H   0  0  0  0  0  0  0  0  0  0  0  0
  163.9674  143.7663  187.1178 H   0  0  0  0  0  0  0  0  0  0  0  0
  156.3227  140.2315  183.1988 C   0  0  0  0  0  0  0  0  0  0  0  0
  155.4925  140.3673  182.0933 O   0  0  0  0  0  0  0  0  0  0  0  0
  153.9297  140.7416  182.5350 P   0  0  0  0  0  0  0  0  0  0  0  0
  153.3026  139.5397  183.5587 O   0  0  0  0  0  0  0  0  0  0  0  0
  153.9514  142.0300  183.3594 O   0  0  0  0  0  0  0  0  0  0  0  0
  154.0728  139.0375  183.9668 H   0  0  0  0  0  0  0  0  0  0  0  0
  152.8989  140.9936  181.2425 O   0  0  0  0  0  0  0  0  0  0  0  0
  152.0022  139.6516  180.8209 P   0  0  0  0  0  0  0  0  0  0  0  0
  151.4590  139.8668  179.2219 O   0  0  0  0  0  0  0  0  0  0  0  0
  152.7952  138.3755  180.8461 O   0  0  0  0  0  0  0  0  0  0  0  0
  151.3287  140.8237  179.0104 H   0  0  0  0  0  0  0  0  0  0  0  0
  150.5978  139.5303  181.7828 O   0  0  0  0  0  0  0  0  0  0  0  0
  150.2996  137.9249  182.2045 P   0  0  0  0  0  0  0  0  0  0  0  0
  150.1623  137.0056  180.7815 O   0  0  0  0  0  0  0  0  0  0  0  0
  151.5949  137.2612  183.0838 O   0  0  0  0  0  0  0  0  0  0  0  0
  148.9924  137.7795  182.9507 O   0  0  0  0  0  0  0  0  0  0  0  0
  149.7104  137.5517  180.0910 H   0  0  0  0  0  0  0  0  0  0  0  0
  151.5833  137.5318  184.0211 H   0  0  0  0  0  0  0  0  0  0  0  0
 10 11  1  0  0  0
 11 12  2  0  0  0
 12 13  1  0  0  0
 13 14  2  0  0  0
 14 15  1  0  0  0
 15 16  1  0  0  0
 16 17  1  0  0  0
 17 18  2  0  0  0
 18 19  1  0  0  0
 16  1  1  0  0  0
  1  2  1  0  0  0
  2  3  1  0  0  0
  3 22  1  0  0  0
 22 23  1  0  0  0
 23 24  1  0  0  0
 24 25  1  0  0  0
 24 26  2  0  0  0
 24 28  1  0  0  0
 28 29  1  0  0  0
 29 30  1  0  0  0
 29 31  2  0  0  0
 29 33  1  0  0  0
 33 34  1  0  0  0
 34 35  1  0  0  0
 34 36  1  0  0  0
 34 37  2  0  0  0
  3  4  1  0  0  0
  4  5  1  0  0  0
  4  6  1  0  0  0
  6  7  1  0  0  0
 19 11  1  0  0  0
  6  1  1  0  0  0
 19 15  2  0  0  0
 10 20  1  0  0  0
 10 21  1  0  0  0
 25 27  1  0  0  0
 30 32  1  0  0  0
 35 38  1  0  0  0
 36 39  1  0  0  0
  5  8  1  0  0  0
  7  9  1  0  0  0
M  END
> <minimizedAffinity>
-7.22374

> <CNNscore>
0.4276698530

> <CNNaffinity>
4.9541335106

> <CNN_VS>
2.1187336445

> <CNNaffinity_variance>
1.1510592699

$$$$
[H]O[C@]1([H])[C@@]([H])(C([H])([H])OP(=O)(O[H])OP(=O)(O[H])OP(=O)(O[H])O[H])OC([H])(n2c([H])nc3c(N([H])[H])nc([H])nc32)[C@]1([H])O[H]


 39 41  0  0  0  0  0  0  0  0999 V2000
  158.8462  141.3627  183.1893 C   0  0  0  0  0  0  0  0  0  0  0  0
  157.4883  141.2712  183.3088 O   0  0  0  0  0  0  0  0  0  0  0  0
  156.8886  142.1532  182.4459 C   0  0  0  0  0  0  0  0  0  0  0  0
  157.8307  142.2134  181.2790 C   0  0  0  0  0  0  0  0  0  0  0  0
  157.6446  143.2921  180.4541 O   0  0  0  0  0  0  0  0  0  0  0  0
  159.1532  142.3169  182.0563 C   0  0  0  0  0  0  0  0  0  0  0  0
  159.2515  143.6224  182.4839 O   0  0  0  0  0  0  0  0  0  0  0  0
  158.4876  143.7447  180.1875 H   0  0  0  0  0  0  0  0  0  0  0  0
  158.9023  143.8003  183.3754 H   0  0  0  0  0  0  0  0  0  0  0  0
  162.3702  142.9046  187.8752 N   0  0  0  0  0  0  0  0  0  0  0  0
  162.2270  142.5260  186.5129 C   0  0  0  0  0  0  0  0  0  0  0  0
  163.2781  142.3862  185.6863 N   0  0  0  0  0  0  0  0  0  0  0  0
  163.1308  142.0273  184.3985 C   0  0  0  0  0  0  0  0  0  0  0  0
  161.9027  141.7857  183.8622 N   0  0  0  0  0  0  0  0  0  0  0  0
  160.8202  141.9123  184.6494 C   0  0  0  0  0  0  0  0  0  0  0  0
  159.5174  141.7482  184.4229 N   0  0  0  0  0  0  0  0  0  0  0  0
  158.8741  142.0056  185.5662 C   0  0  0  0  0  0  0  0  0  0  0  0
  159.7536  142.3307  186.5141 N   0  0  0  0  0  0  0  0  0  0  0  0
  160.9688  142.2775  185.9604 C   0  0  0  0  0  0  0  0  0  0  0  0
  162.3713  143.9280  188.1472 H   0  0  0  0  0  0  0  0  0  0  0  0
  162.4782  142.2199  188.6536 H   0  0  0  0  0  0  0  0  0  0  0  0
  155.4891  141.8010  182.0780 C   0  0  0  0  0  0  0  0  0  0  0  0
  155.2457  140.4336  182.0522 O   0  0  0  0  0  0  0  0  0  0  0  0
  154.5366  139.9044  183.4645 P   0  0  0  0  0  0  0  0  0  0  0  0
  155.6940  139.1641  184.4637 O   0  0  0  0  0  0  0  0  0  0  0  0
  154.0253  141.1205  184.2388 O   0  0  0  0  0  0  0  0  0  0  0  0
  156.6056  139.4841  184.1836 H   0  0  0  0  0  0  0  0  0  0  0  0
  153.2363  138.8790  183.2306 O   0  0  0  0  0  0  0  0  0  0  0  0
  153.0681  137.7186  184.4172 P   0  0  0  0  0  0  0  0  0  0  0  0
  154.2139  136.4955  184.1186 O   0  0  0  0  0  0  0  0  0  0  0  0
  153.3350  138.2406  185.8006 O   0  0  0  0  0  0  0  0  0  0  0  0
  154.4067  136.4091  183.1528 H   0  0  0  0  0  0  0  0  0  0  0  0
  151.5397  136.9655  184.3206 O   0  0  0  0  0  0  0  0  0  0  0  0
  151.3361  135.8636  185.5810 P   0  0  0  0  0  0  0  0  0  0  0  0
  152.5235  134.6553  185.4437 O   0  0  0  0  0  0  0  0  0  0  0  0
  151.5708  136.5999  187.0957 O   0  0  0  0  0  0  0  0  0  0  0  0
  149.9933  135.1725  185.5041 O   0  0  0  0  0  0  0  0  0  0  0  0
  152.6782  134.4673  184.4845 H   0  0  0  0  0  0  0  0  0  0  0  0
  150.7898  137.1080  187.3853 H   0  0  0  0  0  0  0  0  0  0  0  0
 10 11  1  0  0  0
 11 12  2  0  0  0
 12 13  1  0  0  0
 13 14  2  0  0  0
 14 15  1  0  0  0
 15 16  1  0  0  0
 16 17  1  0  0  0
 17 18  2  0  0  0
 18 19  1  0  0  0
 16  1  1  0  0  0
  1  2  1  0  0  0
  2  3  1  0  0  0
  3 22  1  0  0  0
 22 23  1  0  0  0
 23 24  1  0  0  0
 24 25  1  0  0  0
 24 26  2  0  0  0
 24 28  1  0  0  0
 28 29  1  0  0  0
 29 30  1  0  0  0
 29 31  2  0  0  0
 29 33  1  0  0  0
 33 34  1  0  0  0
 34 35  1  0  0  0
 34 36  1  0  0  0
 34 37  2  0  0  0
  3  4  1  0  0  0
  4  5  1  0  0  0
  4  6  1  0  0  0
  6  7  1  0  0  0
 19 11  1  0  0  0
  6  1  1  0  0  0
 19 15  2  0  0  0
 10 20  1  0  0  0
 10 21  1  0  0  0
 25 27  1  0  0  0
 30 32  1  0  0  0
 35 38  1  0  0  0
 36 39  1  0  0  0
  5  8  1  0  0  0
  7  9  1  0  0  0
M  END
> <minimizedAffinity>
-6.16790

> <CNNscore>
0.4235540330

> <CNNaffinity>
4.9261741638

> <CNN_VS>
2.0865008831

> <CNNaffinity_variance>
0.6129699945

$$$$
[H]O[C@]1([H])[C@@]([H])(C([H])([H])OP(=O)(O[H])OP(=O)(O[H])OP(=O)(O[H])O[H])OC([H])(n2c([H])nc3c(N([H])[H])nc([H])nc32)[C@]1([H])O[H]


 39 41  0  0  0  0  0  0  0  0999 V2000
  158.0914  140.4789  183.9037 C   0  0  0  0  0  0  0  0  0  0  0  0
  156.9720  139.8829  184.4118 O   0  0  0  0  0  0  0  0  0  0  0  0
  155.8569  140.3994  183.8020 C   0  0  0  0  0  0  0  0  0  0  0  0
  156.3243  140.7279  182.4140 C   0  0  0  0  0  0  0  0  0  0  0  0
  155.5059  141.5869  181.7277 O   0  0  0  0  0  0  0  0  0  0  0  0
  157.6649  141.3893  182.7732 C   0  0  0  0  0  0  0  0  0  0  0  0
  157.3663  142.6609  183.2097 O   0  0  0  0  0  0  0  0  0  0  0  0
  155.9919  142.3066  181.2457 H   0  0  0  0  0  0  0  0  0  0  0  0
  157.2468  142.7582  184.1714 H   0  0  0  0  0  0  0  0  0  0  0  0
  162.0334  143.3606  187.4968 N   0  0  0  0  0  0  0  0  0  0  0  0
  161.7338  142.7044  186.2724 C   0  0  0  0  0  0  0  0  0  0  0  0
  162.6447  142.5406  185.2972 N   0  0  0  0  0  0  0  0  0  0  0  0
  162.3500  141.9178  184.1422 C   0  0  0  0  0  0  0  0  0  0  0  0
  161.1067  141.4181  183.8993 N   0  0  0  0  0  0  0  0  0  0  0  0
  160.1609  141.5572  184.8445 C   0  0  0  0  0  0  0  0  0  0  0  0
  158.8829  141.1847  184.9020 N   0  0  0  0  0  0  0  0  0  0  0  0
  158.4012  141.5781  186.0853 C   0  0  0  0  0  0  0  0  0  0  0  0
  159.3587  142.1954  186.7782 N   0  0  0  0  0  0  0  0  0  0  0  0
  160.4597  142.1910  186.0206 C   0  0  0  0  0  0  0  0  0  0  0  0
  161.9124  144.4091  187.5838 H   0  0  0  0  0  0  0  0  0  0  0  0
  162.3766  142.8635  188.3462 H   0  0  0  0  0  0  0  0  0  0  0  0
  154.6627  139.5105  183.8454 C   0  0  0  0  0  0  0  0  0  0  0  0
  154.1934  139.1442  182.5903 O   0  0  0  0  0  0  0  0  0  0  0  0
  152.7235  138.3642  182.6826 P   0  0  0  0  0  0  0  0  0  0  0  0
  152.3803  137.9418  184.2918 O   0  0  0  0  0  0  0  0  0  0  0  0
  151.6256  139.3413  182.2585 O   0  0  0  0  0  0  0  0  0  0  0  0
  152.9330  138.5247  184.8972 H   0  0  0  0  0  0  0  0  0  0  0  0
  152.6033  137.0197  181.6953 O   0  0  0  0  0  0  0  0  0  0  0  0
  151.5206  135.8741  182.2415 P   0  0  0  0  0  0  0  0  0  0  0  0
  150.1344  136.6892  182.8004 O   0  0  0  0  0  0  0  0  0  0  0  0
  151.0678  134.9252  181.1680 O   0  0  0  0  0  0  0  0  0  0  0  0
  150.3595  137.5852  183.1520 H   0  0  0  0  0  0  0  0  0  0  0  0
  152.1488  135.0354  183.5885 O   0  0  0  0  0  0  0  0  0  0  0  0
  150.9087  134.5632  184.6294 P   0  0  0  0  0  0  0  0  0  0  0  0
  150.4431  135.9045  185.5638 O   0  0  0  0  0  0  0  0  0  0  0  0
  149.5267  134.0723  183.7690 O   0  0  0  0  0  0  0  0  0  0  0  0
  151.3691  133.4932  185.5936 O   0  0  0  0  0  0  0  0  0  0  0  0
  151.2469  136.4424  185.7729 H   0  0  0  0  0  0  0  0  0  0  0  0
  149.6099  133.1642  183.4218 H   0  0  0  0  0  0  0  0  0  0  0  0
 10 11  1  0  0  0
 11 12  2  0  0  0
 12 13  1  0  0  0
 13 14  2  0  0  0
 14 15  1  0  0  0
 15 16  1  0  0  0
 16 17  1  0  0  0
 17 18  2  0  0  0
 18 19  1  0  0  0
 16  1  1  0  0  0
  1  2  1  0  0  0
  2  3  1  0  0  0
  3 22  1  0  0  0
 22 23  1  0  0  0
 23 24  1  0  0  0
 24 25  1  0  0  0
 24 26  2  0  0  0
 24 28  1  0  0  0
 28 29  1  0  0  0
 29 30  1  0  0  0
 29 31  2  0  0  0
 29 33  1  0  0  0
 33 34  1  0  0  0
 34 35  1  0  0  0
 34 36  1  0  0  0
 34 37  2  0  0  0
  3  4  1  0  0  0
  4  5  1  0  0  0
  4  6  1  0  0  0
  6  7  1  0  0  0
 19 11  1  0  0  0
  6  1  1  0  0  0
 19 15  2  0  0  0
 10 20  1  0  0  0
 10 21  1  0  0  0
 25 27  1  0  0  0
 30 32  1  0  0  0
 35 38  1  0  0  0
 36 39  1  0  0  0
  5  8  1  0  0  0
  7  9  1  0  0  0
M  END
> <minimizedAffinity>
-5.78814

> <CNNscore>
0.4132190347

> <CNNaffinity>
5.0185766220

> <CNN_VS>
2.0737714767

> <CNNaffinity_variance>
1.1528190374

$$$$
[H]O[C@]1([H])[C@@]([H])(C([H])([H])OP(=O)(O[H])OP(=O)(O[H])OP(=O)(O[H])O[H])OC([H])(n2c([H])nc3c(N([H])[H])nc([H])nc32)[C@]1([H])O[H]


 39 41  0  0  0  0  0  0  0  0999 V2000
  158.1129  140.4509  184.0197 C   0  0  0  0  0  0  0  0  0  0  0  0
  156.9665  139.9239  184.5436 O   0  0  0  0  0  0  0  0  0  0  0  0
  155.8785  140.4445  183.8902 C   0  0  0  0  0  0  0  0  0  0  0  0
  156.3746  140.6786  182.4930 C   0  0  0  0  0  0  0  0  0  0  0  0
  155.5963  141.5265  181.7487 O   0  0  0  0  0  0  0  0  0  0  0  0
  157.7336  141.3114  182.8346 C   0  0  0  0  0  0  0  0  0  0  0  0
  157.4756  142.6150  183.1960 O   0  0  0  0  0  0  0  0  0  0  0  0
  156.1138  142.2007  181.2348 H   0  0  0  0  0  0  0  0  0  0  0  0
  157.3476  142.7698  184.1489 H   0  0  0  0  0  0  0  0  0  0  0  0
  162.0977  143.4309  187.4831 N   0  0  0  0  0  0  0  0  0  0  0  0
  161.7819  142.7452  186.2790 C   0  0  0  0  0  0  0  0  0  0  0  0
  162.6783  142.5624  185.2938 N   0  0  0  0  0  0  0  0  0  0  0  0
  162.3684  141.9118  184.1583 C   0  0  0  0  0  0  0  0  0  0  0  0
  161.1237  141.4017  183.9464 N   0  0  0  0  0  0  0  0  0  0  0  0
  160.1921  141.5589  184.9028 C   0  0  0  0  0  0  0  0  0  0  0  0
  158.9168  141.1828  184.9889 N   0  0  0  0  0  0  0  0  0  0  0  0
  158.4518  141.6017  186.1702 C   0  0  0  0  0  0  0  0  0  0  0  0
  159.4172  142.2387  186.8335 N   0  0  0  0  0  0  0  0  0  0  0  0
  160.5064  142.2211  186.0591 C   0  0  0  0  0  0  0  0  0  0  0  0
  161.9736  144.4806  187.5476 H   0  0  0  0  0  0  0  0  0  0  0  0
  162.4562  142.9550  188.3383 H   0  0  0  0  0  0  0  0  0  0  0  0
  154.6526  139.6022  183.9652 C   0  0  0  0  0  0  0  0  0  0  0  0
  154.8868  138.3159  184.4346 O   0  0  0  0  0  0  0  0  0  0  0  0
  153.5036  137.3866  184.4103 P   0  0  0  0  0  0  0  0  0  0  0  0
  153.8561  135.8194  183.8576 O   0  0  0  0  0  0  0  0  0  0  0  0
  152.9994  137.2254  185.8455 O   0  0  0  0  0  0  0  0  0  0  0  0
  154.8407  135.6541  183.9802 H   0  0  0  0  0  0  0  0  0  0  0  0
  152.2556  138.0470  183.5142 O   0  0  0  0  0  0  0  0  0  0  0  0
  151.2357  136.9137  182.8371 P   0  0  0  0  0  0  0  0  0  0  0  0
  152.0903  136.1131  181.6015 O   0  0  0  0  0  0  0  0  0  0  0  0
  150.7863  135.8618  183.8113 O   0  0  0  0  0  0  0  0  0  0  0  0
  152.7650  136.7050  181.1870 H   0  0  0  0  0  0  0  0  0  0  0  0
  149.9059  137.6671  182.0779 O   0  0  0  0  0  0  0  0  0  0  0  0
  148.4928  137.4189  182.9642 P   0  0  0  0  0  0  0  0  0  0  0  0
  148.8542  137.5723  184.6179 O   0  0  0  0  0  0  0  0  0  0  0  0
  147.3228  138.6024  182.6149 O   0  0  0  0  0  0  0  0  0  0  0  0
  147.9463  136.0237  182.7603 O   0  0  0  0  0  0  0  0  0  0  0  0
  149.7552  137.1981  184.7837 H   0  0  0  0  0  0  0  0  0  0  0  0
  146.8544  138.4242  181.7777 H   0  0  0  0  0  0  0  0  0  0  0  0
 10 11  1  0  0  0
 11 12  2  0  0  0
 12 13  1  0  0  0
 13 14  2  0  0  0
 14 15  1  0  0  0
 15 16  1  0  0  0
 16 17  1  0  0  0
 17 18  2  0  0  0
 18 19  1  0  0  0
 16  1  1  0  0  0
  1  2  1  0  0  0
  2  3  1  0  0  0
  3 22  1  0  0  0
 22 23  1  0  0  0
 23 24  1  0  0  0
 24 25  1  0  0  0
 24 26  2  0  0  0
 24 28  1  0  0  0
 28 29  1  0  0  0
 29 30  1  0  0  0
 29 31  2  0  0  0
 29 33  1  0  0  0
 33 34  1  0  0  0
 34 35  1  0  0  0
 34 36  1  0  0  0
 34 37  2  0  0  0
  3  4  1  0  0  0
  4  5  1  0  0  0
  4  6  1  0  0  0
  6  7  1  0  0  0
 19 11  1  0  0  0
  6  1  1  0  0  0
 19 15  2  0  0  0
 10 20  1  0  0  0
 10 21  1  0  0  0
 25 27  1  0  0  0
 30 32  1  0  0  0
 35 38  1  0  0  0
 36 39  1  0  0  0
  5  8  1  0  0  0
  7  9  1  0  0  0
M  END
> <minimizedAffinity>
-6.22767

> <CNNscore>
0.4044443965

> <CNNaffinity>
4.8539214134

> <CNN_VS>
1.9631413221

> <CNNaffinity_variance>
1.0061662197

$$$$
[H]O[C@]1([H])[C@@]([H])(C([H])([H])OP(=O)(O[H])OP(=O)(O[H])OP(=O)(O[H])O[H])OC([H])(n2c([H])nc3c(N([H])[H])nc([H])nc32)[C@]1([H])O[H]


 39 41  0  0  0  0  0  0  0  0999 V2000
  158.1272  140.4780  183.8687 C   0  0  0  0  0  0  0  0  0  0  0  0
  157.0035  139.8789  184.3635 O   0  0  0  0  0  0  0  0  0  0  0  0
  155.8941  140.3944  183.7426 C   0  0  0  0  0  0  0  0  0  0  0  0
  156.3758  140.7264  182.3604 C   0  0  0  0  0  0  0  0  0  0  0  0
  155.5632  141.5853  181.6670 O   0  0  0  0  0  0  0  0  0  0  0  0
  157.7112  141.3896  182.7353 C   0  0  0  0  0  0  0  0  0  0  0  0
  157.4055  142.6599  183.1710 O   0  0  0  0  0  0  0  0  0  0  0  0
  156.0530  142.3068  181.1916 H   0  0  0  0  0  0  0  0  0  0  0  0
  157.2755  142.7551  184.1315 H   0  0  0  0  0  0  0  0  0  0  0  0
  162.0247  143.3602  187.5095 N   0  0  0  0  0  0  0  0  0  0  0  0
  161.7395  142.7058  186.2806 C   0  0  0  0  0  0  0  0  0  0  0  0
  162.6612  142.5458  185.3150 N   0  0  0  0  0  0  0  0  0  0  0  0
  162.3801  141.9247  184.1556 C   0  0  0  0  0  0  0  0  0  0  0  0
  161.1405  141.4231  183.8984 N   0  0  0  0  0  0  0  0  0  0  0  0
  160.1844  141.5584  184.8337 C   0  0  0  0  0  0  0  0  0  0  0  0
  158.9066  141.1832  184.8767 N   0  0  0  0  0  0  0  0  0  0  0  0
  158.4114  141.5733  186.0556 C   0  0  0  0  0  0  0  0  0  0  0  0
  159.3602  142.1911  186.7599 N   0  0  0  0  0  0  0  0  0  0  0  0
  160.4693  142.1904  186.0142 C   0  0  0  0  0  0  0  0  0  0  0  0
  161.9007  144.4082  187.5972 H   0  0  0  0  0  0  0  0  0  0  0  0
  162.3598  142.8621  188.3615 H   0  0  0  0  0  0  0  0  0  0  0  0
  154.7012  139.5033  183.7715 C   0  0  0  0  0  0  0  0  0  0  0  0
  153.9614  139.5983  184.9433 O   0  0  0  0  0  0  0  0  0  0  0  0
  153.9953  138.1775  185.8137 P   0  0  0  0  0  0  0  0  0  0  0  0
  154.3829  136.8727  184.7973 O   0  0  0  0  0  0  0  0  0  0  0  0
  155.1245  138.2625  186.8420 O   0  0  0  0  0  0  0  0  0  0  0  0
  154.8413  137.2344  183.9782 H   0  0  0  0  0  0  0  0  0  0  0  0
  152.5825  137.8574  186.6495 O   0  0  0  0  0  0  0  0  0  0  0  0
  151.5191  136.8697  185.8271 P   0  0  0  0  0  0  0  0  0  0  0  0
  152.1334  135.2829  185.8778 O   0  0  0  0  0  0  0  0  0  0  0  0
  150.1490  136.8289  186.4428 O   0  0  0  0  0  0  0  0  0  0  0  0
  153.1212  135.2790  185.9160 H   0  0  0  0  0  0  0  0  0  0  0  0
  151.4464  137.2939  184.1757 O   0  0  0  0  0  0  0  0  0  0  0  0
  151.2906  135.9187  183.2121 P   0  0  0  0  0  0  0  0  0  0  0  0
  150.8745  136.4029  181.6369 O   0  0  0  0  0  0  0  0  0  0  0  0
  152.7631  135.0778  183.0845 O   0  0  0  0  0  0  0  0  0  0  0  0
  150.1801  135.0179  183.7039 O   0  0  0  0  0  0  0  0  0  0  0  0
  150.2692  137.1838  181.6925 H   0  0  0  0  0  0  0  0  0  0  0  0
  152.9469  134.5315  183.8717 H   0  0  0  0  0  0  0  0  0  0  0  0
 10 11  1  0  0  0
 11 12  2  0  0  0
 12 13  1  0  0  0
 13 14  2  0  0  0
 14 15  1  0  0  0
 15 16  1  0  0  0
 16 17  1  0  0  0
 17 18  2  0  0  0
 18 19  1  0  0  0
 16  1  1  0  0  0
  1  2  1  0  0  0
  2  3  1  0  0  0
  3 22  1  0  0  0
 22 23  1  0  0  0
 23 24  1  0  0  0
 24 25  1  0  0  0
 24 26  2  0  0  0
 24 28  1  0  0  0
 28 29  1  0  0  0
 29 30  1  0  0  0
 29 31  2  0  0  0
 29 33  1  0  0  0
 33 34  1  0  0  0
 34 35  1  0  0  0
 34 36  1  0  0  0
 34 37  2  0  0  0
  3  4  1  0  0  0
  4  5  1  0  0  0
  4  6  1  0  0  0
  6  7  1  0  0  0
 19 11  1  0  0  0
  6  1  1  0  0  0
 19 15  2  0  0  0
 10 20  1  0  0  0
 10 21  1  0  0  0
 25 27  1  0  0  0
 30 32  1  0  0  0
 35 38  1  0  0  0
 36 39  1  0  0  0
  5  8  1  0  0  0
  7  9  1  0  0  0
M  END
> <minimizedAffinity>
-6.17959

> <CNNscore>
0.3873342574

> <CNNaffinity>
4.8779535294

> <CNN_VS>
1.8893984556

> <CNNaffinity_variance>
0.8399196863

$$$$
[H]O[C@]1([H])[C@@]([H])(C([H])([H])OP(=O)(O[H])OP(=O)(O[H])OP(=O)(O[H])O[H])OC([H])(n2c([H])nc3c(N([H])[H])nc([H])nc32)[C@]1([H])O[H]


 39 41  0  0  0  0  0  0  0  0999 V2000
  158.0775  140.4845  183.9611 C   0  0  0  0  0  0  0  0  0  0  0  0
  156.8486  140.1109  184.4266 O   0  0  0  0  0  0  0  0  0  0  0  0
  155.8690  140.6965  183.6654 C   0  0  0  0  0  0  0  0  0  0  0  0
  156.4817  140.7896  182.2983 C   0  0  0  0  0  0  0  0  0  0  0  0
  155.8502  141.6629  181.4514 O   0  0  0  0  0  0  0  0  0  0  0  0
  157.8734  141.3018  182.7045 C   0  0  0  0  0  0  0  0  0  0  0  0
  157.7304  142.6452  182.9717 O   0  0  0  0  0  0  0  0  0  0  0  0
  156.4702  142.2471  180.9406 H   0  0  0  0  0  0  0  0  0  0  0  0
  157.5544  142.8725  183.9022 H   0  0  0  0  0  0  0  0  0  0  0  0
  162.0834  143.3591  187.4885 N   0  0  0  0  0  0  0  0  0  0  0  0
  161.7650  142.6949  186.2731 C   0  0  0  0  0  0  0  0  0  0  0  0
  162.6645  142.5134  185.2905 N   0  0  0  0  0  0  0  0  0  0  0  0
  162.3521  141.8831  184.1442 C   0  0  0  0  0  0  0  0  0  0  0  0
  161.1016  141.3936  183.9182 N   0  0  0  0  0  0  0  0  0  0  0  0
  160.1668  141.5506  184.8715 C   0  0  0  0  0  0  0  0  0  0  0  0
  158.8858  141.1913  184.9450 N   0  0  0  0  0  0  0  0  0  0  0  0
  158.4199  141.6001  186.1294 C   0  0  0  0  0  0  0  0  0  0  0  0
  159.3903  142.2141  186.8071 N   0  0  0  0  0  0  0  0  0  0  0  0
  160.4836  142.1919  186.0387 C   0  0  0  0  0  0  0  0  0  0  0  0
  161.9736  144.4095  187.5672 H   0  0  0  0  0  0  0  0  0  0  0  0
  162.4302  142.8663  188.3389 H   0  0  0  0  0  0  0  0  0  0  0  0
  154.5587  139.9892  183.6958 C   0  0  0  0  0  0  0  0  0  0  0  0
  154.2295  139.3717  182.4958 O   0  0  0  0  0  0  0  0  0  0  0  0
  152.8850  140.0617  181.7931 P   0  0  0  0  0  0  0  0  0  0  0  0
  152.9195  141.7491  181.9861 O   0  0  0  0  0  0  0  0  0  0  0  0
  152.9381  139.8074  180.2856 O   0  0  0  0  0  0  0  0  0  0  0  0
  153.8688  142.0280  182.1674 H   0  0  0  0  0  0  0  0  0  0  0  0
  151.4336  139.4469  182.3520 O   0  0  0  0  0  0  0  0  0  0  0  0
  151.4089  137.7840  182.4823 P   0  0  0  0  0  0  0  0  0  0  0  0
  152.5333  137.1555  181.3693 O   0  0  0  0  0  0  0  0  0  0  0  0
  151.8144  137.2887  183.8417 O   0  0  0  0  0  0  0  0  0  0  0  0
  152.6232  137.7404  180.5775 H   0  0  0  0  0  0  0  0  0  0  0  0
  149.8895  137.1592  182.0204 O   0  0  0  0  0  0  0  0  0  0  0  0
  149.2055  138.0961  180.7962 P   0  0  0  0  0  0  0  0  0  0  0  0
  148.6111  139.5341  181.4801 O   0  0  0  0  0  0  0  0  0  0  0  0
  150.3663  138.5555  179.6416 O   0  0  0  0  0  0  0  0  0  0  0  0
  148.0304  137.3965  180.1511 O   0  0  0  0  0  0  0  0  0  0  0  0
  148.2424  139.3329  182.3761 H   0  0  0  0  0  0  0  0  0  0  0  0
  150.5650  137.8382  179.0108 H   0  0  0  0  0  0  0  0  0  0  0  0
 10 11  1  0  0  0
 11 12  2  0  0  0
 12 13  1  0  0  0
 13 14  2  0  0  0
 14 15  1  0  0  0
 15 16  1  0  0  0
 16 17  1  0  0  0
 17 18  2  0  0  0
 18 19  1  0  0  0
 16  1  1  0  0  0
  1  2  1  0  0  0
  2  3  1  0  0  0
  3 22  1  0  0  0
 22 23  1  0  0  0
 23 24  1  0  0  0
 24 25  1  0  0  0
 24 26  2  0  0  0
 24 28  1  0  0  0
 28 29  1  0  0  0
 29 30  1  0  0  0
 29 31  2  0  0  0
 29 33  1  0  0  0
 33 34  1  0  0  0
 34 35  1  0  0  0
 34 36  1  0  0  0
 34 37  2  0  0  0
  3  4  1  0  0  0
  4  5  1  0  0  0
  4  6  1  0  0  0
  6  7  1  0  0  0
 19 11  1  0  0  0
  6  1  1  0  0  0
 19 15  2  0  0  0
 10 20  1  0  0  0
 10 21  1  0  0  0
 25 27  1  0  0  0
 30 32  1  0  0  0
 35 38  1  0  0  0
 36 39  1  0  0  0
  5  8  1  0  0  0
  7  9  1  0  0  0
M  END
> <minimizedAffinity>
-6.82528

> <CNNscore>
0.3741593957

> <CNNaffinity>
4.6615943909

> <CNN_VS>
1.7441793680

> <CNNaffinity_variance>
0.7418192625

$$$$
[H]O[C@]1([H])[C@@]([H])(C([H])([H])OP(=O)(O[H])OP(=O)(O[H])OP(=O)(O[H])O[H])OC([H])(n2c([H])nc3c(N([H])[H])nc([H])nc32)[C@]1([H])O[H]


 39 41  0  0  0  0  0  0  0  0999 V2000
  158.1801  140.5628  183.7933 C   0  0  0  0  0  0  0  0  0  0  0  0
  156.9996  140.0383  184.2381 O   0  0  0  0  0  0  0  0  0  0  0  0
  155.9543  140.6169  183.5640 C   0  0  0  0  0  0  0  0  0  0  0  0
  156.5189  140.9081  182.2041 C   0  0  0  0  0  0  0  0  0  0  0  0
  155.7943  141.8104  181.4697 O   0  0  0  0  0  0  0  0  0  0  0  0
  157.8744  141.4900  182.6376 C   0  0  0  0  0  0  0  0  0  0  0  0
  157.6287  142.7799  183.0528 O   0  0  0  0  0  0  0  0  0  0  0  0
  156.3495  142.4966  181.0143 H   0  0  0  0  0  0  0  0  0  0  0  0
  157.4607  142.8902  184.0057 H   0  0  0  0  0  0  0  0  0  0  0  0
  162.0640  143.2786  187.5739 N   0  0  0  0  0  0  0  0  0  0  0  0
  161.7872  142.6669  186.3213 C   0  0  0  0  0  0  0  0  0  0  0  0
  162.7197  142.5255  185.3632 N   0  0  0  0  0  0  0  0  0  0  0  0
  162.4464  141.9449  184.1812 C   0  0  0  0  0  0  0  0  0  0  0  0
  161.2043  141.4676  183.8921 N   0  0  0  0  0  0  0  0  0  0  0  0
  160.2374  141.5857  184.8187 C   0  0  0  0  0  0  0  0  0  0  0  0
  158.9546  141.2259  184.8333 N   0  0  0  0  0  0  0  0  0  0  0  0
  158.4486  141.5851  186.0173 C   0  0  0  0  0  0  0  0  0  0  0  0
  159.3954  142.1681  186.7531 N   0  0  0  0  0  0  0  0  0  0  0  0
  160.5143  142.1766  186.0222 C   0  0  0  0  0  0  0  0  0  0  0  0
  161.9519  144.3249  187.6931 H   0  0  0  0  0  0  0  0  0  0  0  0
  162.3814  142.7496  188.4140 H   0  0  0  0  0  0  0  0  0  0  0  0
  154.7081  139.8018  183.5415 C   0  0  0  0  0  0  0  0  0  0  0  0
  154.0669  139.7278  184.7715 O   0  0  0  0  0  0  0  0  0  0  0  0
  154.1876  138.2068  185.4420 P   0  0  0  0  0  0  0  0  0  0  0  0
  152.7057  137.7489  186.1350 O   0  0  0  0  0  0  0  0  0  0  0  0
  154.4597  137.2007  184.3224 O   0  0  0  0  0  0  0  0  0  0  0  0
  151.9770  138.3049  185.7207 H   0  0  0  0  0  0  0  0  0  0  0  0
  155.4200  138.0525  186.5619 O   0  0  0  0  0  0  0  0  0  0  0  0
  154.8997  137.6083  188.0834 P   0  0  0  0  0  0  0  0  0  0  0  0
  153.7370  138.7437  188.5905 O   0  0  0  0  0  0  0  0  0  0  0  0
  154.2377  136.2598  188.1146 O   0  0  0  0  0  0  0  0  0  0  0  0
  153.9097  139.6359  188.2014 H   0  0  0  0  0  0  0  0  0  0  0  0
  156.1740  137.7021  189.2147 O   0  0  0  0  0  0  0  0  0  0  0  0
  155.5732  137.7276  190.7903 P   0  0  0  0  0  0  0  0  0  0  0  0
  154.1737  136.7651  190.8540 O   0  0  0  0  0  0  0  0  0  0  0  0
  156.6775  137.0454  191.8887 O   0  0  0  0  0  0  0  0  0  0  0  0
  155.1676  139.1230  191.2083 O   0  0  0  0  0  0  0  0  0  0  0  0
  153.6745  136.8712  190.0062 H   0  0  0  0  0  0  0  0  0  0  0  0
  157.3919  137.6652  192.1284 H   0  0  0  0  0  0  0  0  0  0  0  0
 10 11  1  0  0  0
 11 12  2  0  0  0
 12 13  1  0  0  0
 13 14  2  0  0  0
 14 15  1  0  0  0
 15 16  1  0  0  0
 16 17  1  0  0  0
 17 18  2  0  0  0
 18 19  1  0  0  0
 16  1  1  0  0  0
  1  2  1  0  0  0
  2  3  1  0  0  0
  3 22  1  0  0  0
 22 23  1  0  0  0
 23 24  1  0  0  0
 24 25  1  0  0  0
 24 26  2  0  0  0
 24 28  1  0  0  0
 28 29  1  0  0  0
 29 30  1  0  0  0
 29 31  2  0  0  0
 29 33  1  0  0  0
 33 34  1  0  0  0
 34 35  1  0  0  0
 34 36  1  0  0  0
 34 37  2  0  0  0
  3  4  1  0  0  0
  4  5  1  0  0  0
  4  6  1  0  0  0
  6  7  1  0  0  0
 19 11  1  0  0  0
  6  1  1  0  0  0
 19 15  2  0  0  0
 10 20  1  0  0  0
 10 21  1  0  0  0
 25 27  1  0  0  0
 30 32  1  0  0  0
 35 38  1  0  0  0
 36 39  1  0  0  0
  5  8  1  0  0  0
  7  9  1  0  0  0
M  END
> <minimizedAffinity>
-7.42758

> <CNNscore>
0.2994304597

> <CNNaffinity>
4.9192857742

> <CNN_VS>
1.4729839563

> <CNNaffinity_variance>
0.9103243947

$$$$
[H]O[C@]1([H])[C@@]([H])(C([H])([H])OP(=O)(O[H])OP(=O)(O[H])OP(=O)(O[H])O[H])OC([H])(n2c([H])nc3c(N([H])[H])nc([H])nc32)[C@]1([H])O[H]


 39 41  0  0  0  0  0  0  0  0999 V2000
  159.4879  140.8764  182.7818 C   0  0  0  0  0  0  0  0  0  0  0  0
  158.6011  140.0241  183.3764 O   0  0  0  0  0  0  0  0  0  0  0  0
  157.3372  140.5534  183.3108 C   0  0  0  0  0  0  0  0  0  0  0  0
  157.3366  141.3279  182.0252 C   0  0  0  0  0  0  0  0  0  0  0  0
  156.3209  142.2414  181.9130 O   0  0  0  0  0  0  0  0  0  0  0  0
  158.7034  142.0167  182.1710 C   0  0  0  0  0  0  0  0  0  0  0  0
  158.5215  143.0583  183.0535 O   0  0  0  0  0  0  0  0  0  0  0  0
  156.6111  143.1249  181.5643 H   0  0  0  0  0  0  0  0  0  0  0  0
  158.7068  142.8552  183.9878 H   0  0  0  0  0  0  0  0  0  0  0  0
  163.2020  143.0111  187.0716 N   0  0  0  0  0  0  0  0  0  0  0  0
  161.8925  142.6854  186.6257 C   0  0  0  0  0  0  0  0  0  0  0  0
  160.8014  142.8684  187.3895 N   0  0  0  0  0  0  0  0  0  0  0  0
  159.5667  142.5566  186.9571 C   0  0  0  0  0  0  0  0  0  0  0  0
  159.3566  142.0363  185.7164 N   0  0  0  0  0  0  0  0  0  0  0  0
  160.4168  141.8347  184.9148 C   0  0  0  0  0  0  0  0  0  0  0  0
  160.5325  141.3527  183.6780 N   0  0  0  0  0  0  0  0  0  0  0  0
  161.8304  141.3706  183.3581 C   0  0  0  0  0  0  0  0  0  0  0  0
  162.5383  141.8582  184.3774 N   0  0  0  0  0  0  0  0  0  0  0  0
  161.6742  142.1517  185.3538 C   0  0  0  0  0  0  0  0  0  0  0  0
  163.7822  142.2941  187.5920 H   0  0  0  0  0  0  0  0  0  0  0  0
  163.6473  143.9406  186.9164 H   0  0  0  0  0  0  0  0  0  0  0  0
  156.2419  139.5496  183.4147 C   0  0  0  0  0  0  0  0  0  0  0  0
  155.0633  140.0618  183.9421 O   0  0  0  0  0  0  0  0  0  0  0  0
  154.0411  138.8526  184.4623 P   0  0  0  0  0  0  0  0  0  0  0  0
  153.3584  139.2630  185.9627 O   0  0  0  0  0  0  0  0  0  0  0  0
  152.8726  138.7463  183.4809 O   0  0  0  0  0  0  0  0  0  0  0  0
  153.4224  140.2602  186.0779 H   0  0  0  0  0  0  0  0  0  0  0  0
  154.7590  137.3447  184.5485 O   0  0  0  0  0  0  0  0  0  0  0  0
  154.8082  136.7061  186.0889 P   0  0  0  0  0  0  0  0  0  0  0  0
  153.2348  136.7777  186.7351 O   0  0  0  0  0  0  0  0  0  0  0  0
  155.2296  135.2642  186.1209 O   0  0  0  0  0  0  0  0  0  0  0  0
  152.7285  137.5438  186.3690 H   0  0  0  0  0  0  0  0  0  0  0  0
  155.7822  137.6617  187.1138 O   0  0  0  0  0  0  0  0  0  0  0  0
  155.1531  137.6914  188.6783 P   0  0  0  0  0  0  0  0  0  0  0  0
  156.3517  138.2702  189.7353 O   0  0  0  0  0  0  0  0  0  0  0  0
  153.8417  138.7668  188.8017 O   0  0  0  0  0  0  0  0  0  0  0  0
  154.7786  136.3056  189.1536 O   0  0  0  0  0  0  0  0  0  0  0  0
  157.2321  137.9323  189.4352 H   0  0  0  0  0  0  0  0  0  0  0  0
  153.0147  138.3837  188.4535 H   0  0  0  0  0  0  0  0  0  0  0  0
 10 11  1  0  0  0
 11 12  2  0  0  0
 12 13  1  0  0  0
 13 14  2  0  0  0
 14 15  1  0  0  0
 15 16  1  0  0  0
 16 17  1  0  0  0
 17 18  2  0  0  0
 18 19  1  0  0  0
 16  1  1  0  0  0
  1  2  1  0  0  0
  2  3  1  0  0  0
  3 22  1  0  0  0
 22 23  1  0  0  0
 23 24  1  0  0  0
 24 25  1  0  0  0
 24 26  2  0  0  0
 24 28  1  0  0  0
 28 29  1  0  0  0
 29 30  1  0  0  0
 29 31  2  0  0  0
 29 33  1  0  0  0
 33 34  1  0  0  0
 34 35  1  0  0  0
 34 36  1  0  0  0
 34 37  2  0  0  0
  3  4  1  0  0  0
  4  5  1  0  0  0
  4  6  1  0  0  0
  6  7  1  0  0  0
 19 11  1  0  0  0
  6  1  1  0  0  0
 19 15  2  0  0  0
 10 20  1  0  0  0
 10 21  1  0  0  0
 25 27  1  0  0  0
 30 32  1  0  0  0
 35 38  1  0  0  0
 36 39  1  0  0  0
  5  8  1  0  0  0
  7  9  1  0  0  0
M  END
> <minimizedAffinity>
-6.16079

> <CNNscore>
0.2965929210

> <CNNaffinity>
4.9875450134

> <CNN_VS>
1.4792705774

> <CNNaffinity_variance>
1.3963289261

$$$$
[H]OC(=O)c1c([H])c([H])c(-c2c([H])c([H])c(N3C(=O)N(c4nc([H])n([H])c(=O)c4[H])C4(C3=O)C([H])([H])C([H])([H])N(C([H])([H])c3nc([H])c([H])c([H])c3C([H])([H])[H])C([H])([H])C4([H])[H])c([H])c2[H])c([H])c1[H]


 44 49  0  0  0  0  0  0  0  0999 V2000
  152.8243  137.3886  182.3877 N   0  0  0  0  0  0  0  0  0  0  0  0
  151.8914  137.3670  183.5111 C   0  0  0  0  0  0  0  0  0  0  0  0
  151.3149  136.0366  183.8081 C   0  0  0  0  0  0  0  0  0  0  0  0
  152.2935  134.9207  183.8226 C   0  0  0  0  0  0  0  0  0  0  0  0
  153.1813  134.9759  182.5980 C   0  0  0  0  0  0  0  0  0  0  0  0
  152.7500  136.1036  181.6906 C   0  0  0  0  0  0  0  0  0  0  0  0
  151.6900  133.6244  183.9808 N   0  0  0  0  0  0  0  0  0  0  0  0
  152.5984  132.8206  184.7565 C   0  0  0  0  0  0  0  0  0  0  0  0
  152.5657  131.5554  184.8687 O   0  0  0  0  0  0  0  0  0  0  0  0
  153.5545  133.6591  185.3904 N   0  0  0  0  0  0  0  0  0  0  0  0
  153.2202  134.9842  184.9963 C   0  0  0  0  0  0  0  0  0  0  0  0
  153.6696  136.0009  185.5871 O   0  0  0  0  0  0  0  0  0  0  0  0
  150.4544  133.1022  183.5032 C   0  0  0  0  0  0  0  0  0  0  0  0
  150.1658  132.9335  182.1814 C   0  0  0  0  0  0  0  0  0  0  0  0
  148.9331  132.4204  181.8339 C   0  0  0  0  0  0  0  0  0  0  0  0
  148.7011  132.2770  180.5924 O   0  0  0  0  0  0  0  0  0  0  0  0
  148.0060  132.0804  182.7508 N   0  0  0  0  0  0  0  0  0  0  0  0
  148.2975  132.2499  184.0580 C   0  0  0  0  0  0  0  0  0  0  0  0
  149.4758  132.7406  184.3922 N   0  0  0  0  0  0  0  0  0  0  0  0
  147.0826  131.6943  182.4564 H   0  0  0  0  0  0  0  0  0  0  0  0
  154.6397  133.2548  186.2458 C   0  0  0  0  0  0  0  0  0  0  0  0
  155.9619  133.3565  185.8748 C   0  0  0  0  0  0  0  0  0  0  0  0
  156.9715  132.9512  186.7235 C   0  0  0  0  0  0  0  0  0  0  0  0
  156.7185  132.4284  187.9742 C   0  0  0  0  0  0  0  0  0  0  0  0
  155.4011  132.3208  188.3600 C   0  0  0  0  0  0  0  0  0  0  0  0
  154.3864  132.7326  187.4971 C   0  0  0  0  0  0  0  0  0  0  0  0
  157.8428  132.0112  188.8200 C   0  0  0  0  0  0  0  0  0  0  0  0
  157.9255  132.3608  190.1500 C   0  0  0  0  0  0  0  0  0  0  0  0
  158.9688  131.9857  190.9508 C   0  0  0  0  0  0  0  0  0  0  0  0
  159.9805  131.2250  190.4032 C   0  0  0  0  0  0  0  0  0  0  0  0
  159.9174  130.8597  189.0611 C   0  0  0  0  0  0  0  0  0  0  0  0
  158.8466  131.2589  188.2857 C   0  0  0  0  0  0  0  0  0  0  0  0
  161.1235  130.7919  191.1976 C   0  0  0  0  0  0  0  0  0  0  0  0
  162.3081  130.4005  190.6208 O   0  0  0  0  0  0  0  0  0  0  0  0
  161.0037  130.7830  192.4454 O   0  0  0  0  0  0  0  0  0  0  0  0
  163.1809  130.8336  190.9596 H   0  0  0  0  0  0  0  0  0  0  0  0
  152.3625  138.3807  181.4371 C   0  0  0  0  0  0  0  0  0  0  0  0
  151.3745  140.1743  179.5262 C   0  0  0  0  0  0  0  0  0  0  0  0
  150.6080  138.9539  179.8538 C   0  0  0  0  0  0  0  0  0  0  0  0
  149.4266  138.6918  179.2146 C   0  0  0  0  0  0  0  0  0  0  0  0
  148.6975  137.5737  179.5012 C   0  0  0  0  0  0  0  0  0  0  0  0
  149.1763  136.7110  180.4512 C   0  0  0  0  0  0  0  0  0  0  0  0
  150.3249  136.9933  181.0535 N   0  0  0  0  0  0  0  0  0  0  0  0
  151.0764  138.0642  180.8158 C   0  0  0  0  0  0  0  0  0  0  0  0
 38 39  1  0  0  0
 39 40  2  0  0  0
 40 41  1  0  0  0
 41 42  2  0  0  0
 42 43  1  0  0  0
 43 44  2  0  0  0
 44 37  1  0  0  0
 37  1  1  0  0  0
  1  2  1  0  0  0
  2  3  1  0  0  0
  3  4  1  0  0  0
  4  5  1  0  0  0
  5  6  1  0  0  0
  4  7  1  0  0  0
  7  8  1  0  0  0
  8  9  2  0  0  0
  8 10  1  0  0  0
 10 11  1  0  0  0
 11 12  2  0  0  0
 10 21  1  0  0  0
 21 22  2  0  0  0
 22 23  1  0  0  0
 23 24  2  0  0  0
 24 25  1  0  0  0
 25 26  2  0  0  0
 24 27  1  0  0  0
 27 28  2  0  0  0
 28 29  1  0  0  0
 29 30  2  0  0  0
 30 31  1  0  0  0
 31 32  2  0  0  0
 30 33  1  0  0  0
 33 34  1  0  0  0
 33 35  2  0  0  0
  7 13  1  0  0  0
 13 14  2  0  0  0
 14 15  1  0  0  0
 15 16  2  0  0  0
 15 17  1  0  0  0
 17 18  1  0  0  0
 18 19  2  0  0  0
 44 39  1  0  0  0
  6  1  1  0  0  0
 26 21  1  0  0  0
 32 27  1  0  0  0
 19 13  1  0  0  0
 11  4  1  0  0  0
 34 36  1  0  0  0
 17 20  1  0  0  0
M  END
> <minimizedAffinity>
-5.09860

> <CNNscore>
0.2584097087

> <CNNaffinity>
5.8629016876

> <CNN_VS>
1.5150307417

> <CNNaffinity_variance>
0.3538724184

$$$$
[H]OC(=O)c1c([H])c([H])c(-c2c([H])c([H])c(N3C(=O)N(c4nc([H])n([H])c(=O)c4[H])C4(C3=O)C([H])([H])C([H])([H])N(C([H])([H])c3nc([H])c([H])c([H])c3C([H])([H])[H])C([H])([H])C4([H])[H])c([H])c2[H])c([H])c1[H]


 44 49  0  0  0  0  0  0  0  0999 V2000
  156.5164  135.1187  188.3076 N   0  0  0  0  0  0  0  0  0  0  0  0
  155.8317  133.9248  188.7962 C   0  0  0  0  0  0  0  0  0  0  0  0
  154.4807  134.1713  189.3479 C   0  0  0  0  0  0  0  0  0  0  0  0
  153.6214  135.0576  188.5239 C   0  0  0  0  0  0  0  0  0  0  0  0
  154.3811  136.2994  188.1093 C   0  0  0  0  0  0  0  0  0  0  0  0
  155.7592  136.2992  188.7272 C   0  0  0  0  0  0  0  0  0  0  0  0
  152.3668  135.3876  189.1456 N   0  0  0  0  0  0  0  0  0  0  0  0
  151.3833  135.4886  188.0989 C   0  0  0  0  0  0  0  0  0  0  0  0
  150.2393  136.0320  188.2000 O   0  0  0  0  0  0  0  0  0  0  0  0
  151.8836  134.8830  186.9148 N   0  0  0  0  0  0  0  0  0  0  0  0
  153.1822  134.4086  187.2487 C   0  0  0  0  0  0  0  0  0  0  0  0
  153.8029  133.5755  186.5379 O   0  0  0  0  0  0  0  0  0  0  0  0
  152.0289  135.6142  190.5102 C   0  0  0  0  0  0  0  0  0  0  0  0
  152.3688  136.7428  191.1955 C   0  0  0  0  0  0  0  0  0  0  0  0
  151.9897  136.8532  192.5175 C   0  0  0  0  0  0  0  0  0  0  0  0
  152.3241  137.9198  193.1226 O   0  0  0  0  0  0  0  0  0  0  0  0
  151.2973  135.8887  193.1548 N   0  0  0  0  0  0  0  0  0  0  0  0
  150.9639  134.7734  192.4712 C   0  0  0  0  0  0  0  0  0  0  0  0
  151.3256  134.6662  191.2068 N   0  0  0  0  0  0  0  0  0  0  0  0
  151.0248  136.0018  194.1555 H   0  0  0  0  0  0  0  0  0  0  0  0
  151.2210  134.7774  185.6410 C   0  0  0  0  0  0  0  0  0  0  0  0
  151.5371  135.5770  184.5654 C   0  0  0  0  0  0  0  0  0  0  0  0
  150.8723  135.4468  183.3633 C   0  0  0  0  0  0  0  0  0  0  0  0
  149.8675  134.5219  183.1723 C   0  0  0  0  0  0  0  0  0  0  0  0
  149.5402  133.7145  184.2385 C   0  0  0  0  0  0  0  0  0  0  0  0
  150.2164  133.8518  185.4500 C   0  0  0  0  0  0  0  0  0  0  0  0
  149.1992  134.4453  181.8680 C   0  0  0  0  0  0  0  0  0  0  0  0
  147.8400  134.6249  181.7320 C   0  0  0  0  0  0  0  0  0  0  0  0
  147.2004  134.5509  180.5254 C   0  0  0  0  0  0  0  0  0  0  0  0
  147.9483  134.2855  179.3974 C   0  0  0  0  0  0  0  0  0  0  0  0
  149.3236  134.1009  179.5113 C   0  0  0  0  0  0  0  0  0  0  0  0
  149.9319  134.1834  180.7485 C   0  0  0  0  0  0  0  0  0  0  0  0
  147.3321  134.1904  178.0797 C   0  0  0  0  0  0  0  0  0  0  0  0
  146.8221  135.2892  177.4303 O   0  0  0  0  0  0  0  0  0  0  0  0
  147.2748  133.0620  177.5367 O   0  0  0  0  0  0  0  0  0  0  0  0
  147.1218  135.4630  176.4587 H   0  0  0  0  0  0  0  0  0  0  0  0
  157.7969  135.2113  188.9806 C   0  0  0  0  0  0  0  0  0  0  0  0
  159.7410  133.5710  187.8082 C   0  0  0  0  0  0  0  0  0  0  0  0
  159.1653  133.2058  189.1194 C   0  0  0  0  0  0  0  0  0  0  0  0
  159.5913  132.0781  189.7674 C   0  0  0  0  0  0  0  0  0  0  0  0
  159.0733  131.7164  190.9775 C   0  0  0  0  0  0  0  0  0  0  0  0
  158.1084  132.5122  191.5359 C   0  0  0  0  0  0  0  0  0  0  0  0
  157.7162  133.5990  190.8827 N   0  0  0  0  0  0  0  0  0  0  0  0
  158.1840  134.0003  189.7045 C   0  0  0  0  0  0  0  0  0  0  0  0
 38 39  1  0  0  0
 39 40  2  0  0  0
 40 41  1  0  0  0
 41 42  2  0  0  0
 42 43  1  0  0  0
 43 44  2  0  0  0
 44 37  1  0  0  0
 37  1  1  0  0  0
  1  2  1  0  0  0
  2  3  1  0  0  0
  3  4  1  0  0  0
  4  5  1  0  0  0
  5  6  1  0  0  0
  4  7  1  0  0  0
  7  8  1  0  0  0
  8  9  2  0  0  0
  8 10  1  0  0  0
 10 11  1  0  0  0
 11 12  2  0  0  0
 10 21  1  0  0  0
 21 22  2  0  0  0
 22 23  1  0  0  0
 23 24  2  0  0  0
 24 25  1  0  0  0
 25 26  2  0  0  0
 24 27  1  0  0  0
 27 28  2  0  0  0
 28 29  1  0  0  0
 29 30  2  0  0  0
 30 31  1  0  0  0
 31 32  2  0  0  0
 30 33  1  0  0  0
 33 34  1  0  0  0
 33 35  2  0  0  0
  7 13  1  0  0  0
 13 14  2  0  0  0
 14 15  1  0  0  0
 15 16  2  0  0  0
 15 17  1  0  0  0
 17 18  1  0  0  0
 18 19  2  0  0  0
 44 39  1  0  0  0
  6  1  1  0  0  0
 26 21  1  0  0  0
 32 27  1  0  0  0
 19 13  1  0  0  0
 11  4  1  0  0  0
 34 36  1  0  0  0
 17 20  1  0  0  0
M  END
> <minimizedAffinity>
-4.97828

> <CNNscore>
0.2499161512

> <CNNaffinity>
6.1073536873

> <CNN_VS>
1.5263262987

> <CNNaffinity_variance>
0.4067760408

$$$$
[H]OC(=O)c1c([H])c([H])c(-c2c([H])c([H])c(N3C(=O)N(c4nc([H])n([H])c(=O)c4[H])C4(C3=O)C([H])([H])C([H])([H])N(C([H])([H])c3nc([H])c([H])c([H])c3C([H])([H])[H])C([H])([H])C4([H])[H])c([H])c2[H])c([H])c1[H]


 44 49  0  0  0  0  0  0  0  0999 V2000
  154.0823  139.3269  183.6025 N   0  0  0  0  0  0  0  0  0  0  0  0
  153.0088  138.8644  182.7270 C   0  0  0  0  0  0  0  0  0  0  0  0
  153.0816  137.4308  182.3667 C   0  0  0  0  0  0  0  0  0  0  0  0
  153.3642  136.5153  183.5003 C   0  0  0  0  0  0  0  0  0  0  0  0
  154.5263  137.0296  184.3224 C   0  0  0  0  0  0  0  0  0  0  0  0
  155.0990  138.2777  183.6935 C   0  0  0  0  0  0  0  0  0  0  0  0
  153.5616  135.1468  183.1030 N   0  0  0  0  0  0  0  0  0  0  0  0
  153.0274  134.3153  184.1500 C   0  0  0  0  0  0  0  0  0  0  0  0
  153.2591  133.0763  184.3103 O   0  0  0  0  0  0  0  0  0  0  0  0
  152.1888  135.0918  184.9943 N   0  0  0  0  0  0  0  0  0  0  0  0
  152.2137  136.4063  184.4516 C   0  0  0  0  0  0  0  0  0  0  0  0
  151.3704  137.2860  184.7671 O   0  0  0  0  0  0  0  0  0  0  0  0
  154.1656  134.5868  181.9414 C   0  0  0  0  0  0  0  0  0  0  0  0
  155.4688  134.1904  181.8839 C   0  0  0  0  0  0  0  0  0  0  0  0
  155.9480  133.6628  180.7025 C   0  0  0  0  0  0  0  0  0  0  0  0
  157.1673  133.3040  180.6878 O   0  0  0  0  0  0  0  0  0  0  0  0
  155.1770  133.5252  179.6060 N   0  0  0  0  0  0  0  0  0  0  0  0
  153.8875  133.9197  179.6690 C   0  0  0  0  0  0  0  0  0  0  0  0
  153.4275  134.4245  180.7980 N   0  0  0  0  0  0  0  0  0  0  0  0
  155.5687  133.1221  178.7270 H   0  0  0  0  0  0  0  0  0  0  0  0
  151.4700  134.6465  186.1596 C   0  0  0  0  0  0  0  0  0  0  0  0
  152.0196  133.8046  187.1005 C   0  0  0  0  0  0  0  0  0  0  0  0
  151.2930  133.3968  188.2003 C   0  0  0  0  0  0  0  0  0  0  0  0
  149.9932  133.8029  188.4176 C   0  0  0  0  0  0  0  0  0  0  0  0
  149.4297  134.6455  187.4858 C   0  0  0  0  0  0  0  0  0  0  0  0
  150.1702  135.0534  186.3771 C   0  0  0  0  0  0  0  0  0  0  0  0
  149.2791  133.3225  189.6063 C   0  0  0  0  0  0  0  0  0  0  0  0
  149.8259  132.3891  190.4595 C   0  0  0  0  0  0  0  0  0  0  0  0
  149.1721  131.9263  191.5679 C   0  0  0  0  0  0  0  0  0  0  0  0
  147.9121  132.4151  191.8429 C   0  0  0  0  0  0  0  0  0  0  0  0
  147.3400  133.3593  190.9944 C   0  0  0  0  0  0  0  0  0  0  0  0
  148.0332  133.8013  189.8847 C   0  0  0  0  0  0  0  0  0  0  0  0
  147.1570  131.9645  193.0056 C   0  0  0  0  0  0  0  0  0  0  0  0
  146.8148  132.8153  194.0294 O   0  0  0  0  0  0  0  0  0  0  0  0
  146.8171  130.7590  193.0557 O   0  0  0  0  0  0  0  0  0  0  0  0
  145.8280  132.8453  194.3282 H   0  0  0  0  0  0  0  0  0  0  0  0
  154.7331  140.4527  182.9619 C   0  0  0  0  0  0  0  0  0  0  0  0
  156.4479  141.8987  181.2849 C   0  0  0  0  0  0  0  0  0  0  0  0
  156.9197  141.4585  182.6144 C   0  0  0  0  0  0  0  0  0  0  0  0
  158.1852  141.7695  183.0327 C   0  0  0  0  0  0  0  0  0  0  0  0
  158.6466  141.3718  184.2544 C   0  0  0  0  0  0  0  0  0  0  0  0
  157.8097  140.6477  185.0614 C   0  0  0  0  0  0  0  0  0  0  0  0
  156.5885  140.3619  184.6272 N   0  0  0  0  0  0  0  0  0  0  0  0
  156.0857  140.7219  183.4500 C   0  0  0  0  0  0  0  0  0  0  0  0
 38 39  1  0  0  0
 39 40  2  0  0  0
 40 41  1  0  0  0
 41 42  2  0  0  0
 42 43  1  0  0  0
 43 44  2  0  0  0
 44 37  1  0  0  0
 37  1  1  0  0  0
  1  2  1  0  0  0
  2  3  1  0  0  0
  3  4  1  0  0  0
  4  5  1  0  0  0
  5  6  1  0  0  0
  4  7  1  0  0  0
  7  8  1  0  0  0
  8  9  2  0  0  0
  8 10  1  0  0  0
 10 11  1  0  0  0
 11 12  2  0  0  0
 10 21  1  0  0  0
 21 22  2  0  0  0
 22 23  1  0  0  0
 23 24  2  0  0  0
 24 25  1  0  0  0
 25 26  2  0  0  0
 24 27  1  0  0  0
 27 28  2  0  0  0
 28 29  1  0  0  0
 29 30  2  0  0  0
 30 31  1  0  0  0
 31 32  2  0  0  0
 30 33  1  0  0  0
 33 34  1  0  0  0
 33 35  2  0  0  0
  7 13  1  0  0  0
 13 14  2  0  0  0
 14 15  1  0  0  0
 15 16  2  0  0  0
 15 17  1  0  0  0
 17 18  1  0  0  0
 18 19  2  0  0  0
 44 39  1  0  0  0
  6  1  1  0  0  0
 26 21  1  0  0  0
 32 27  1  0  0  0
 19 13  1  0  0  0
 11  4  1  0  0  0
 34 36  1  0  0  0
 17 20  1  0  0  0
M  END
> <minimizedAffinity>
-3.81327

> <CNNscore>
0.2236323506

> <CNNaffinity>
6.1044244766

> <CNN_VS>
1.3651467562

> <CNNaffinity_variance>
0.5495061874

$$$$
[H]OC(=O)c1c([H])c([H])c(-c2c([H])c([H])c(N3C(=O)N(c4nc([H])n([H])c(=O)c4[H])C4(C3=O)C([H])([H])C([H])([H])N(C([H])([H])c3nc([H])c([H])c([H])c3C([H])([H])[H])C([H])([H])C4([H])[H])c([H])c2[H])c([H])c1[H]


 44 49  0  0  0  0  0  0  0  0999 V2000
  152.7988  136.8141  182.1538 N   0  0  0  0  0  0  0  0  0  0  0  0
  152.3942  137.5927  183.3212 C   0  0  0  0  0  0  0  0  0  0  0  0
  151.5635  136.8531  184.2977 C   0  0  0  0  0  0  0  0  0  0  0  0
  152.0515  135.4908  184.6279 C   0  0  0  0  0  0  0  0  0  0  0  0
  152.3907  134.7269  183.3661 C   0  0  0  0  0  0  0  0  0  0  0  0
  152.0537  135.5541  182.1482 C   0  0  0  0  0  0  0  0  0  0  0  0
  151.1575  134.7456  185.4735 N   0  0  0  0  0  0  0  0  0  0  0  0
  151.9675  133.9257  186.3364 C   0  0  0  0  0  0  0  0  0  0  0  0
  151.5630  132.9317  187.0167 O   0  0  0  0  0  0  0  0  0  0  0  0
  153.3086  134.3950  186.3186 N   0  0  0  0  0  0  0  0  0  0  0  0
  153.3100  135.5117  185.4378 C   0  0  0  0  0  0  0  0  0  0  0  0
  154.2535  136.3441  185.4002 O   0  0  0  0  0  0  0  0  0  0  0  0
  149.7352  134.7166  185.5375 C   0  0  0  0  0  0  0  0  0  0  0  0
  149.0278  134.8576  186.6945 C   0  0  0  0  0  0  0  0  0  0  0  0
  147.6501  134.8104  186.6372 C   0  0  0  0  0  0  0  0  0  0  0  0
  147.0257  134.9464  187.7359 O   0  0  0  0  0  0  0  0  0  0  0  0
  146.9795  134.6305  185.4823 N   0  0  0  0  0  0  0  0  0  0  0  0
  147.6853  134.4913  184.3401 C   0  0  0  0  0  0  0  0  0  0  0  0
  149.0030  134.5362  184.3929 N   0  0  0  0  0  0  0  0  0  0  0  0
  145.9367  134.5997  185.4716 H   0  0  0  0  0  0  0  0  0  0  0  0
  154.4334  133.8516  187.0344 C   0  0  0  0  0  0  0  0  0  0  0  0
  154.4817  133.7811  188.4087 C   0  0  0  0  0  0  0  0  0  0  0  0
  155.5827  133.2582  189.0554 C   0  0  0  0  0  0  0  0  0  0  0  0
  156.6825  132.7828  188.3726 C   0  0  0  0  0  0  0  0  0  0  0  0
  156.6492  132.8460  186.9976 C   0  0  0  0  0  0  0  0  0  0  0  0
  155.5331  133.3756  186.3512 C   0  0  0  0  0  0  0  0  0  0  0  0
  157.8213  132.2473  189.1277 C   0  0  0  0  0  0  0  0  0  0  0  0
  158.1055  132.6594  190.4112 C   0  0  0  0  0  0  0  0  0  0  0  0
  159.1658  132.1754  191.1266 C   0  0  0  0  0  0  0  0  0  0  0  0
  159.9846  131.2346  190.5379 C   0  0  0  0  0  0  0  0  0  0  0  0
  159.7160  130.8033  189.2416 C   0  0  0  0  0  0  0  0  0  0  0  0
  158.6351  131.3170  188.5523 C   0  0  0  0  0  0  0  0  0  0  0  0
  161.1336  130.6775  191.2412 C   0  0  0  0  0  0  0  0  0  0  0  0
  161.1254  130.4618  192.5986 O   0  0  0  0  0  0  0  0  0  0  0  0
  162.1528  130.3916  190.5697 O   0  0  0  0  0  0  0  0  0  0  0  0
  161.4006  129.5300  192.9451 H   0  0  0  0  0  0  0  0  0  0  0  0
  152.3747  137.5288  180.9661 C   0  0  0  0  0  0  0  0  0  0  0  0
  151.8175  140.2418  180.5494 C   0  0  0  0  0  0  0  0  0  0  0  0
  150.7081  139.2870  180.7533 C   0  0  0  0  0  0  0  0  0  0  0  0
  149.4113  139.7231  180.7230 C   0  0  0  0  0  0  0  0  0  0  0  0
  148.3685  138.8625  180.9120 C   0  0  0  0  0  0  0  0  0  0  0  0
  148.6487  137.5405  181.1353 C   0  0  0  0  0  0  0  0  0  0  0  0
  149.9166  137.1487  181.1591 N   0  0  0  0  0  0  0  0  0  0  0  0
  150.9707  137.9396  180.9817 C   0  0  0  0  0  0  0  0  0  0  0  0
 38 39  1  0  0  0
 39 40  2  0  0  0
 40 41  1  0  0  0
 41 42  2  0  0  0
 42 43  1  0  0  0
 43 44  2  0  0  0
 44 37  1  0  0  0
 37  1  1  0  0  0
  1  2  1  0  0  0
  2  3  1  0  0  0
  3  4  1  0  0  0
  4  5  1  0  0  0
  5  6  1  0  0  0
  4  7  1  0  0  0
  7  8  1  0  0  0
  8  9  2  0  0  0
  8 10  1  0  0  0
 10 11  1  0  0  0
 11 12  2  0  0  0
 10 21  1  0  0  0
 21 22  2  0  0  0
 22 23  1  0  0  0
 23 24  2  0  0  0
 24 25  1  0  0  0
 25 26  2  0  0  0
 24 27  1  0  0  0
 27 28  2  0  0  0
 28 29  1  0  0  0
 29 30  2  0  0  0
 30 31  1  0  0  0
 31 32  2  0  0  0
 30 33  1  0  0  0
 33 34  1  0  0  0
 33 35  2  0  0  0
  7 13  1  0  0  0
 13 14  2  0  0  0
 14 15  1  0  0  0
 15 16  2  0  0  0
 15 17  1  0  0  0
 17 18  1  0  0  0
 18 19  2  0  0  0
 44 39  1  0  0  0
  6  1  1  0  0  0
 26 21  1  0  0  0
 32 27  1  0  0  0
 19 13  1  0  0  0
 11  4  1  0  0  0
 34 36  1  0  0  0
 17 20  1  0  0  0
M  END
> <minimizedAffinity>
-4.56519

> <CNNscore>
0.2220806628

> <CNNaffinity>
5.9879956245

> <CNN_VS>
1.3298180103

> <CNNaffinity_variance>
0.4639690816

$$$$
[H]OC(=O)c1c([H])c([H])c(-c2c([H])c([H])c(N3C(=O)N(c4nc([H])n([H])c(=O)c4[H])C4(C3=O)C([H])([H])C([H])([H])N(C([H])([H])c3nc([H])c([H])c([H])c3C([H])([H])[H])C([H])([H])C4([H])[H])c([H])c2[H])c([H])c1[H]


 44 49  0  0  0  0  0  0  0  0999 V2000
  148.9677  134.0275  187.6918 N   0  0  0  0  0  0  0  0  0  0  0  0
  148.6028  135.3177  188.2705 C   0  0  0  0  0  0  0  0  0  0  0  0
  149.5545  135.8316  189.2808 C   0  0  0  0  0  0  0  0  0  0  0  0
  150.9853  135.7313  188.8992 C   0  0  0  0  0  0  0  0  0  0  0  0
  151.2985  134.3491  188.3680 C   0  0  0  0  0  0  0  0  0  0  0  0
  150.0780  133.4645  188.4621 C   0  0  0  0  0  0  0  0  0  0  0  0
  151.8918  136.1127  189.9491 N   0  0  0  0  0  0  0  0  0  0  0  0
  153.0263  136.7446  189.3272 C   0  0  0  0  0  0  0  0  0  0  0  0
  154.1526  136.9606  189.8740 O   0  0  0  0  0  0  0  0  0  0  0  0
  152.7009  137.0988  187.9901 N   0  0  0  0  0  0  0  0  0  0  0  0
  151.3551  136.6791  187.8014 C   0  0  0  0  0  0  0  0  0  0  0  0
  150.6478  137.0820  186.8412 O   0  0  0  0  0  0  0  0  0  0  0  0
  151.8139  135.9438  191.3609 C   0  0  0  0  0  0  0  0  0  0  0  0
  150.6501  136.0166  192.0675 C   0  0  0  0  0  0  0  0  0  0  0  0
  150.6945  135.8390  193.4350 C   0  0  0  0  0  0  0  0  0  0  0  0
  149.5896  135.9132  194.0588 O   0  0  0  0  0  0  0  0  0  0  0  0
  151.8433  135.5968  194.0964 N   0  0  0  0  0  0  0  0  0  0  0  0
  152.9923  135.5261  193.3915 C   0  0  0  0  0  0  0  0  0  0  0  0
  152.9518  135.6957  192.0836 N   0  0  0  0  0  0  0  0  0  0  0  0
  151.8442  135.4665  195.1315 H   0  0  0  0  0  0  0  0  0  0  0  0
  153.5544  137.7404  187.0244 C   0  0  0  0  0  0  0  0  0  0  0  0
  153.0740  138.3266  185.8748 C   0  0  0  0  0  0  0  0  0  0  0  0
  153.9282  138.9258  184.9719 C   0  0  0  0  0  0  0  0  0  0  0  0
  155.2927  138.9713  185.1657 C   0  0  0  0  0  0  0  0  0  0  0  0
  155.7886  138.3898  186.3111 C   0  0  0  0  0  0  0  0  0  0  0  0
  154.9192  137.7864  187.2188 C   0  0  0  0  0  0  0  0  0  0  0  0
  156.1408  139.6192  184.1584 C   0  0  0  0  0  0  0  0  0  0  0  0
  157.4927  139.3685  184.0712 C   0  0  0  0  0  0  0  0  0  0  0  0
  158.2985  139.9678  183.1428 C   0  0  0  0  0  0  0  0  0  0  0  0
  157.7333  140.8606  182.2565 C   0  0  0  0  0  0  0  0  0  0  0  0
  156.3688  141.1288  182.3261 C   0  0  0  0  0  0  0  0  0  0  0  0
  155.5891  140.5028  183.2788 C   0  0  0  0  0  0  0  0  0  0  0  0
  158.5328  141.5374  181.2427 C   0  0  0  0  0  0  0  0  0  0  0  0
  158.5825  141.1017  179.9401 O   0  0  0  0  0  0  0  0  0  0  0  0
  159.1892  142.5478  181.5885 O   0  0  0  0  0  0  0  0  0  0  0  0
  158.4016  141.7868  179.1904 H   0  0  0  0  0  0  0  0  0  0  0  0
  147.8551  133.1178  187.8804 C   0  0  0  0  0  0  0  0  0  0  0  0
  148.2521  130.3796  188.3151 C   0  0  0  0  0  0  0  0  0  0  0  0
  147.9286  131.2648  189.4535 C   0  0  0  0  0  0  0  0  0  0  0  0
  147.8386  130.7521  190.7192 C   0  0  0  0  0  0  0  0  0  0  0  0
  147.5376  131.5473  191.7873 C   0  0  0  0  0  0  0  0  0  0  0  0
  147.3248  132.8819  191.5648 C   0  0  0  0  0  0  0  0  0  0  0  0
  147.4191  133.3487  190.3259 N   0  0  0  0  0  0  0  0  0  0  0  0
  147.7087  132.6236  189.2496 C   0  0  0  0  0  0  0  0  0  0  0  0
 38 39  1  0  0  0
 39 40  2  0  0  0
 40 41  1  0  0  0
 41 42  2  0  0  0
 42 43  1  0  0  0
 43 44  2  0  0  0
 44 37  1  0  0  0
 37  1  1  0  0  0
  1  2  1  0  0  0
  2  3  1  0  0  0
  3  4  1  0  0  0
  4  5  1  0  0  0
  5  6  1  0  0  0
  4  7  1  0  0  0
  7  8  1  0  0  0
  8  9  2  0  0  0
  8 10  1  0  0  0
 10 11  1  0  0  0
 11 12  2  0  0  0
 10 21  1  0  0  0
 21 22  2  0  0  0
 22 23  1  0  0  0
 23 24  2  0  0  0
 24 25  1  0  0  0
 25 26  2  0  0  0
 24 27  1  0  0  0
 27 28  2  0  0  0
 28 29  1  0  0  0
 29 30  2  0  0  0
 30 31  1  0  0  0
 31 32  2  0  0  0
 30 33  1  0  0  0
 33 34  1  0  0  0
 33 35  2  0  0  0
  7 13  1  0  0  0
 13 14  2  0  0  0
 14 15  1  0  0  0
 15 16  2  0  0  0
 15 17  1  0  0  0
 17 18  1  0  0  0
 18 19  2  0  0  0
 44 39  1  0  0  0
  6  1  1  0  0  0
 26 21  1  0  0  0
 32 27  1  0  0  0
 19 13  1  0  0  0
 11  4  1  0  0  0
 34 36  1  0  0  0
 17 20  1  0  0  0
M  END
> <minimizedAffinity>
-7.92976

> <CNNscore>
0.2078874558

> <CNNaffinity>
6.0329389572

> <CNN_VS>
1.2541723251

> <CNNaffinity_variance>
0.1048326269

$$$$
[H]OC(=O)c1c([H])c([H])c(-c2c([H])c([H])c(N3C(=O)N(c4nc([H])n([H])c(=O)c4[H])C4(C3=O)C([H])([H])C([H])([H])N(C([H])([H])c3nc([H])c([H])c([H])c3C([H])([H])[H])C([H])([H])C4([H])[H])c([H])c2[H])c([H])c1[H]


 44 49  0  0  0  0  0  0  0  0999 V2000
  149.8467  133.6920  187.4325 N   0  0  0  0  0  0  0  0  0  0  0  0
  149.3112  134.9539  187.9363 C   0  0  0  0  0  0  0  0  0  0  0  0
  150.1748  135.6398  188.9232 C   0  0  0  0  0  0  0  0  0  0  0  0
  151.6119  135.7042  188.5578 C   0  0  0  0  0  0  0  0  0  0  0  0
  152.1072  134.3472  188.1061 C   0  0  0  0  0  0  0  0  0  0  0  0
  151.0090  133.3191  188.2405 C   0  0  0  0  0  0  0  0  0  0  0  0
  152.4472  136.2553  189.5913 N   0  0  0  0  0  0  0  0  0  0  0  0
  153.4999  136.9936  188.9434 C   0  0  0  0  0  0  0  0  0  0  0  0
  154.5815  137.3821  189.4852 O   0  0  0  0  0  0  0  0  0  0  0  0
  153.1507  137.2301  187.5865 N   0  0  0  0  0  0  0  0  0  0  0  0
  151.8726  136.6310  187.4118 C   0  0  0  0  0  0  0  0  0  0  0  0
  151.1330  136.8871  186.4258 O   0  0  0  0  0  0  0  0  0  0  0  0
  152.3716  136.1544  191.0097 C   0  0  0  0  0  0  0  0  0  0  0  0
  152.7071  135.0314  191.7062 C   0  0  0  0  0  0  0  0  0  0  0  0
  152.5918  135.0467  193.0810 C   0  0  0  0  0  0  0  0  0  0  0  0
  152.9144  133.9817  193.6953 O   0  0  0  0  0  0  0  0  0  0  0  0
  152.1608  136.1285  193.7591 N   0  0  0  0  0  0  0  0  0  0  0  0
  151.8298  137.2374  193.0640 C   0  0  0  0  0  0  0  0  0  0  0  0
  151.9395  137.2245  191.7491 N   0  0  0  0  0  0  0  0  0  0  0  0
  152.0847  136.1091  194.7994 H   0  0  0  0  0  0  0  0  0  0  0  0
  153.9284  137.9232  186.5927 C   0  0  0  0  0  0  0  0  0  0  0  0
  153.3655  138.5295  185.4919 C   0  0  0  0  0  0  0  0  0  0  0  0
  154.1488  139.1783  184.5595 C   0  0  0  0  0  0  0  0  0  0  0  0
  155.5208  139.2559  184.6744 C   0  0  0  0  0  0  0  0  0  0  0  0
  156.0987  138.6549  185.7701 C   0  0  0  0  0  0  0  0  0  0  0  0
  155.3007  138.0013  186.7081 C   0  0  0  0  0  0  0  0  0  0  0  0
  156.2904  139.9563  183.6396 C   0  0  0  0  0  0  0  0  0  0  0  0
  157.6069  139.6485  183.3745 C   0  0  0  0  0  0  0  0  0  0  0  0
  158.3404  140.2950  182.4183 C   0  0  0  0  0  0  0  0  0  0  0  0
  157.7360  141.2972  181.6886 C   0  0  0  0  0  0  0  0  0  0  0  0
  156.4062  141.6248  181.9393 C   0  0  0  0  0  0  0  0  0  0  0  0
  155.6997  140.9480  182.9141 C   0  0  0  0  0  0  0  0  0  0  0  0
  158.4585  142.0294  180.6557 C   0  0  0  0  0  0  0  0  0  0  0  0
  158.3478  141.7133  179.3227 O   0  0  0  0  0  0  0  0  0  0  0  0
  159.1996  142.9750  181.0136 O   0  0  0  0  0  0  0  0  0  0  0  0
  158.1251  142.4713  178.6595 H   0  0  0  0  0  0  0  0  0  0  0  0
  148.8573  132.6581  187.6634 C   0  0  0  0  0  0  0  0  0  0  0  0
  146.9147  130.6611  187.9508 C   0  0  0  0  0  0  0  0  0  0  0  0
  147.3881  131.0367  186.6021 C   0  0  0  0  0  0  0  0  0  0  0  0
  146.8682  130.4225  185.4951 C   0  0  0  0  0  0  0  0  0  0  0  0
  147.2907  130.7483  184.2385 C   0  0  0  0  0  0  0  0  0  0  0  0
  148.2555  131.7115  184.1062 C   0  0  0  0  0  0  0  0  0  0  0  0
  148.7400  132.2885  185.1989 N   0  0  0  0  0  0  0  0  0  0  0  0
  148.3675  132.0128  186.4452 C   0  0  0  0  0  0  0  0  0  0  0  0
 38 39  1  0  0  0
 39 40  2  0  0  0
 40 41  1  0  0  0
 41 42  2  0  0  0
 42 43  1  0  0  0
 43 44  2  0  0  0
 44 37  1  0  0  0
 37  1  1  0  0  0
  1  2  1  0  0  0
  2  3  1  0  0  0
  3  4  1  0  0  0
  4  5  1  0  0  0
  5  6  1  0  0  0
  4  7  1  0  0  0
  7  8  1  0  0  0
  8  9  2  0  0  0
  8 10  1  0  0  0
 10 11  1  0  0  0
 11 12  2  0  0  0
 10 21  1  0  0  0
 21 22  2  0  0  0
 22 23  1  0  0  0
 23 24  2  0  0  0
 24 25  1  0  0  0
 25 26  2  0  0  0
 24 27  1  0  0  0
 27 28  2  0  0  0
 28 29  1  0  0  0
 29 30  2  0  0  0
 30 31  1  0  0  0
 31 32  2  0  0  0
 30 33  1  0  0  0
 33 34  1  0  0  0
 33 35  2  0  0  0
  7 13  1  0  0  0
 13 14  2  0  0  0
 14 15  1  0  0  0
 15 16  2  0  0  0
 15 17  1  0  0  0
 17 18  1  0  0  0
 18 19  2  0  0  0
 44 39  1  0  0  0
  6  1  1  0  0  0
 26 21  1  0  0  0
 32 27  1  0  0  0
 19 13  1  0  0  0
 11  4  1  0  0  0
 34 36  1  0  0  0
 17 20  1  0  0  0
M  END
> <minimizedAffinity>
-7.41031

> <CNNscore>
0.1791085899

> <CNNaffinity>
6.0529265404

> <CNN_VS>
1.0841311216

> <CNNaffinity_variance>
0.0900538564

$$$$
[H]OC(=O)c1c([H])c([H])c(-c2c([H])c([H])c(N3C(=O)N(c4nc([H])n([H])c(=O)c4[H])C4(C3=O)C([H])([H])C([H])([H])N(C([H])([H])c3nc([H])c([H])c([H])c3C([H])([H])[H])C([H])([H])C4([H])[H])c([H])c2[H])c([H])c1[H]


 44 49  0  0  0  0  0  0  0  0999 V2000
  158.5553  140.8539  184.4884 N   0  0  0  0  0  0  0  0  0  0  0  0
  158.7621  139.4082  184.4891 C   0  0  0  0  0  0  0  0  0  0  0  0
  157.8510  138.6555  185.3800 C   0  0  0  0  0  0  0  0  0  0  0  0
  156.4239  139.0547  185.2957 C   0  0  0  0  0  0  0  0  0  0  0  0
  156.2879  140.5606  185.3638 C   0  0  0  0  0  0  0  0  0  0  0  0
  157.6403  141.1980  185.5781 C   0  0  0  0  0  0  0  0  0  0  0  0
  155.5830  138.4031  186.2641 N   0  0  0  0  0  0  0  0  0  0  0  0
  154.3009  138.1907  185.6444 C   0  0  0  0  0  0  0  0  0  0  0  0
  153.2184  137.9088  186.2470 O   0  0  0  0  0  0  0  0  0  0  0  0
  154.4205  138.3441  184.2368 N   0  0  0  0  0  0  0  0  0  0  0  0
  155.7895  138.6502  184.0018 C   0  0  0  0  0  0  0  0  0  0  0  0
  156.3155  138.5711  182.8609 O   0  0  0  0  0  0  0  0  0  0  0  0
  155.8363  138.0059  187.6079 C   0  0  0  0  0  0  0  0  0  0  0  0
  155.3067  138.6361  188.6947 C   0  0  0  0  0  0  0  0  0  0  0  0
  155.6239  138.1650  189.9521 C   0  0  0  0  0  0  0  0  0  0  0  0
  155.1106  138.7779  190.9402 O   0  0  0  0  0  0  0  0  0  0  0  0
  156.4359  137.1071  190.1450 N   0  0  0  0  0  0  0  0  0  0  0  0
  156.9574  136.4873  189.0651 C   0  0  0  0  0  0  0  0  0  0  0  0
  156.6552  136.9365  187.8618 N   0  0  0  0  0  0  0  0  0  0  0  0
  156.6566  136.7742  191.1088 H   0  0  0  0  0  0  0  0  0  0  0  0
  153.3760  138.2236  183.2534 C   0  0  0  0  0  0  0  0  0  0  0  0
  152.8806  137.0092  182.8340 C   0  0  0  0  0  0  0  0  0  0  0  0
  151.8826  136.9385  181.8837 C   0  0  0  0  0  0  0  0  0  0  0  0
  151.3316  138.0636  181.3074 C   0  0  0  0  0  0  0  0  0  0  0  0
  151.8161  139.2857  181.7169 C   0  0  0  0  0  0  0  0  0  0  0  0
  152.8246  139.3492  182.6776 C   0  0  0  0  0  0  0  0  0  0  0  0
  150.2781  137.9115  180.2972 C   0  0  0  0  0  0  0  0  0  0  0  0
  149.4099  136.8417  180.3025 C   0  0  0  0  0  0  0  0  0  0  0  0
  148.4267  136.6814  179.3655 C   0  0  0  0  0  0  0  0  0  0  0  0
  148.2992  137.6312  178.3737 C   0  0  0  0  0  0  0  0  0  0  0  0
  149.1655  138.7210  178.3491 C   0  0  0  0  0  0  0  0  0  0  0  0
  150.1458  138.8465  179.3138 C   0  0  0  0  0  0  0  0  0  0  0  0
  147.2753  137.5226  177.3418 C   0  0  0  0  0  0  0  0  0  0  0  0
  146.8142  136.3074  176.8948 O   0  0  0  0  0  0  0  0  0  0  0  0
  146.8120  138.5824  176.8584 O   0  0  0  0  0  0  0  0  0  0  0  0
  145.7949  136.1502  176.8770 H   0  0  0  0  0  0  0  0  0  0  0  0
  159.8160  141.4900  184.8158 C   0  0  0  0  0  0  0  0  0  0  0  0
  161.6208  143.1770  186.1352 C   0  0  0  0  0  0  0  0  0  0  0  0
  160.8583  143.6813  184.9741 C   0  0  0  0  0  0  0  0  0  0  0  0
  161.0443  144.9638  184.5339 C   0  0  0  0  0  0  0  0  0  0  0  0
  160.3501  145.4553  183.4661 C   0  0  0  0  0  0  0  0  0  0  0  0
  159.4543  144.6314  182.8379 C   0  0  0  0  0  0  0  0  0  0  0  0
  159.2963  143.3930  183.2887 N   0  0  0  0  0  0  0  0  0  0  0  0
  159.9433  142.8609  184.3214 C   0  0  0  0  0  0  0  0  0  0  0  0
 38 39  1  0  0  0
 39 40  2  0  0  0
 40 41  1  0  0  0
 41 42  2  0  0  0
 42 43  1  0  0  0
 43 44  2  0  0  0
 44 37  1  0  0  0
 37  1  1  0  0  0
  1  2  1  0  0  0
  2  3  1  0  0  0
  3  4  1  0  0  0
  4  5  1  0  0  0
  5  6  1  0  0  0
  4  7  1  0  0  0
  7  8  1  0  0  0
  8  9  2  0  0  0
  8 10  1  0  0  0
 10 11  1  0  0  0
 11 12  2  0  0  0
 10 21  1  0  0  0
 21 22  2  0  0  0
 22 23  1  0  0  0
 23 24  2  0  0  0
 24 25  1  0  0  0
 25 26  2  0  0  0
 24 27  1  0  0  0
 27 28  2  0  0  0
 28 29  1  0  0  0
 29 30  2  0  0  0
 30 31  1  0  0  0
 31 32  2  0  0  0
 30 33  1  0  0  0
 33 34  1  0  0  0
 33 35  2  0  0  0
  7 13  1  0  0  0
 13 14  2  0  0  0
 14 15  1  0  0  0
 15 16  2  0  0  0
 15 17  1  0  0  0
 17 18  1  0  0  0
 18 19  2  0  0  0
 44 39  1  0  0  0
  6  1  1  0  0  0
 26 21  1  0  0  0
 32 27  1  0  0  0
 19 13  1  0  0  0
 11  4  1  0  0  0
 34 36  1  0  0  0
 17 20  1  0  0  0
M  END
> <minimizedAffinity>
-5.23646

> <CNNscore>
0.1667138189

> <CNNaffinity>
6.3252434731

> <CNN_VS>
1.0545054674

> <CNNaffinity_variance>
0.1822471768

$$$$
[H]OC(=O)c1c([H])c([H])c(-c2c([H])c([H])c(N3C(=O)N(c4nc([H])n([H])c(=O)c4[H])C4(C3=O)C([H])([H])C([H])([H])N(C([H])([H])c3nc([H])c([H])c([H])c3C([H])([H])[H])C([H])([H])C4([H])[H])c([H])c2[H])c([H])c1[H]


 44 49  0  0  0  0  0  0  0  0999 V2000
  151.6313  132.8576  183.6052 N   0  0  0  0  0  0  0  0  0  0  0  0
  150.5070  133.7529  183.3459 C   0  0  0  0  0  0  0  0  0  0  0  0
  150.2488  134.7438  184.4145 C   0  0  0  0  0  0  0  0  0  0  0  0
  151.4566  135.4354  184.9303 C   0  0  0  0  0  0  0  0  0  0  0  0
  152.5528  134.4366  185.2333 C   0  0  0  0  0  0  0  0  0  0  0  0
  152.0579  133.0297  184.9949 C   0  0  0  0  0  0  0  0  0  0  0  0
  151.1957  136.2924  186.0559 N   0  0  0  0  0  0  0  0  0  0  0  0
  152.0826  137.4216  185.9494 C   0  0  0  0  0  0  0  0  0  0  0  0
  152.3592  138.2434  186.8781 O   0  0  0  0  0  0  0  0  0  0  0  0
  152.6146  137.4873  184.6334 N   0  0  0  0  0  0  0  0  0  0  0  0
  152.0422  136.3881  183.9355 C   0  0  0  0  0  0  0  0  0  0  0  0
  152.0620  136.2978  182.6801 O   0  0  0  0  0  0  0  0  0  0  0  0
  150.2829  136.1614  187.1409 C   0  0  0  0  0  0  0  0  0  0  0  0
  150.5981  135.5649  188.3257 C   0  0  0  0  0  0  0  0  0  0  0  0
  149.6312  135.4921  189.3073 C   0  0  0  0  0  0  0  0  0  0  0  0
  149.9627  134.9296  190.3978 O   0  0  0  0  0  0  0  0  0  0  0  0
  148.3897  135.9879  189.1384 N   0  0  0  0  0  0  0  0  0  0  0  0
  148.0835  136.5773  187.9632 C   0  0  0  0  0  0  0  0  0  0  0  0
  149.0069  136.6477  187.0233 N   0  0  0  0  0  0  0  0  0  0  0  0
  147.6803  135.9178  189.9003 H   0  0  0  0  0  0  0  0  0  0  0  0
  153.5442  138.4567  184.1147 C   0  0  0  0  0  0  0  0  0  0  0  0
  153.2078  139.3664  183.1372 C   0  0  0  0  0  0  0  0  0  0  0  0
  154.1319  140.2750  182.6635 C   0  0  0  0  0  0  0  0  0  0  0  0
  155.4270  140.3238  183.1346 C   0  0  0  0  0  0  0  0  0  0  0  0
  155.7786  139.4208  184.1128 C   0  0  0  0  0  0  0  0  0  0  0  0
  154.8393  138.5058  184.5866 C   0  0  0  0  0  0  0  0  0  0  0  0
  156.3577  141.3127  182.5782 C   0  0  0  0  0  0  0  0  0  0  0  0
  157.4579  140.9435  181.8356 C   0  0  0  0  0  0  0  0  0  0  0  0
  158.3384  141.8512  181.3150 C   0  0  0  0  0  0  0  0  0  0  0  0
  158.1149  143.1929  181.5431 C   0  0  0  0  0  0  0  0  0  0  0  0
  157.0090  143.5889  182.2906 C   0  0  0  0  0  0  0  0  0  0  0  0
  156.1432  142.6408  182.7995 C   0  0  0  0  0  0  0  0  0  0  0  0
  159.0135  144.2147  181.0203 C   0  0  0  0  0  0  0  0  0  0  0  0
  159.2861  145.3712  181.7113 O   0  0  0  0  0  0  0  0  0  0  0  0
  159.5459  144.0147  179.9032 O   0  0  0  0  0  0  0  0  0  0  0  0
  160.2739  145.6316  181.8541 H   0  0  0  0  0  0  0  0  0  0  0  0
  151.1532  131.4928  183.5051 C   0  0  0  0  0  0  0  0  0  0  0  0
  149.6968  130.9352  181.1787 C   0  0  0  0  0  0  0  0  0  0  0  0
  148.9947  131.0567  182.4735 C   0  0  0  0  0  0  0  0  0  0  0  0
  147.6389  130.8818  182.5396 C   0  0  0  0  0  0  0  0  0  0  0  0
  146.9659  130.9922  183.7222 C   0  0  0  0  0  0  0  0  0  0  0  0
  147.6816  131.2850  184.8528 C   0  0  0  0  0  0  0  0  0  0  0  0
  148.9951  131.4491  184.7560 N   0  0  0  0  0  0  0  0  0  0  0  0
  149.7026  131.3535  183.6342 C   0  0  0  0  0  0  0  0  0  0  0  0
 38 39  1  0  0  0
 39 40  2  0  0  0
 40 41  1  0  0  0
 41 42  2  0  0  0
 42 43  1  0  0  0
 43 44  2  0  0  0
 44 37  1  0  0  0
 37  1  1  0  0  0
  1  2  1  0  0  0
  2  3  1  0  0  0
  3  4  1  0  0  0
  4  5  1  0  0  0
  5  6  1  0  0  0
  4  7  1  0  0  0
  7  8  1  0  0  0
  8  9  2  0  0  0
  8 10  1  0  0  0
 10 11  1  0  0  0
 11 12  2  0  0  0
 10 21  1  0  0  0
 21 22  2  0  0  0
 22 23  1  0  0  0
 23 24  2  0  0  0
 24 25  1  0  0  0
 25 26  2  0  0  0
 24 27  1  0  0  0
 27 28  2  0  0  0
 28 29  1  0  0  0
 29 30  2  0  0  0
 30 31  1  0  0  0
 31 32  2  0  0  0
 30 33  1  0  0  0
 33 34  1  0  0  0
 33 35  2  0  0  0
  7 13  1  0  0  0
 13 14  2  0  0  0
 14 15  1  0  0  0
 15 16  2  0  0  0
 15 17  1  0  0  0
 17 18  1  0  0  0
 18 19  2  0  0  0
 44 39  1  0  0  0
  6  1  1  0  0  0
 26 21  1  0  0  0
 32 27  1  0  0  0
 19 13  1  0  0  0
 11  4  1  0  0  0
 34 36  1  0  0  0
 17 20  1  0  0  0
M  END
> <minimizedAffinity>
-6.70355

> <CNNscore>
0.1573628783

> <CNNaffinity>
6.2465009689

> <CNN_VS>
0.9829673767

> <CNNaffinity_variance>
0.3753710389

$$$$
[H]OC(=O)c1c([H])c([H])c(-c2c([H])c([H])c(N3C(=O)N(c4nc([H])n([H])c(=O)c4[H])C4(C3=O)C([H])([H])C([H])([H])N(C([H])([H])c3nc([H])c([H])c([H])c3C([H])([H])[H])C([H])([H])C4([H])[H])c([H])c2[H])c([H])c1[H]


 44 49  0  0  0  0  0  0  0  0999 V2000
  156.8114  134.2191  190.2623 N   0  0  0  0  0  0  0  0  0  0  0  0
  155.9035  133.0756  190.2299 C   0  0  0  0  0  0  0  0  0  0  0  0
  154.5428  133.3543  190.7412 C   0  0  0  0  0  0  0  0  0  0  0  0
  153.9348  134.6141  190.2450 C   0  0  0  0  0  0  0  0  0  0  0  0
  154.9136  135.7619  190.3687 C   0  0  0  0  0  0  0  0  0  0  0  0
  156.1859  135.2938  191.0346 C   0  0  0  0  0  0  0  0  0  0  0  0
  152.6718  134.9273  190.8584 N   0  0  0  0  0  0  0  0  0  0  0  0
  151.8566  135.5666  189.8585 C   0  0  0  0  0  0  0  0  0  0  0  0
  150.8001  136.2384  190.0749 O   0  0  0  0  0  0  0  0  0  0  0  0
  152.4121  135.3351  188.5713 N   0  0  0  0  0  0  0  0  0  0  0  0
  153.5741  134.5456  188.7940 C   0  0  0  0  0  0  0  0  0  0  0  0
  154.1538  133.9170  187.8702 O   0  0  0  0  0  0  0  0  0  0  0  0
  152.1972  134.7178  192.1845 C   0  0  0  0  0  0  0  0  0  0  0  0
  151.5068  133.6083  192.5735 C   0  0  0  0  0  0  0  0  0  0  0  0
  151.0931  133.5134  193.8863 C   0  0  0  0  0  0  0  0  0  0  0  0
  150.4530  132.4643  194.2112 O   0  0  0  0  0  0  0  0  0  0  0  0
  151.3457  134.4747  194.7961 N   0  0  0  0  0  0  0  0  0  0  0  0
  152.0295  135.5710  194.4050 C   0  0  0  0  0  0  0  0  0  0  0  0
  152.4259  135.6635  193.1498 N   0  0  0  0  0  0  0  0  0  0  0  0
  151.0198  134.3735  195.7820 H   0  0  0  0  0  0  0  0  0  0  0  0
  151.9111  135.8060  187.3064 C   0  0  0  0  0  0  0  0  0  0  0  0
  152.5685  136.7465  186.5453 C   0  0  0  0  0  0  0  0  0  0  0  0
  152.0496  137.1751  185.3407 C   0  0  0  0  0  0  0  0  0  0  0  0
  150.8598  136.6933  184.8367 C   0  0  0  0  0  0  0  0  0  0  0  0
  150.1907  135.7517  185.5861 C   0  0  0  0  0  0  0  0  0  0  0  0
  150.7214  135.3234  186.8022 C   0  0  0  0  0  0  0  0  0  0  0  0
  150.3651  137.2010  183.5517 C   0  0  0  0  0  0  0  0  0  0  0  0
  149.0509  137.0538  183.1652 C   0  0  0  0  0  0  0  0  0  0  0  0
  148.5748  137.5154  181.9692 C   0  0  0  0  0  0  0  0  0  0  0  0
  149.4474  138.1555  181.1143 C   0  0  0  0  0  0  0  0  0  0  0  0
  150.7800  138.3158  181.4846 C   0  0  0  0  0  0  0  0  0  0  0  0
  151.2219  137.8350  182.7015 C   0  0  0  0  0  0  0  0  0  0  0  0
  149.0089  138.6705  179.8230 C   0  0  0  0  0  0  0  0  0  0  0  0
  147.6856  138.6814  179.4517 O   0  0  0  0  0  0  0  0  0  0  0  0
  149.8809  139.1140  179.0392 O   0  0  0  0  0  0  0  0  0  0  0  0
  147.2845  139.5664  179.1052 H   0  0  0  0  0  0  0  0  0  0  0  0
  157.9942  133.8347  191.0069 C   0  0  0  0  0  0  0  0  0  0  0  0
  158.6720  131.5457  192.4716 C   0  0  0  0  0  0  0  0  0  0  0  0
  159.1338  131.6876  191.0750 C   0  0  0  0  0  0  0  0  0  0  0  0
  159.8772  130.6969  190.4927 C   0  0  0  0  0  0  0  0  0  0  0  0
  160.3193  130.8048  189.2055 C   0  0  0  0  0  0  0  0  0  0  0  0
  160.0013  131.9358  188.5014 C   0  0  0  0  0  0  0  0  0  0  0  0
  159.2792  132.8786  189.0941 N   0  0  0  0  0  0  0  0  0  0  0  0
  158.8220  132.8284  190.3417 C   0  0  0  0  0  0  0  0  0  0  0  0
 38 39  1  0  0  0
 39 40  2  0  0  0
 40 41  1  0  0  0
 41 42  2  0  0  0
 42 43  1  0  0  0
 43 44  2  0  0  0
 44 37  1  0  0  0
 37  1  1  0  0  0
  1  2  1  0  0  0
  2  3  1  0  0  0
  3  4  1  0  0  0
  4  5  1  0  0  0
  5  6  1  0  0  0
  4  7  1  0  0  0
  7  8  1  0  0  0
  8  9  2  0  0  0
  8 10  1  0  0  0
 10 11  1  0  0  0
 11 12  2  0  0  0
 10 21  1  0  0  0
 21 22  2  0  0  0
 22 23  1  0  0  0
 23 24  2  0  0  0
 24 25  1  0  0  0
 25 26  2  0  0  0
 24 27  1  0  0  0
 27 28  2  0  0  0
 28 29  1  0  0  0
 29 30  2  0  0  0
 30 31  1  0  0  0
 31 32  2  0  0  0
 30 33  1  0  0  0
 33 34  1  0  0  0
 33 35  2  0  0  0
  7 13  1  0  0  0
 13 14  2  0  0  0
 14 15  1  0  0  0
 15 16  2  0  0  0
 15 17  1  0  0  0
 17 18  1  0  0  0
 18 19  2  0  0  0
 44 39  1  0  0  0
  6  1  1  0  0  0
 26 21  1  0  0  0
 32 27  1  0  0  0
 19 13  1  0  0  0
 11  4  1  0  0  0
 34 36  1  0  0  0
 17 20  1  0  0  0
M  END
> <minimizedAffinity>
-5.92248

> <CNNscore>
0.1343138367

> <CNNaffinity>
5.8343429565

> <CNN_VS>
0.7836329937

> <CNNaffinity_variance>
0.1219897494

$$$$
[H]OC(=O)c1nc(C(=O)c2c([H])c([H])c([H])c(O[H])c2[H])c2c([H])c(O[H])c(O[H])c([H])c2c1[H]


 28 30  0  0  0  0  0  0  0  0999 V2000
  153.0215  140.2074  181.8811 C   0  0  0  0  0  0  0  0  0  0  0  0
  152.2107  140.3046  180.7759 C   0  0  0  0  0  0  0  0  0  0  0  0
  151.2472  139.3309  180.5203 C   0  0  0  0  0  0  0  0  0  0  0  0
  150.4223  139.4245  179.4182 C   0  0  0  0  0  0  0  0  0  0  0  0
  149.4514  138.4666  179.1574 C   0  0  0  0  0  0  0  0  0  0  0  0
  148.6277  138.5782  178.0382 O   0  0  0  0  0  0  0  0  0  0  0  0
  149.3620  137.4303  180.0544 C   0  0  0  0  0  0  0  0  0  0  0  0
  148.4313  136.4223  179.8929 O   0  0  0  0  0  0  0  0  0  0  0  0
  150.2009  137.3359  181.1745 C   0  0  0  0  0  0  0  0  0  0  0  0
  151.1602  138.2875  181.4246 C   0  0  0  0  0  0  0  0  0  0  0  0
  151.9684  138.1895  182.5249 C   0  0  0  0  0  0  0  0  0  0  0  0
  152.8976  139.1741  182.7284 N   0  0  0  0  0  0  0  0  0  0  0  0
  147.9172  137.9016  177.8234 H   0  0  0  0  0  0  0  0  0  0  0  0
  147.7942  136.3970  179.1364 H   0  0  0  0  0  0  0  0  0  0  0  0
  155.3679  141.0368  181.9535 O   0  0  0  0  0  0  0  0  0  0  0  0
  154.0227  141.2283  182.1351 C   0  0  0  0  0  0  0  0  0  0  0  0
  153.6426  142.3506  182.5430 O   0  0  0  0  0  0  0  0  0  0  0  0
  155.7671  140.2952  181.3727 H   0  0  0  0  0  0  0  0  0  0  0  0
  151.9817  137.1200  183.5015 C   0  0  0  0  0  0  0  0  0  0  0  0
  151.2089  137.0616  184.4905 O   0  0  0  0  0  0  0  0  0  0  0  0
  152.9459  135.9996  183.3749 C   0  0  0  0  0  0  0  0  0  0  0  0
  153.6080  135.5583  184.4944 C   0  0  0  0  0  0  0  0  0  0  0  0
  154.5213  134.5103  184.4031 C   0  0  0  0  0  0  0  0  0  0  0  0
  154.7400  133.9294  183.1537 C   0  0  0  0  0  0  0  0  0  0  0  0
  154.0826  134.3622  182.0222 C   0  0  0  0  0  0  0  0  0  0  0  0
  154.3358  133.7503  180.8018 O   0  0  0  0  0  0  0  0  0  0  0  0
  153.1789  135.4108  182.1557 C   0  0  0  0  0  0  0  0  0  0  0  0
  153.8699  134.0455  179.9556 H   0  0  0  0  0  0  0  0  0  0  0  0
 15 16  1  0  0  0
 16 17  2  0  0  0
 16  1  1  0  0  0
  1  2  2  0  0  0
  2  3  1  0  0  0
  3  4  2  0  0  0
  4  5  1  0  0  0
  5  6  1  0  0  0
  5  7  2  0  0  0
  7  8  1  0  0  0
  7  9  1  0  0  0
  9 10  2  0  0  0
 10 11  1  0  0  0
 11 12  2  0  0  0
 11 19  1  0  0  0
 19 20  2  0  0  0
 19 21  1  0  0  0
 21 22  2  0  0  0
 22 23  1  0  0  0
 23 24  2  0  0  0
 24 25  1  0  0  0
 25 26  1  0  0  0
 25 27  2  0  0  0
 12  1  1  0  0  0
 27 21  1  0  0  0
 10  3  1  0  0  0
 15 18  1  0  0  0
  6 13  1  0  0  0
  8 14  1  0  0  0
 26 28  1  0  0  0
M  END
> <minimizedAffinity>
-6.29891

> <CNNscore>
0.4890536964

> <CNNaffinity>
4.4953498840

> <CNN_VS>
2.1984674931

> <CNNaffinity_variance>
0.0125404866

$$$$
[H]OC(=O)c1nc(C(=O)c2c([H])c([H])c([H])c(O[H])c2[H])c2c([H])c(O[H])c(O[H])c([H])c2c1[H]


 28 30  0  0  0  0  0  0  0  0999 V2000
  153.8888  141.4760  182.8852 C   0  0  0  0  0  0  0  0  0  0  0  0
  154.2331  140.6065  183.8922 C   0  0  0  0  0  0  0  0  0  0  0  0
  153.8746  139.2621  183.8162 C   0  0  0  0  0  0  0  0  0  0  0  0
  154.2235  138.3796  184.8179 C   0  0  0  0  0  0  0  0  0  0  0  0
  153.8815  137.0355  184.7498 C   0  0  0  0  0  0  0  0  0  0  0  0
  154.2426  136.1592  185.7722 O   0  0  0  0  0  0  0  0  0  0  0  0
  153.1820  136.6408  183.6356 C   0  0  0  0  0  0  0  0  0  0  0  0
  152.7911  135.3270  183.4641 O   0  0  0  0  0  0  0  0  0  0  0  0
  152.8277  137.5386  182.6178 C   0  0  0  0  0  0  0  0  0  0  0  0
  153.1689  138.8676  182.6936 C   0  0  0  0  0  0  0  0  0  0  0  0
  152.8246  139.7334  181.6909 C   0  0  0  0  0  0  0  0  0  0  0  0
  153.2026  141.0433  181.8162 N   0  0  0  0  0  0  0  0  0  0  0  0
  154.0095  135.1826  185.7511 H   0  0  0  0  0  0  0  0  0  0  0  0
  152.9918  134.6175  184.1238 H   0  0  0  0  0  0  0  0  0  0  0  0
  155.5331  143.3023  183.2849 O   0  0  0  0  0  0  0  0  0  0  0  0
  154.2673  142.8751  182.9774 C   0  0  0  0  0  0  0  0  0  0  0  0
  153.3925  143.7467  182.7643 O   0  0  0  0  0  0  0  0  0  0  0  0
  156.3702  142.7205  183.1985 H   0  0  0  0  0  0  0  0  0  0  0  0
  152.0552  139.4262  180.5029 C   0  0  0  0  0  0  0  0  0  0  0  0
  152.5503  139.3196  179.3530 O   0  0  0  0  0  0  0  0  0  0  0  0
  150.5894  139.2148  180.5915 C   0  0  0  0  0  0  0  0  0  0  0  0
  149.9095  138.7758  179.4817 C   0  0  0  0  0  0  0  0  0  0  0  0
  148.5325  138.5725  179.5364 C   0  0  0  0  0  0  0  0  0  0  0  0
  147.8728  138.8255  180.7394 C   0  0  0  0  0  0  0  0  0  0  0  0
  148.5426  139.2664  181.8605 C   0  0  0  0  0  0  0  0  0  0  0  0
  147.8396  139.5037  183.0341 O   0  0  0  0  0  0  0  0  0  0  0  0
  149.9168  139.4569  181.7646 C   0  0  0  0  0  0  0  0  0  0  0  0
  148.3024  139.8273  183.8715 H   0  0  0  0  0  0  0  0  0  0  0  0
 15 16  1  0  0  0
 16 17  2  0  0  0
 16  1  1  0  0  0
  1  2  2  0  0  0
  2  3  1  0  0  0
  3  4  2  0  0  0
  4  5  1  0  0  0
  5  6  1  0  0  0
  5  7  2  0  0  0
  7  8  1  0  0  0
  7  9  1  0  0  0
  9 10  2  0  0  0
 10 11  1  0  0  0
 11 12  2  0  0  0
 11 19  1  0  0  0
 19 20  2  0  0  0
 19 21  1  0  0  0
 21 22  2  0  0  0
 22 23  1  0  0  0
 23 24  2  0  0  0
 24 25  1  0  0  0
 25 26  1  0  0  0
 25 27  2  0  0  0
 12  1  1  0  0  0
 27 21  1  0  0  0
 10  3  1  0  0  0
 15 18  1  0  0  0
  6 13  1  0  0  0
  8 14  1  0  0  0
 26 28  1  0  0  0
M  END
> <minimizedAffinity>
-7.23675

> <CNNscore>
0.4081246555

> <CNNaffinity>
4.7826681137

> <CNN_VS>
1.9519248009

> <CNNaffinity_variance>
0.0214052647

$$$$
[H]OC(=O)c1nc(C(=O)c2c([H])c([H])c([H])c(O[H])c2[H])c2c([H])c(O[H])c(O[H])c([H])c2c1[H]


 28 30  0  0  0  0  0  0  0  0999 V2000
  156.2529  139.1945  184.9875 C   0  0  0  0  0  0  0  0  0  0  0  0
  155.1684  138.9056  184.1945 C   0  0  0  0  0  0  0  0  0  0  0  0
  154.0762  138.2160  184.7173 C   0  0  0  0  0  0  0  0  0  0  0  0
  152.9789  137.9293  183.9315 C   0  0  0  0  0  0  0  0  0  0  0  0
  151.8798  137.2518  184.4426 C   0  0  0  0  0  0  0  0  0  0  0  0
  150.7805  136.9707  183.6326 O   0  0  0  0  0  0  0  0  0  0  0  0
  151.9497  136.8882  185.7652 C   0  0  0  0  0  0  0  0  0  0  0  0
  150.9127  136.2108  186.3770 O   0  0  0  0  0  0  0  0  0  0  0  0
  153.0656  137.1800  186.5634 C   0  0  0  0  0  0  0  0  0  0  0  0
  154.1499  137.8497  186.0494 C   0  0  0  0  0  0  0  0  0  0  0  0
  155.2303  138.1360  186.8394 C   0  0  0  0  0  0  0  0  0  0  0  0
  156.2758  138.8163  186.2749 N   0  0  0  0  0  0  0  0  0  0  0  0
  149.9718  136.4826  183.9736 H   0  0  0  0  0  0  0  0  0  0  0  0
  150.0828  135.9583  185.9013 H   0  0  0  0  0  0  0  0  0  0  0  0
  157.9584  139.6097  183.2219 O   0  0  0  0  0  0  0  0  0  0  0  0
  157.3854  139.9126  184.4298 C   0  0  0  0  0  0  0  0  0  0  0  0
  157.8710  140.8647  185.0841 O   0  0  0  0  0  0  0  0  0  0  0  0
  157.4947  139.0680  182.4883 H   0  0  0  0  0  0  0  0  0  0  0  0
  155.4177  137.7607  188.2256 C   0  0  0  0  0  0  0  0  0  0  0  0
  154.9953  138.4333  189.1993 O   0  0  0  0  0  0  0  0  0  0  0  0
  156.1455  136.5159  188.5747 C   0  0  0  0  0  0  0  0  0  0  0  0
  156.3613  136.2168  189.8977 C   0  0  0  0  0  0  0  0  0  0  0  0
  157.0449  135.0562  190.2531 C   0  0  0  0  0  0  0  0  0  0  0  0
  157.4983  134.2166  189.2354 C   0  0  0  0  0  0  0  0  0  0  0  0
  157.2887  134.5045  187.9038 C   0  0  0  0  0  0  0  0  0  0  0  0
  157.7602  133.6357  186.9287 O   0  0  0  0  0  0  0  0  0  0  0  0
  156.6021  135.6726  187.5909 C   0  0  0  0  0  0  0  0  0  0  0  0
  157.6222  133.8197  185.9452 H   0  0  0  0  0  0  0  0  0  0  0  0
 15 16  1  0  0  0
 16 17  2  0  0  0
 16  1  1  0  0  0
  1  2  2  0  0  0
  2  3  1  0  0  0
  3  4  2  0  0  0
  4  5  1  0  0  0
  5  6  1  0  0  0
  5  7  2  0  0  0
  7  8  1  0  0  0
  7  9  1  0  0  0
  9 10  2  0  0  0
 10 11  1  0  0  0
 11 12  2  0  0  0
 11 19  1  0  0  0
 19 20  2  0  0  0
 19 21  1  0  0  0
 21 22  2  0  0  0
 22 23  1  0  0  0
 23 24  2  0  0  0
 24 25  1  0  0  0
 25 26  1  0  0  0
 25 27  2  0  0  0
 12  1  1  0  0  0
 27 21  1  0  0  0
 10  3  1  0  0  0
 15 18  1  0  0  0
  6 13  1  0  0  0
  8 14  1  0  0  0
 26 28  1  0  0  0
M  END
> <minimizedAffinity>
-5.39586

> <CNNscore>
0.3739477694

> <CNNaffinity>
4.6588072777

> <CNN_VS>
1.7421505451

> <CNNaffinity_variance>
0.2812485695

$$$$
[H]OC(=O)c1nc(C(=O)c2c([H])c([H])c([H])c(O[H])c2[H])c2c([H])c(O[H])c(O[H])c([H])c2c1[H]


 28 30  0  0  0  0  0  0  0  0999 V2000
  156.4207  139.4917  184.9677 C   0  0  0  0  0  0  0  0  0  0  0  0
  155.3316  139.4444  184.1309 C   0  0  0  0  0  0  0  0  0  0  0  0
  154.3016  138.5356  184.3648 C   0  0  0  0  0  0  0  0  0  0  0  0
  153.1998  138.4867  183.5355 C   0  0  0  0  0  0  0  0  0  0  0  0
  152.1617  137.5929  183.7631 C   0  0  0  0  0  0  0  0  0  0  0  0
  151.0569  137.5581  182.9136 O   0  0  0  0  0  0  0  0  0  0  0  0
  152.2961  136.7685  184.8535 C   0  0  0  0  0  0  0  0  0  0  0  0
  151.3231  135.8417  185.1741 O   0  0  0  0  0  0  0  0  0  0  0  0
  153.4164  136.8188  185.6959 C   0  0  0  0  0  0  0  0  0  0  0  0
  154.4401  137.7054  185.4628 C   0  0  0  0  0  0  0  0  0  0  0  0
  155.5251  137.7512  186.2959 C   0  0  0  0  0  0  0  0  0  0  0  0
  156.5079  138.6636  186.0201 N   0  0  0  0  0  0  0  0  0  0  0  0
  150.2913  136.9232  183.0525 H   0  0  0  0  0  0  0  0  0  0  0  0
  150.4958  135.7276  184.6436 H   0  0  0  0  0  0  0  0  0  0  0  0
  157.2903  141.7935  184.5884 O   0  0  0  0  0  0  0  0  0  0  0  0
  157.4881  140.4427  184.7119 C   0  0  0  0  0  0  0  0  0  0  0  0
  158.6590  140.0111  184.5970 O   0  0  0  0  0  0  0  0  0  0  0  0
  156.4626  142.2848  184.9353 H   0  0  0  0  0  0  0  0  0  0  0  0
  155.7794  136.9004  187.4401 C   0  0  0  0  0  0  0  0  0  0  0  0
  156.3661  135.7912  187.3746 O   0  0  0  0  0  0  0  0  0  0  0  0
  155.3420  137.3147  188.7958 C   0  0  0  0  0  0  0  0  0  0  0  0
  156.1745  138.0997  189.5555 C   0  0  0  0  0  0  0  0  0  0  0  0
  155.7900  138.5001  190.8333 C   0  0  0  0  0  0  0  0  0  0  0  0
  154.5473  138.0839  191.3118 C   0  0  0  0  0  0  0  0  0  0  0  0
  153.7021  137.2962  190.5602 C   0  0  0  0  0  0  0  0  0  0  0  0
  152.4753  136.9088  191.0825 O   0  0  0  0  0  0  0  0  0  0  0  0
  154.1231  136.9180  189.2899 C   0  0  0  0  0  0  0  0  0  0  0  0
  151.8349  136.3318  190.5560 H   0  0  0  0  0  0  0  0  0  0  0  0
 15 16  1  0  0  0
 16 17  2  0  0  0
 16  1  1  0  0  0
  1  2  2  0  0  0
  2  3  1  0  0  0
  3  4  2  0  0  0
  4  5  1  0  0  0
  5  6  1  0  0  0
  5  7  2  0  0  0
  7  8  1  0  0  0
  7  9  1  0  0  0
  9 10  2  0  0  0
 10 11  1  0  0  0
 11 12  2  0  0  0
 11 19  1  0  0  0
 19 20  2  0  0  0
 19 21  1  0  0  0
 21 22  2  0  0  0
 22 23  1  0  0  0
 23 24  2  0  0  0
 24 25  1  0  0  0
 25 26  1  0  0  0
 25 27  2  0  0  0
 12  1  1  0  0  0
 27 21  1  0  0  0
 10  3  1  0  0  0
 15 18  1  0  0  0
  6 13  1  0  0  0
  8 14  1  0  0  0
 26 28  1  0  0  0
M  END
> <minimizedAffinity>
-6.34803

> <CNNscore>
0.3442449272

> <CNNaffinity>
4.6735439301

> <CNN_VS>
1.6088438034

> <CNNaffinity_variance>
0.0734680146

$$$$
[H]OC(=O)c1nc(C(=O)c2c([H])c([H])c([H])c(O[H])c2[H])c2c([H])c(O[H])c(O[H])c([H])c2c1[H]


 28 30  0  0  0  0  0  0  0  0999 V2000
  152.7906  137.4452  185.0883 C   0  0  0  0  0  0  0  0  0  0  0  0
  153.2341  138.4633  184.2789 C   0  0  0  0  0  0  0  0  0  0  0  0
  154.5037  139.0077  184.4621 C   0  0  0  0  0  0  0  0  0  0  0  0
  154.9614  140.0240  183.6487 C   0  0  0  0  0  0  0  0  0  0  0  0
  156.2281  140.5683  183.8139 C   0  0  0  0  0  0  0  0  0  0  0  0
  156.6727  141.5952  182.9824 O   0  0  0  0  0  0  0  0  0  0  0  0
  156.9912  140.0389  184.8259 C   0  0  0  0  0  0  0  0  0  0  0  0
  158.2669  140.5046  185.0790 O   0  0  0  0  0  0  0  0  0  0  0  0
  156.5251  139.0059  185.6523 C   0  0  0  0  0  0  0  0  0  0  0  0
  155.2696  138.4736  185.4830 C   0  0  0  0  0  0  0  0  0  0  0  0
  154.8278  137.4604  186.2903 C   0  0  0  0  0  0  0  0  0  0  0  0
  153.5726  136.9620  186.0660 N   0  0  0  0  0  0  0  0  0  0  0  0
  157.5830  142.0087  183.0776 H   0  0  0  0  0  0  0  0  0  0  0  0
  158.6869  141.2300  184.5534 H   0  0  0  0  0  0  0  0  0  0  0  0
  150.7054  136.3490  185.8939 O   0  0  0  0  0  0  0  0  0  0  0  0
  151.4646  136.8877  184.8876 C   0  0  0  0  0  0  0  0  0  0  0  0
  150.9805  136.8967  183.7318 O   0  0  0  0  0  0  0  0  0  0  0  0
  150.8570  136.5363  186.8882 H   0  0  0  0  0  0  0  0  0  0  0  0
  155.5353  136.8660  187.4055 C   0  0  0  0  0  0  0  0  0  0  0  0
  156.4147  135.9764  187.2864 O   0  0  0  0  0  0  0  0  0  0  0  0
  155.2436  137.2963  188.7951 C   0  0  0  0  0  0  0  0  0  0  0  0
  156.1694  138.0560  189.4675 C   0  0  0  0  0  0  0  0  0  0  0  0
  155.9224  138.4706  190.7743 C   0  0  0  0  0  0  0  0  0  0  0  0
  154.7192  138.0946  191.3721 C   0  0  0  0  0  0  0  0  0  0  0  0
  153.7814  137.3325  190.7091 C   0  0  0  0  0  0  0  0  0  0  0  0
  152.5991  136.9850  191.3488 O   0  0  0  0  0  0  0  0  0  0  0  0
  154.0661  136.9391  189.4060 C   0  0  0  0  0  0  0  0  0  0  0  0
  151.8933  136.4275  190.8891 H   0  0  0  0  0  0  0  0  0  0  0  0
 15 16  1  0  0  0
 16 17  2  0  0  0
 16  1  1  0  0  0
  1  2  2  0  0  0
  2  3  1  0  0  0
  3  4  2  0  0  0
  4  5  1  0  0  0
  5  6  1  0  0  0
  5  7  2  0  0  0
  7  8  1  0  0  0
  7  9  1  0  0  0
  9 10  2  0  0  0
 10 11  1  0  0  0
 11 12  2  0  0  0
 11 19  1  0  0  0
 19 20  2  0  0  0
 19 21  1  0  0  0
 21 22  2  0  0  0
 22 23  1  0  0  0
 23 24  2  0  0  0
 24 25  1  0  0  0
 25 26  1  0  0  0
 25 27  2  0  0  0
 12  1  1  0  0  0
 27 21  1  0  0  0
 10  3  1  0  0  0
 15 18  1  0  0  0
  6 13  1  0  0  0
  8 14  1  0  0  0
 26 28  1  0  0  0
M  END
> <minimizedAffinity>
-6.44233

> <CNNscore>
0.3373844326

> <CNNaffinity>
4.6880149841

> <CNN_VS>
1.5816632509

> <CNNaffinity_variance>
0.0643279701

$$$$
[H]OC(=O)c1nc(C(=O)c2c([H])c([H])c([H])c(O[H])c2[H])c2c([H])c(O[H])c(O[H])c([H])c2c1[H]


 28 30  0  0  0  0  0  0  0  0999 V2000
  155.4447  138.7812  185.5475 C   0  0  0  0  0  0  0  0  0  0  0  0
  154.1238  138.4606  185.3454 C   0  0  0  0  0  0  0  0  0  0  0  0
  153.4048  137.7814  186.3270 C   0  0  0  0  0  0  0  0  0  0  0  0
  152.0758  137.4631  186.1371 C   0  0  0  0  0  0  0  0  0  0  0  0
  151.3451  136.7956  187.1112 C   0  0  0  0  0  0  0  0  0  0  0  0
  150.0031  136.4822  186.9007 O   0  0  0  0  0  0  0  0  0  0  0  0
  152.0184  136.4748  188.2645 C   0  0  0  0  0  0  0  0  0  0  0  0
  151.3890  135.8110  189.2997 O   0  0  0  0  0  0  0  0  0  0  0  0
  153.3695  136.7987  188.4567 C   0  0  0  0  0  0  0  0  0  0  0  0
  154.0859  137.4582  187.4871 C   0  0  0  0  0  0  0  0  0  0  0  0
  155.4019  137.7761  187.6884 C   0  0  0  0  0  0  0  0  0  0  0  0
  156.0605  138.4443  186.6913 N   0  0  0  0  0  0  0  0  0  0  0  0
  149.4492  136.0003  187.5860 H   0  0  0  0  0  0  0  0  0  0  0  0
  150.4386  135.5384  189.2625 H   0  0  0  0  0  0  0  0  0  0  0  0
  157.5237  139.7635  184.5927 O   0  0  0  0  0  0  0  0  0  0  0  0
  156.1830  139.4880  184.5157 C   0  0  0  0  0  0  0  0  0  0  0  0
  155.5662  139.8700  183.4940 O   0  0  0  0  0  0  0  0  0  0  0  0
  158.1741  139.2731  185.2116 H   0  0  0  0  0  0  0  0  0  0  0  0
  156.2090  137.4463  188.8448 C   0  0  0  0  0  0  0  0  0  0  0  0
  156.4390  138.2403  189.7911 O   0  0  0  0  0  0  0  0  0  0  0  0
  156.8262  136.1031  188.9713 C   0  0  0  0  0  0  0  0  0  0  0  0
  157.3206  135.4865  187.8480 C   0  0  0  0  0  0  0  0  0  0  0  0
  157.9019  134.2238  187.9380 C   0  0  0  0  0  0  0  0  0  0  0  0
  157.9660  133.6118  189.1901 C   0  0  0  0  0  0  0  0  0  0  0  0
  157.4738  134.2190  190.3254 C   0  0  0  0  0  0  0  0  0  0  0  0
  157.5619  133.5674  191.5483 O   0  0  0  0  0  0  0  0  0  0  0  0
  156.9012  135.4793  190.1930 C   0  0  0  0  0  0  0  0  0  0  0  0
  157.2101  133.9866  192.3973 H   0  0  0  0  0  0  0  0  0  0  0  0
 15 16  1  0  0  0
 16 17  2  0  0  0
 16  1  1  0  0  0
  1  2  2  0  0  0
  2  3  1  0  0  0
  3  4  2  0  0  0
  4  5  1  0  0  0
  5  6  1  0  0  0
  5  7  2  0  0  0
  7  8  1  0  0  0
  7  9  1  0  0  0
  9 10  2  0  0  0
 10 11  1  0  0  0
 11 12  2  0  0  0
 11 19  1  0  0  0
 19 20  2  0  0  0
 19 21  1  0  0  0
 21 22  2  0  0  0
 22 23  1  0  0  0
 23 24  2  0  0  0
 24 25  1  0  0  0
 25 26  1  0  0  0
 25 27  2  0  0  0
 12  1  1  0  0  0
 27 21  1  0  0  0
 10  3  1  0  0  0
 15 18  1  0  0  0
  6 13  1  0  0  0
  8 14  1  0  0  0
 26 28  1  0  0  0
M  END
> <minimizedAffinity>
-5.57238

> <CNNscore>
0.3343170285

> <CNNaffinity>
4.6517457962

> <CNN_VS>
1.5551577806

> <CNNaffinity_variance>
0.2602562308

$$$$
[H]OC(=O)c1nc(C(=O)c2c([H])c([H])c([H])c(O[H])c2[H])c2c([H])c(O[H])c(O[H])c([H])c2c1[H]


 28 30  0  0  0  0  0  0  0  0999 V2000
  152.7808  139.4257  181.7467 C   0  0  0  0  0  0  0  0  0  0  0  0
  152.6838  138.3270  182.5665 C   0  0  0  0  0  0  0  0  0  0  0  0
  153.4795  138.2249  183.7058 C   0  0  0  0  0  0  0  0  0  0  0  0
  153.3829  137.1300  184.5399 C   0  0  0  0  0  0  0  0  0  0  0  0
  154.1626  137.0205  185.6838 C   0  0  0  0  0  0  0  0  0  0  0  0
  154.0511  135.9061  186.5140 O   0  0  0  0  0  0  0  0  0  0  0  0
  155.0273  138.0582  185.9330 C   0  0  0  0  0  0  0  0  0  0  0  0
  155.8496  138.0538  187.0430 O   0  0  0  0  0  0  0  0  0  0  0  0
  155.1248  139.1708  185.0845 C   0  0  0  0  0  0  0  0  0  0  0  0
  154.3506  139.2708  183.9536 C   0  0  0  0  0  0  0  0  0  0  0  0
  154.4485  140.3647  183.1368 C   0  0  0  0  0  0  0  0  0  0  0  0
  153.6428  140.4141  182.0310 N   0  0  0  0  0  0  0  0  0  0  0  0
  154.6013  135.7988  187.3473 H   0  0  0  0  0  0  0  0  0  0  0  0
  155.8566  137.3158  187.7020 H   0  0  0  0  0  0  0  0  0  0  0  0
  150.5782  139.4425  180.5861 O   0  0  0  0  0  0  0  0  0  0  0  0
  151.9467  139.5191  180.5615 C   0  0  0  0  0  0  0  0  0  0  0  0
  152.5026  139.6795  179.4499 O   0  0  0  0  0  0  0  0  0  0  0  0
  150.0113  139.5980  181.4234 H   0  0  0  0  0  0  0  0  0  0  0  0
  155.3542  141.4847  183.2884 C   0  0  0  0  0  0  0  0  0  0  0  0
  155.0707  142.5386  183.9112 O   0  0  0  0  0  0  0  0  0  0  0  0
  156.7119  141.4385  182.6922 C   0  0  0  0  0  0  0  0  0  0  0  0
  156.8880  141.8630  181.3979 C   0  0  0  0  0  0  0  0  0  0  0  0
  158.1516  141.8269  180.8125 C   0  0  0  0  0  0  0  0  0  0  0  0
  159.2205  141.3519  181.5730 C   0  0  0  0  0  0  0  0  0  0  0  0
  159.0580  140.9229  182.8727 C   0  0  0  0  0  0  0  0  0  0  0  0
  160.1545  140.4590  183.5872 O   0  0  0  0  0  0  0  0  0  0  0  0
  157.7807  140.9750  183.4202 C   0  0  0  0  0  0  0  0  0  0  0  0
  160.0668  140.1379  184.5408 H   0  0  0  0  0  0  0  0  0  0  0  0
 15 16  1  0  0  0
 16 17  2  0  0  0
 16  1  1  0  0  0
  1  2  2  0  0  0
  2  3  1  0  0  0
  3  4  2  0  0  0
  4  5  1  0  0  0
  5  6  1  0  0  0
  5  7  2  0  0  0
  7  8  1  0  0  0
  7  9  1  0  0  0
  9 10  2  0  0  0
 10 11  1  0  0  0
 11 12  2  0  0  0
 11 19  1  0  0  0
 19 20  2  0  0  0
 19 21  1  0  0  0
 21 22  2  0  0  0
 22 23  1  0  0  0
 23 24  2  0  0  0
 24 25  1  0  0  0
 25 26  1  0  0  0
 25 27  2  0  0  0
 12  1  1  0  0  0
 27 21  1  0  0  0
 10  3  1  0  0  0
 15 18  1  0  0  0
  6 13  1  0  0  0
  8 14  1  0  0  0
 26 28  1  0  0  0
M  END
> <minimizedAffinity>
-7.67359

> <CNNscore>
0.3219562173

> <CNNaffinity>
5.0322513580

> <CNN_VS>
1.6201646328

> <CNNaffinity_variance>
0.1637492329

$$$$
[H]OC(=O)c1nc(C(=O)c2c([H])c([H])c([H])c(O[H])c2[H])c2c([H])c(O[H])c(O[H])c([H])c2c1[H]


 28 30  0  0  0  0  0  0  0  0999 V2000
  155.1828  138.5399  185.9118 C   0  0  0  0  0  0  0  0  0  0  0  0
  153.8716  138.1450  185.7962 C   0  0  0  0  0  0  0  0  0  0  0  0
  153.2400  137.4810  186.8459 C   0  0  0  0  0  0  0  0  0  0  0  0
  151.9212  137.0886  186.7429 C   0  0  0  0  0  0  0  0  0  0  0  0
  151.2769  136.4353  187.7851 C   0  0  0  0  0  0  0  0  0  0  0  0
  149.9439  136.0460  187.6619 O   0  0  0  0  0  0  0  0  0  0  0  0
  152.0242  136.2059  188.9145 C   0  0  0  0  0  0  0  0  0  0  0  0
  151.4837  135.5643  190.0122 O   0  0  0  0  0  0  0  0  0  0  0  0
  153.3647  136.6051  189.0185 C   0  0  0  0  0  0  0  0  0  0  0  0
  153.9954  137.2499  187.9817 C   0  0  0  0  0  0  0  0  0  0  0  0
  155.3017  137.6419  188.0969 C   0  0  0  0  0  0  0  0  0  0  0  0
  155.8729  138.2912  187.0355 N   0  0  0  0  0  0  0  0  0  0  0  0
  149.4516  135.5722  188.3979 H   0  0  0  0  0  0  0  0  0  0  0  0
  150.5481  135.2437  190.0389 H   0  0  0  0  0  0  0  0  0  0  0  0
  157.1292  139.6651  184.8421 O   0  0  0  0  0  0  0  0  0  0  0  0
  155.8297  139.2299  184.8096 C   0  0  0  0  0  0  0  0  0  0  0  0
  155.1687  139.4422  183.7664 O   0  0  0  0  0  0  0  0  0  0  0  0
  157.8347  139.3125  185.4937 H   0  0  0  0  0  0  0  0  0  0  0  0
  156.1830  137.4102  189.2227 C   0  0  0  0  0  0  0  0  0  0  0  0
  156.4644  138.2792  190.0855 O   0  0  0  0  0  0  0  0  0  0  0  0
  156.8197  136.0844  189.4174 C   0  0  0  0  0  0  0  0  0  0  0  0
  156.7141  135.4656  190.6391 C   0  0  0  0  0  0  0  0  0  0  0  0
  157.3055  134.2220  190.8501 C   0  0  0  0  0  0  0  0  0  0  0  0
  158.0001  133.6312  189.7942 C   0  0  0  0  0  0  0  0  0  0  0  0
  158.1138  134.2410  188.5633 C   0  0  0  0  0  0  0  0  0  0  0  0
  158.8161  133.6108  187.5447 O   0  0  0  0  0  0  0  0  0  0  0  0
  157.5093  135.4818  188.3935 C   0  0  0  0  0  0  0  0  0  0  0  0
  158.9169  134.0326  186.6325 H   0  0  0  0  0  0  0  0  0  0  0  0
 15 16  1  0  0  0
 16 17  2  0  0  0
 16  1  1  0  0  0
  1  2  2  0  0  0
  2  3  1  0  0  0
  3  4  2  0  0  0
  4  5  1  0  0  0
  5  6  1  0  0  0
  5  7  2  0  0  0
  7  8  1  0  0  0
  7  9  1  0  0  0
  9 10  2  0  0  0
 10 11  1  0  0  0
 11 12  2  0  0  0
 11 19  1  0  0  0
 19 20  2  0  0  0
 19 21  1  0  0  0
 21 22  2  0  0  0
 22 23  1  0  0  0
 23 24  2  0  0  0
 24 25  1  0  0  0
 25 26  1  0  0  0
 25 27  2  0  0  0
 12  1  1  0  0  0
 27 21  1  0  0  0
 10  3  1  0  0  0
 15 18  1  0  0  0
  6 13  1  0  0  0
  8 14  1  0  0  0
 26 28  1  0  0  0
M  END
> <minimizedAffinity>
-5.55804

> <CNNscore>
0.3218433261

> <CNNaffinity>
4.6322569847

> <CNN_VS>
1.4908609390

> <CNNaffinity_variance>
0.2252827138

$$$$
[H]OC(=O)c1nc(C(=O)c2c([H])c([H])c([H])c(O[H])c2[H])c2c([H])c(O[H])c(O[H])c([H])c2c1[H]


 28 30  0  0  0  0  0  0  0  0999 V2000
  154.5936  140.9354  183.1917 C   0  0  0  0  0  0  0  0  0  0  0  0
  153.6992  141.0933  182.1603 C   0  0  0  0  0  0  0  0  0  0  0  0
  152.8152  140.0680  181.8303 C   0  0  0  0  0  0  0  0  0  0  0  0
  151.9076  140.2204  180.8023 C   0  0  0  0  0  0  0  0  0  0  0  0
  151.0143  139.2105  180.4698 C   0  0  0  0  0  0  0  0  0  0  0  0
  150.1049  139.3831  179.4273 O   0  0  0  0  0  0  0  0  0  0  0  0
  151.0876  138.0617  181.2190 C   0  0  0  0  0  0  0  0  0  0  0  0
  150.2462  136.9934  180.9754 O   0  0  0  0  0  0  0  0  0  0  0  0
  152.0106  137.9075  182.2638 C   0  0  0  0  0  0  0  0  0  0  0  0
  152.8922  138.9114  182.5856 C   0  0  0  0  0  0  0  0  0  0  0  0
  153.7836  138.7531  183.6122 C   0  0  0  0  0  0  0  0  0  0  0  0
  154.6287  139.7926  183.8942 N   0  0  0  0  0  0  0  0  0  0  0  0
  149.4473  138.6713  179.1637 H   0  0  0  0  0  0  0  0  0  0  0  0
  149.5612  137.0025  180.2616 H   0  0  0  0  0  0  0  0  0  0  0  0
  156.6557  141.8360  184.2571 O   0  0  0  0  0  0  0  0  0  0  0  0
  155.5105  142.0114  183.5245 C   0  0  0  0  0  0  0  0  0  0  0  0
  155.2465  143.1683  183.1217 O   0  0  0  0  0  0  0  0  0  0  0  0
  157.1165  140.9324  184.3912 H   0  0  0  0  0  0  0  0  0  0  0  0
  153.9677  137.5716  184.4294 C   0  0  0  0  0  0  0  0  0  0  0  0
  154.4545  136.4932  184.0063 O   0  0  0  0  0  0  0  0  0  0  0  0
  153.5750  137.5795  185.8600 C   0  0  0  0  0  0  0  0  0  0  0  0
  154.3359  138.2877  186.7578 C   0  0  0  0  0  0  0  0  0  0  0  0
  153.9916  138.3090  188.1075 C   0  0  0  0  0  0  0  0  0  0  0  0
  152.8629  137.5971  188.5144 C   0  0  0  0  0  0  0  0  0  0  0  0
  152.0905  136.8823  187.6243 C   0  0  0  0  0  0  0  0  0  0  0  0
  150.9763  136.1903  188.0802 O   0  0  0  0  0  0  0  0  0  0  0  0
  152.4679  136.8864  186.2859 C   0  0  0  0  0  0  0  0  0  0  0  0
  150.3914  135.6576  187.4522 H   0  0  0  0  0  0  0  0  0  0  0  0
 15 16  1  0  0  0
 16 17  2  0  0  0
 16  1  1  0  0  0
  1  2  2  0  0  0
  2  3  1  0  0  0
  3  4  2  0  0  0
  4  5  1  0  0  0
  5  6  1  0  0  0
  5  7  2  0  0  0
  7  8  1  0  0  0
  7  9  1  0  0  0
  9 10  2  0  0  0
 10 11  1  0  0  0
 11 12  2  0  0  0
 11 19  1  0  0  0
 19 20  2  0  0  0
 19 21  1  0  0  0
 21 22  2  0  0  0
 22 23  1  0  0  0
 23 24  2  0  0  0
 24 25  1  0  0  0
 25 26  1  0  0  0
 25 27  2  0  0  0
 12  1  1  0  0  0
 27 21  1  0  0  0
 10  3  1  0  0  0
 15 18  1  0  0  0
  6 13  1  0  0  0
  8 14  1  0  0  0
 26 28  1  0  0  0
M  END
> <minimizedAffinity>
-6.87311

> <CNNscore>
0.3146939278

> <CNNaffinity>
4.7465143204

> <CNN_VS>
1.4936991930

> <CNNaffinity_variance>
0.1267333776

$$$$
[H]Oc1c([H])c([H])c(C([H])([H])[C@@]([H])(C(=O)N2C([H])([H])C([H])([H])C([H])([H])[C@@]2([H])C(=O)N([H])C([H])([H])C(=O)N([H])[C@]([H])(C(=O)N([H])[C@]([H])(C(=O)N([H])[H])C([H])([H])C([H])(C([H])([H])[H])C([H])([H])[H])C([H])([H])c2c([H])n([H])c3c([H])c([H])c([H])c([H])c23)N([H])[H])c([H])c1[H]


 55 58  0  0  0  0  0  0  0  0999 V2000
  154.8867  139.9403  183.3445 N   0  0  0  0  0  0  0  0  0  0  0  0
  154.2643  141.1019  182.8629 C   0  0  0  0  0  0  0  0  0  0  0  0
  154.6763  142.2057  183.3740 O   0  0  0  0  0  0  0  0  0  0  0  0
  154.6678  138.9877  183.0099 H   0  0  0  0  0  0  0  0  0  0  0  0
  155.9416  140.0000  184.3996 C   0  0  0  0  0  0  0  0  0  0  0  0
  157.8437  141.5271  183.7012 N   0  0  0  0  0  0  0  0  0  0  0  0
  157.2155  140.2733  183.7367 C   0  0  0  0  0  0  0  0  0  0  0  0
  157.7942  139.3204  183.1452 O   0  0  0  0  0  0  0  0  0  0  0  0
  157.4549  142.3609  184.1602 H   0  0  0  0  0  0  0  0  0  0  0  0
  159.1411  141.7374  182.9832 C   0  0  0  0  0  0  0  0  0  0  0  0
  160.1612  141.8102  184.0108 C   0  0  0  0  0  0  0  0  0  0  0  0
  161.4489  141.2671  183.8393 N   0  0  0  0  0  0  0  0  0  0  0  0
  159.9353  142.3719  185.1355 O   0  0  0  0  0  0  0  0  0  0  0  0
  161.7154  140.5421  183.1295 H   0  0  0  0  0  0  0  0  0  0  0  0
  162.2605  141.5737  184.4434 H   0  0  0  0  0  0  0  0  0  0  0  0
  158.9061  142.9646  182.1804 C   0  0  0  0  0  0  0  0  0  0  0  0
  158.3511  141.5000  180.2039 C   0  0  0  0  0  0  0  0  0  0  0  0
  158.6639  142.8919  180.7325 C   0  0  0  0  0  0  0  0  0  0  0  0
  159.5073  143.7076  179.8260 C   0  0  0  0  0  0  0  0  0  0  0  0
  155.8825  138.6834  185.0923 C   0  0  0  0  0  0  0  0  0  0  0  0
  154.9180  138.4921  186.1645 C   0  0  0  0  0  0  0  0  0  0  0  0
  153.5312  138.5462  186.0979 C   0  0  0  0  0  0  0  0  0  0  0  0
  153.0611  138.3566  187.3258 N   0  0  0  0  0  0  0  0  0  0  0  0
  154.0457  138.1768  188.2161 C   0  0  0  0  0  0  0  0  0  0  0  0
  154.0316  137.9384  189.5699 C   0  0  0  0  0  0  0  0  0  0  0  0
  155.2057  137.7669  190.2833 C   0  0  0  0  0  0  0  0  0  0  0  0
  156.3815  137.8454  189.5757 C   0  0  0  0  0  0  0  0  0  0  0  0
  156.3911  138.0836  188.2263 C   0  0  0  0  0  0  0  0  0  0  0  0
  155.2195  138.2584  187.5031 C   0  0  0  0  0  0  0  0  0  0  0  0
  152.0420  138.3394  187.6152 H   0  0  0  0  0  0  0  0  0  0  0  0
  153.2001  141.1622  181.8430 C   0  0  0  0  0  0  0  0  0  0  0  0
  152.2604  140.0790  181.9222 N   0  0  0  0  0  0  0  0  0  0  0  0
  151.9516  139.2637  180.7625 C   0  0  0  0  0  0  0  0  0  0  0  0
  152.5691  139.5625  179.7294 O   0  0  0  0  0  0  0  0  0  0  0  0
  151.7965  139.8829  182.8261 H   0  0  0  0  0  0  0  0  0  0  0  0
  150.9981  138.2236  180.8901 C   0  0  0  0  0  0  0  0  0  0  0  0
  149.6740  138.6510  181.5555 C   0  0  0  0  0  0  0  0  0  0  0  0
  148.8913  137.3335  181.4840 C   0  0  0  0  0  0  0  0  0  0  0  0
  149.9604  136.2652  181.1843 C   0  0  0  0  0  0  0  0  0  0  0  0
  151.2009  136.9965  181.5887 N   0  0  0  0  0  0  0  0  0  0  0  0
  152.1748  136.5358  182.4544 C   0  0  0  0  0  0  0  0  0  0  0  0
  153.0767  137.4082  182.8074 O   0  0  0  0  0  0  0  0  0  0  0  0
  152.3754  135.2220  183.0422 C   0  0  0  0  0  0  0  0  0  0  0  0
  151.2726  134.9195  183.9801 N   0  0  0  0  0  0  0  0  0  0  0  0
  151.0743  135.7979  184.4872 H   0  0  0  0  0  0  0  0  0  0  0  0
  151.6389  134.2205  184.6655 H   0  0  0  0  0  0  0  0  0  0  0  0
  152.6432  134.0361  182.2254 C   0  0  0  0  0  0  0  0  0  0  0  0
  154.0203  133.7184  181.8565 C   0  0  0  0  0  0  0  0  0  0  0  0
  154.9619  133.1098  182.6540 C   0  0  0  0  0  0  0  0  0  0  0  0
  156.2506  132.8027  182.2875 C   0  0  0  0  0  0  0  0  0  0  0  0
  156.6591  133.1249  181.0089 C   0  0  0  0  0  0  0  0  0  0  0  0
  157.9546  132.8223  180.6196 O   0  0  0  0  0  0  0  0  0  0  0  0
  155.7660  133.7357  180.1632 C   0  0  0  0  0  0  0  0  0  0  0  0
  154.4718  134.0327  180.5621 C   0  0  0  0  0  0  0  0  0  0  0  0
  158.1770  131.9100  180.1830 H   0  0  0  0  0  0  0  0  0  0  0  0
 17 18  1  0  0  0
 18 19  1  0  0  0
 18 16  1  0  0  0
 16 10  1  0  0  0
 10  6  1  0  0  0
  6  7  1  0  0  0
  7  8  2  0  0  0
  7  5  1  0  0  0
  5 20  1  0  0  0
 20 21  1  0  0  0
 21 22  2  0  0  0
 22 23  1  0  0  0
 23 24  1  0  0  0
 24 25  2  0  0  0
 25 26  1  0  0  0
 26 27  2  0  0  0
 27 28  1  0  0  0
 28 29  2  0  0  0
  5  1  1  0  0  0
  1  2  1  0  0  0
  2  3  2  0  0  0
  2 31  1  0  0  0
 31 32  1  0  0  0
 32 33  1  0  0  0
 33 34  2  0  0  0
 33 36  1  0  0  0
 36 37  1  0  0  0
 37 38  1  0  0  0
 38 39  1  0  0  0
 39 40  1  0  0  0
 40 41  1  0  0  0
 41 42  2  0  0  0
 41 43  1  0  0  0
 43 44  1  0  0  0
 43 47  1  0  0  0
 47 48  1  0  0  0
 48 49  2  0  0  0
 49 50  1  0  0  0
 50 51  2  0  0  0
 51 52  1  0  0  0
 51 53  1  0  0  0
 53 54  2  0  0  0
 10 11  1  0  0  0
 11 12  1  0  0  0
 11 13  2  0  0  0
 29 21  1  0  0  0
 40 36  1  0  0  0
 54 48  1  0  0  0
 29 24  1  0  0  0
  6  9  1  0  0  0
 23 30  1  0  0  0
  1  4  1  0  0  0
 32 35  1  0  0  0
 44 45  1  0  0  0
 44 46  1  0  0  0
 52 55  1  0  0  0
 12 14  1  0  0  0
 12 15  1  0  0  0
M  END
> <minimizedAffinity>
-8.77955

> <CNNscore>
0.4560571909

> <CNNaffinity>
6.9320869446

> <CNN_VS>
3.1614282131

> <CNNaffinity_variance>
0.9956140518

$$$$
[H]Oc1c([H])c([H])c(C([H])([H])[C@@]([H])(C(=O)N2C([H])([H])C([H])([H])C([H])([H])[C@@]2([H])C(=O)N([H])C([H])([H])C(=O)N([H])[C@]([H])(C(=O)N([H])[C@]([H])(C(=O)N([H])[H])C([H])([H])C([H])(C([H])([H])[H])C([H])([H])[H])C([H])([H])c2c([H])n([H])c3c([H])c([H])c([H])c([H])c23)N([H])[H])c([H])c1[H]


 55 58  0  0  0  0  0  0  0  0999 V2000
  155.0489  140.3667  183.8671 N   0  0  0  0  0  0  0  0  0  0  0  0
  156.0871  139.5635  184.3625 C   0  0  0  0  0  0  0  0  0  0  0  0
  156.9279  139.1407  183.4886 O   0  0  0  0  0  0  0  0  0  0  0  0
  154.3143  140.7891  184.4581 H   0  0  0  0  0  0  0  0  0  0  0  0
  154.9311  140.6807  182.4121 C   0  0  0  0  0  0  0  0  0  0  0  0
  157.0979  141.8085  181.7256 N   0  0  0  0  0  0  0  0  0  0  0  0
  155.7599  141.8549  182.1443 C   0  0  0  0  0  0  0  0  0  0  0  0
  155.2446  142.9955  182.3064 O   0  0  0  0  0  0  0  0  0  0  0  0
  157.6016  140.9279  181.5582 H   0  0  0  0  0  0  0  0  0  0  0  0
  157.8927  143.0559  181.4902 C   0  0  0  0  0  0  0  0  0  0  0  0
  158.5723  142.8657  180.2238 C   0  0  0  0  0  0  0  0  0  0  0  0
  158.3066  141.7713  179.3788 N   0  0  0  0  0  0  0  0  0  0  0  0
  159.4588  143.6885  179.8130 O   0  0  0  0  0  0  0  0  0  0  0  0
  157.8450  140.8750  179.6686 H   0  0  0  0  0  0  0  0  0  0  0  0
  158.5680  141.7905  178.3546 H   0  0  0  0  0  0  0  0  0  0  0  0
  158.7453  143.1657  182.7014 C   0  0  0  0  0  0  0  0  0  0  0  0
  158.8021  141.9508  184.9105 C   0  0  0  0  0  0  0  0  0  0  0  0
  159.1799  141.9697  183.4369 C   0  0  0  0  0  0  0  0  0  0  0  0
  160.5188  141.4019  183.1485 C   0  0  0  0  0  0  0  0  0  0  0  0
  153.4771  140.8900  182.1694 C   0  0  0  0  0  0  0  0  0  0  0  0
  152.6063  139.7303  182.0538 C   0  0  0  0  0  0  0  0  0  0  0  0
  152.5578  138.6031  182.8647 C   0  0  0  0  0  0  0  0  0  0  0  0
  151.6442  137.7818  182.3589 N   0  0  0  0  0  0  0  0  0  0  0  0
  151.0729  138.2867  181.2575 C   0  0  0  0  0  0  0  0  0  0  0  0
  150.0897  137.8051  180.4262 C   0  0  0  0  0  0  0  0  0  0  0  0
  149.6461  138.5353  179.3367 C   0  0  0  0  0  0  0  0  0  0  0  0
  150.2333  139.7604  179.1274 C   0  0  0  0  0  0  0  0  0  0  0  0
  151.2133  140.2365  179.9583 C   0  0  0  0  0  0  0  0  0  0  0  0
  151.6655  139.5112  181.0517 C   0  0  0  0  0  0  0  0  0  0  0  0
  151.3653  136.8349  182.7439 H   0  0  0  0  0  0  0  0  0  0  0  0
  156.2904  139.1709  185.7700 C   0  0  0  0  0  0  0  0  0  0  0  0
  155.5113  138.0333  186.1719 N   0  0  0  0  0  0  0  0  0  0  0  0
  154.0929  138.1534  186.4527 C   0  0  0  0  0  0  0  0  0  0  0  0
  153.6202  139.2894  186.2992 O   0  0  0  0  0  0  0  0  0  0  0  0
  155.9769  137.1138  186.2632 H   0  0  0  0  0  0  0  0  0  0  0  0
  153.3772  137.0040  186.8699 C   0  0  0  0  0  0  0  0  0  0  0  0
  151.8540  137.2117  186.9932 C   0  0  0  0  0  0  0  0  0  0  0  0
  151.4149  135.7994  187.4010 C   0  0  0  0  0  0  0  0  0  0  0  0
  152.7161  135.1039  187.8454 C   0  0  0  0  0  0  0  0  0  0  0  0
  153.5939  136.2908  188.0862 N   0  0  0  0  0  0  0  0  0  0  0  0
  154.3199  136.5501  189.2334 C   0  0  0  0  0  0  0  0  0  0  0  0
  154.8710  137.7295  189.2997 O   0  0  0  0  0  0  0  0  0  0  0  0
  154.5865  135.7177  190.3943 C   0  0  0  0  0  0  0  0  0  0  0  0
  155.9483  135.1484  190.3001 N   0  0  0  0  0  0  0  0  0  0  0  0
  156.0852  134.8870  189.3097 H   0  0  0  0  0  0  0  0  0  0  0  0
  155.9534  134.2748  190.8737 H   0  0  0  0  0  0  0  0  0  0  0  0
  154.3641  136.1938  191.7615 C   0  0  0  0  0  0  0  0  0  0  0  0
  153.0285  136.0950  192.3443 C   0  0  0  0  0  0  0  0  0  0  0  0
  151.8558  136.5488  191.7857 C   0  0  0  0  0  0  0  0  0  0  0  0
  150.6030  136.4348  192.3395 C   0  0  0  0  0  0  0  0  0  0  0  0
  150.4866  135.8127  193.5664 C   0  0  0  0  0  0  0  0  0  0  0  0
  149.2315  135.6866  194.1410 O   0  0  0  0  0  0  0  0  0  0  0  0
  151.6211  135.3380  194.1777 C   0  0  0  0  0  0  0  0  0  0  0  0
  152.8717  135.4680  193.5935 C   0  0  0  0  0  0  0  0  0  0  0  0
  148.6441  134.8548  193.9530 H   0  0  0  0  0  0  0  0  0  0  0  0
 17 18  1  0  0  0
 18 19  1  0  0  0
 18 16  1  0  0  0
 16 10  1  0  0  0
 10  6  1  0  0  0
  6  7  1  0  0  0
  7  8  2  0  0  0
  7  5  1  0  0  0
  5 20  1  0  0  0
 20 21  1  0  0  0
 21 22  2  0  0  0
 22 23  1  0  0  0
 23 24  1  0  0  0
 24 25  2  0  0  0
 25 26  1  0  0  0
 26 27  2  0  0  0
 27 28  1  0  0  0
 28 29  2  0  0  0
  5  1  1  0  0  0
  1  2  1  0  0  0
  2  3  2  0  0  0
  2 31  1  0  0  0
 31 32  1  0  0  0
 32 33  1  0  0  0
 33 34  2  0  0  0
 33 36  1  0  0  0
 36 37  1  0  0  0
 37 38  1  0  0  0
 38 39  1  0  0  0
 39 40  1  0  0  0
 40 41  1  0  0  0
 41 42  2  0  0  0
 41 43  1  0  0  0
 43 44  1  0  0  0
 43 47  1  0  0  0
 47 48  1  0  0  0
 48 49  2  0  0  0
 49 50  1  0  0  0
 50 51  2  0  0  0
 51 52  1  0  0  0
 51 53  1  0  0  0
 53 54  2  0  0  0
 10 11  1  0  0  0
 11 12  1  0  0  0
 11 13  2  0  0  0
 29 21  1  0  0  0
 40 36  1  0  0  0
 54 48  1  0  0  0
 29 24  1  0  0  0
  6  9  1  0  0  0
 23 30  1  0  0  0
  1  4  1  0  0  0
 32 35  1  0  0  0
 44 45  1  0  0  0
 44 46  1  0  0  0
 52 55  1  0  0  0
 12 14  1  0  0  0
 12 15  1  0  0  0
M  END
> <minimizedAffinity>
-9.00603

> <CNNscore>
0.4230514765

> <CNNaffinity>
6.6644105911

> <CNN_VS>
2.8193886280

> <CNNaffinity_variance>
0.2774385810

$$$$
[H]Oc1c([H])c([H])c(C([H])([H])[C@@]([H])(C(=O)N2C([H])([H])C([H])([H])C([H])([H])[C@@]2([H])C(=O)N([H])C([H])([H])C(=O)N([H])[C@]([H])(C(=O)N([H])[C@]([H])(C(=O)N([H])[H])C([H])([H])C([H])(C([H])([H])[H])C([H])([H])[H])C([H])([H])c2c([H])n([H])c3c([H])c([H])c([H])c([H])c23)N([H])[H])c([H])c1[H]


 55 58  0  0  0  0  0  0  0  0999 V2000
  154.8009  139.8970  183.3635 N   0  0  0  0  0  0  0  0  0  0  0  0
  154.2029  141.0833  182.9124 C   0  0  0  0  0  0  0  0  0  0  0  0
  154.5072  142.1438  183.5697 O   0  0  0  0  0  0  0  0  0  0  0  0
  154.6603  138.9750  182.9191 H   0  0  0  0  0  0  0  0  0  0  0  0
  155.7115  139.8827  184.5468 C   0  0  0  0  0  0  0  0  0  0  0  0
  157.7210  141.3861  184.1729 N   0  0  0  0  0  0  0  0  0  0  0  0
  157.0659  140.1502  184.0662 C   0  0  0  0  0  0  0  0  0  0  0  0
  157.6948  139.2095  183.5071 O   0  0  0  0  0  0  0  0  0  0  0  0
  157.2948  142.2085  184.6191 H   0  0  0  0  0  0  0  0  0  0  0  0
  159.1044  141.5924  183.6376 C   0  0  0  0  0  0  0  0  0  0  0  0
  159.9304  141.9311  184.7799 C   0  0  0  0  0  0  0  0  0  0  0  0
  161.2587  142.3788  184.6476 N   0  0  0  0  0  0  0  0  0  0  0  0
  159.4888  141.8323  185.9744 O   0  0  0  0  0  0  0  0  0  0  0  0
  161.8647  142.2489  183.8013 H   0  0  0  0  0  0  0  0  0  0  0  0
  161.7451  142.8978  185.4298 H   0  0  0  0  0  0  0  0  0  0  0  0
  158.9292  142.6404  182.5998 C   0  0  0  0  0  0  0  0  0  0  0  0
  159.1089  143.5451  180.2528 C   0  0  0  0  0  0  0  0  0  0  0  0
  159.0970  142.3331  181.1723 C   0  0  0  0  0  0  0  0  0  0  0  0
  158.3972  141.1535  180.6091 C   0  0  0  0  0  0  0  0  0  0  0  0
  155.5356  138.5394  185.1645 C   0  0  0  0  0  0  0  0  0  0  0  0
  154.6895  138.4082  186.3407 C   0  0  0  0  0  0  0  0  0  0  0  0
  153.3051  138.4940  186.4220 C   0  0  0  0  0  0  0  0  0  0  0  0
  152.9672  138.3576  187.6995 N   0  0  0  0  0  0  0  0  0  0  0  0
  154.0387  138.1839  188.4844 C   0  0  0  0  0  0  0  0  0  0  0  0
  154.1667  137.9917  189.8395 C   0  0  0  0  0  0  0  0  0  0  0  0
  155.4075  137.8158  190.4280 C   0  0  0  0  0  0  0  0  0  0  0  0
  156.5009  137.8415  189.5955 C   0  0  0  0  0  0  0  0  0  0  0  0
  156.3689  138.0336  188.2452 C   0  0  0  0  0  0  0  0  0  0  0  0
  155.1297  138.2125  187.6465 C   0  0  0  0  0  0  0  0  0  0  0  0
  151.9854  138.3751  188.0974 H   0  0  0  0  0  0  0  0  0  0  0  0
  153.2742  141.2135  181.7734 C   0  0  0  0  0  0  0  0  0  0  0  0
  152.2387  140.2185  181.7543 N   0  0  0  0  0  0  0  0  0  0  0  0
  151.9856  139.4178  180.5712 C   0  0  0  0  0  0  0  0  0  0  0  0
  152.7353  139.6468  179.6103 O   0  0  0  0  0  0  0  0  0  0  0  0
  151.6642  140.0766  182.6031 H   0  0  0  0  0  0  0  0  0  0  0  0
  150.9350  138.4677  180.5985 C   0  0  0  0  0  0  0  0  0  0  0  0
  149.5843  139.0251  181.0922 C   0  0  0  0  0  0  0  0  0  0  0  0
  148.7016  137.7787  180.9468 C   0  0  0  0  0  0  0  0  0  0  0  0
  149.6996  136.6146  180.7951 C   0  0  0  0  0  0  0  0  0  0  0  0
  150.9432  137.2462  181.3353 N   0  0  0  0  0  0  0  0  0  0  0  0
  151.7621  136.7256  182.3194 C   0  0  0  0  0  0  0  0  0  0  0  0
  152.6895  137.5257  182.7654 O   0  0  0  0  0  0  0  0  0  0  0  0
  151.7736  135.4151  182.9473 C   0  0  0  0  0  0  0  0  0  0  0  0
  153.0486  135.2173  183.6701 N   0  0  0  0  0  0  0  0  0  0  0  0
  153.7874  135.6197  183.0699 H   0  0  0  0  0  0  0  0  0  0  0  0
  153.2046  134.1860  183.7357 H   0  0  0  0  0  0  0  0  0  0  0  0
  150.6716  134.9460  183.7905 C   0  0  0  0  0  0  0  0  0  0  0  0
  149.9043  135.9153  184.5685 C   0  0  0  0  0  0  0  0  0  0  0  0
  148.6637  136.4199  184.2533 C   0  0  0  0  0  0  0  0  0  0  0  0
  147.9463  137.3206  185.0039 C   0  0  0  0  0  0  0  0  0  0  0  0
  148.5009  137.7739  186.1840 C   0  0  0  0  0  0  0  0  0  0  0  0
  147.7925  138.6815  186.9559 O   0  0  0  0  0  0  0  0  0  0  0  0
  149.7386  137.3087  186.5549 C   0  0  0  0  0  0  0  0  0  0  0  0
  150.4382  136.3996  185.7762 C   0  0  0  0  0  0  0  0  0  0  0  0
  147.1381  138.3559  187.6894 H   0  0  0  0  0  0  0  0  0  0  0  0
 17 18  1  0  0  0
 18 19  1  0  0  0
 18 16  1  0  0  0
 16 10  1  0  0  0
 10  6  1  0  0  0
  6  7  1  0  0  0
  7  8  2  0  0  0
  7  5  1  0  0  0
  5 20  1  0  0  0
 20 21  1  0  0  0
 21 22  2  0  0  0
 22 23  1  0  0  0
 23 24  1  0  0  0
 24 25  2  0  0  0
 25 26  1  0  0  0
 26 27  2  0  0  0
 27 28  1  0  0  0
 28 29  2  0  0  0
  5  1  1  0  0  0
  1  2  1  0  0  0
  2  3  2  0  0  0
  2 31  1  0  0  0
 31 32  1  0  0  0
 32 33  1  0  0  0
 33 34  2  0  0  0
 33 36  1  0  0  0
 36 37  1  0  0  0
 37 38  1  0  0  0
 38 39  1  0  0  0
 39 40  1  0  0  0
 40 41  1  0  0  0
 41 42  2  0  0  0
 41 43  1  0  0  0
 43 44  1  0  0  0
 43 47  1  0  0  0
 47 48  1  0  0  0
 48 49  2  0  0  0
 49 50  1  0  0  0
 50 51  2  0  0  0
 51 52  1  0  0  0
 51 53  1  0  0  0
 53 54  2  0  0  0
 10 11  1  0  0  0
 11 12  1  0  0  0
 11 13  2  0  0  0
 29 21  1  0  0  0
 40 36  1  0  0  0
 54 48  1  0  0  0
 29 24  1  0  0  0
  6  9  1  0  0  0
 23 30  1  0  0  0
  1  4  1  0  0  0
 32 35  1  0  0  0
 44 45  1  0  0  0
 44 46  1  0  0  0
 52 55  1  0  0  0
 12 14  1  0  0  0
 12 15  1  0  0  0
M  END
> <minimizedAffinity>
-8.36384

> <CNNscore>
0.3624497056

> <CNNaffinity>
6.8961153030

> <CNN_VS>
2.4994950294

> <CNNaffinity_variance>
0.6238211989

$$$$
[H]Oc1c([H])c([H])c(C([H])([H])[C@@]([H])(C(=O)N2C([H])([H])C([H])([H])C([H])([H])[C@@]2([H])C(=O)N([H])C([H])([H])C(=O)N([H])[C@]([H])(C(=O)N([H])[C@]([H])(C(=O)N([H])[H])C([H])([H])C([H])(C([H])([H])[H])C([H])([H])[H])C([H])([H])c2c([H])n([H])c3c([H])c([H])c([H])c([H])c23)N([H])[H])c([H])c1[H]


 55 58  0  0  0  0  0  0  0  0999 V2000
  154.9686  139.9165  183.4627 N   0  0  0  0  0  0  0  0  0  0  0  0
  154.3617  141.0785  182.9628 C   0  0  0  0  0  0  0  0  0  0  0  0
  154.8127  142.1863  183.4307 O   0  0  0  0  0  0  0  0  0  0  0  0
  154.7186  138.9602  183.1620 H   0  0  0  0  0  0  0  0  0  0  0  0
  156.0513  139.9809  184.4889 C   0  0  0  0  0  0  0  0  0  0  0  0
  157.8844  141.4630  183.5502 N   0  0  0  0  0  0  0  0  0  0  0  0
  157.3140  140.2034  183.7866 C   0  0  0  0  0  0  0  0  0  0  0  0
  157.9379  139.1961  183.3519 O   0  0  0  0  0  0  0  0  0  0  0  0
  157.4562  142.3405  183.8723 H   0  0  0  0  0  0  0  0  0  0  0  0
  159.1736  141.6156  182.8035 C   0  0  0  0  0  0  0  0  0  0  0  0
  160.1991  141.8126  183.8092 C   0  0  0  0  0  0  0  0  0  0  0  0
  161.4752  141.2251  183.7145 N   0  0  0  0  0  0  0  0  0  0  0  0
  159.9887  142.5318  184.8437 O   0  0  0  0  0  0  0  0  0  0  0  0
  161.7247  140.4021  183.1140 H   0  0  0  0  0  0  0  0  0  0  0  0
  162.2951  141.5978  184.2683 H   0  0  0  0  0  0  0  0  0  0  0  0
  158.9138  142.7471  181.8771 C   0  0  0  0  0  0  0  0  0  0  0  0
  159.6240  143.8296  179.7131 C   0  0  0  0  0  0  0  0  0  0  0  0
  159.0871  142.5971  180.4253 C   0  0  0  0  0  0  0  0  0  0  0  0
  158.0594  141.8542  179.6569 C   0  0  0  0  0  0  0  0  0  0  0  0
  155.9786  138.6868  185.2216 C   0  0  0  0  0  0  0  0  0  0  0  0
  154.9695  138.5164  186.2556 C   0  0  0  0  0  0  0  0  0  0  0  0
  153.5892  138.6266  186.1412 C   0  0  0  0  0  0  0  0  0  0  0  0
  153.0683  138.4357  187.3483 N   0  0  0  0  0  0  0  0  0  0  0  0
  154.0125  138.2023  188.2693 C   0  0  0  0  0  0  0  0  0  0  0  0
  153.9405  137.9424  189.6172 C   0  0  0  0  0  0  0  0  0  0  0  0
  155.0806  137.7128  190.3684 C   0  0  0  0  0  0  0  0  0  0  0  0
  156.2832  137.7562  189.7042 C   0  0  0  0  0  0  0  0  0  0  0  0
  156.3505  138.0159  188.3605 C   0  0  0  0  0  0  0  0  0  0  0  0
  155.2135  138.2490  187.5997 C   0  0  0  0  0  0  0  0  0  0  0  0
  152.0395  138.4542  187.6012 H   0  0  0  0  0  0  0  0  0  0  0  0
  153.2733  141.1354  181.9684 C   0  0  0  0  0  0  0  0  0  0  0  0
  152.3679  140.0226  182.0371 N   0  0  0  0  0  0  0  0  0  0  0  0
  152.0815  139.2117  180.8686 C   0  0  0  0  0  0  0  0  0  0  0  0
  152.6867  139.5416  179.8378 O   0  0  0  0  0  0  0  0  0  0  0  0
  151.9127  139.8017  182.9397 H   0  0  0  0  0  0  0  0  0  0  0  0
  151.1611  138.1410  180.9863 C   0  0  0  0  0  0  0  0  0  0  0  0
  149.7963  138.5368  181.5857 C   0  0  0  0  0  0  0  0  0  0  0  0
  149.0645  137.1901  181.5190 C   0  0  0  0  0  0  0  0  0  0  0  0
  150.1823  136.1542  181.2921 C   0  0  0  0  0  0  0  0  0  0  0  0
  151.3784  136.9408  181.7259 N   0  0  0  0  0  0  0  0  0  0  0  0
  152.3315  136.5387  182.6424 C   0  0  0  0  0  0  0  0  0  0  0  0
  153.1865  137.4524  183.0074 O   0  0  0  0  0  0  0  0  0  0  0  0
  152.5541  135.2488  183.2737 C   0  0  0  0  0  0  0  0  0  0  0  0
  152.3137  134.1649  182.2966 N   0  0  0  0  0  0  0  0  0  0  0  0
  151.4848  134.4478  181.7482 H   0  0  0  0  0  0  0  0  0  0  0  0
  152.0682  133.3097  182.8449 H   0  0  0  0  0  0  0  0  0  0  0  0
  153.7760  134.9497  184.0241 C   0  0  0  0  0  0  0  0  0  0  0  0
  153.7135  134.8459  185.4797 C   0  0  0  0  0  0  0  0  0  0  0  0
  152.5764  134.8683  186.2540 C   0  0  0  0  0  0  0  0  0  0  0  0
  152.5320  134.7538  187.6230 C   0  0  0  0  0  0  0  0  0  0  0  0
  153.7234  134.6020  188.3036 C   0  0  0  0  0  0  0  0  0  0  0  0
  153.6998  134.4836  189.6844 O   0  0  0  0  0  0  0  0  0  0  0  0
  154.8951  134.5730  187.5878 C   0  0  0  0  0  0  0  0  0  0  0  0
  154.9076  134.6909  186.2064 C   0  0  0  0  0  0  0  0  0  0  0  0
  153.6221  133.5544  190.1350 H   0  0  0  0  0  0  0  0  0  0  0  0
 17 18  1  0  0  0
 18 19  1  0  0  0
 18 16  1  0  0  0
 16 10  1  0  0  0
 10  6  1  0  0  0
  6  7  1  0  0  0
  7  8  2  0  0  0
  7  5  1  0  0  0
  5 20  1  0  0  0
 20 21  1  0  0  0
 21 22  2  0  0  0
 22 23  1  0  0  0
 23 24  1  0  0  0
 24 25  2  0  0  0
 25 26  1  0  0  0
 26 27  2  0  0  0
 27 28  1  0  0  0
 28 29  2  0  0  0
  5  1  1  0  0  0
  1  2  1  0  0  0
  2  3  2  0  0  0
  2 31  1  0  0  0
 31 32  1  0  0  0
 32 33  1  0  0  0
 33 34  2  0  0  0
 33 36  1  0  0  0
 36 37  1  0  0  0
 37 38  1  0  0  0
 38 39  1  0  0  0
 39 40  1  0  0  0
 40 41  1  0  0  0
 41 42  2  0  0  0
 41 43  1  0  0  0
 43 44  1  0  0  0
 43 47  1  0  0  0
 47 48  1  0  0  0
 48 49  2  0  0  0
 49 50  1  0  0  0
 50 51  2  0  0  0
 51 52  1  0  0  0
 51 53  1  0  0  0
 53 54  2  0  0  0
 10 11  1  0  0  0
 11 12  1  0  0  0
 11 13  2  0  0  0
 29 21  1  0  0  0
 40 36  1  0  0  0
 54 48  1  0  0  0
 29 24  1  0  0  0
  6  9  1  0  0  0
 23 30  1  0  0  0
  1  4  1  0  0  0
 32 35  1  0  0  0
 44 45  1  0  0  0
 44 46  1  0  0  0
 52 55  1  0  0  0
 12 14  1  0  0  0
 12 15  1  0  0  0
M  END
> <minimizedAffinity>
-8.01963

> <CNNscore>
0.3426402509

> <CNNaffinity>
6.8205556870

> <CNN_VS>
2.3369967937

> <CNNaffinity_variance>
0.7301372290

$$$$
[H]Oc1c([H])c([H])c(C([H])([H])[C@@]([H])(C(=O)N2C([H])([H])C([H])([H])C([H])([H])[C@@]2([H])C(=O)N([H])C([H])([H])C(=O)N([H])[C@]([H])(C(=O)N([H])[C@]([H])(C(=O)N([H])[H])C([H])([H])C([H])(C([H])([H])[H])C([H])([H])[H])C([H])([H])c2c([H])n([H])c3c([H])c([H])c([H])c([H])c23)N([H])[H])c([H])c1[H]


 55 58  0  0  0  0  0  0  0  0999 V2000
  154.7123  139.2306  183.5220 N   0  0  0  0  0  0  0  0  0  0  0  0
  153.8292  140.0934  182.8554 C   0  0  0  0  0  0  0  0  0  0  0  0
  153.8937  141.3289  183.1997 O   0  0  0  0  0  0  0  0  0  0  0  0
  154.7812  138.2172  183.3330 H   0  0  0  0  0  0  0  0  0  0  0  0
  155.6437  139.7296  184.5769 C   0  0  0  0  0  0  0  0  0  0  0  0
  157.5440  141.3666  184.1935 N   0  0  0  0  0  0  0  0  0  0  0  0
  156.8698  140.1689  183.9129 C   0  0  0  0  0  0  0  0  0  0  0  0
  157.3588  139.4271  183.0166 O   0  0  0  0  0  0  0  0  0  0  0  0
  157.2285  142.0313  184.9116 H   0  0  0  0  0  0  0  0  0  0  0  0
  158.7864  141.7618  183.4563 C   0  0  0  0  0  0  0  0  0  0  0  0
  159.8811  141.5821  184.3897 C   0  0  0  0  0  0  0  0  0  0  0  0
  161.1911  141.2798  183.9711 N   0  0  0  0  0  0  0  0  0  0  0  0
  159.7056  141.6848  185.6507 O   0  0  0  0  0  0  0  0  0  0  0  0
  161.4567  140.8842  183.0367 H   0  0  0  0  0  0  0  0  0  0  0  0
  162.0224  141.4430  184.6035 H   0  0  0  0  0  0  0  0  0  0  0  0
  158.5052  143.1496  183.0083 C   0  0  0  0  0  0  0  0  0  0  0  0
  156.2930  143.9394  182.0909 C   0  0  0  0  0  0  0  0  0  0  0  0
  157.6930  143.4131  181.8120 C   0  0  0  0  0  0  0  0  0  0  0  0
  157.7669  142.4634  180.6758 C   0  0  0  0  0  0  0  0  0  0  0  0
  155.8305  138.5862  185.5121 C   0  0  0  0  0  0  0  0  0  0  0  0
  154.9482  138.4631  186.6623 C   0  0  0  0  0  0  0  0  0  0  0  0
  153.5634  138.5686  186.7030 C   0  0  0  0  0  0  0  0  0  0  0  0
  153.1860  138.4326  187.9695 N   0  0  0  0  0  0  0  0  0  0  0  0
  154.2312  138.2407  188.7850 C   0  0  0  0  0  0  0  0  0  0  0  0
  154.3164  138.0421  190.1425 C   0  0  0  0  0  0  0  0  0  0  0  0
  155.5366  137.8461  190.7667 C   0  0  0  0  0  0  0  0  0  0  0  0
  156.6543  137.8590  189.9669 C   0  0  0  0  0  0  0  0  0  0  0  0
  156.5650  138.0576  188.6140 C   0  0  0  0  0  0  0  0  0  0  0  0
  155.3467  138.2565  187.9798 C   0  0  0  0  0  0  0  0  0  0  0  0
  152.1932  138.4630  188.3384 H   0  0  0  0  0  0  0  0  0  0  0  0
  152.8539  139.7108  181.8166 C   0  0  0  0  0  0  0  0  0  0  0  0
  151.5677  139.3415  182.3382 N   0  0  0  0  0  0  0  0  0  0  0  0
  150.7477  138.3412  181.6811 C   0  0  0  0  0  0  0  0  0  0  0  0
  151.2500  137.8312  180.6684 O   0  0  0  0  0  0  0  0  0  0  0  0
  151.2242  139.8031  183.1982 H   0  0  0  0  0  0  0  0  0  0  0  0
  149.4759  138.0329  182.2242 C   0  0  0  0  0  0  0  0  0  0  0  0
  148.6027  139.2641  182.5408 C   0  0  0  0  0  0  0  0  0  0  0  0
  147.3281  138.5759  183.0461 C   0  0  0  0  0  0  0  0  0  0  0  0
  147.7614  137.1260  183.3362 C   0  0  0  0  0  0  0  0  0  0  0  0
  149.2451  137.2944  183.4226 N   0  0  0  0  0  0  0  0  0  0  0  0
  150.0568  136.8649  184.4555 C   0  0  0  0  0  0  0  0  0  0  0  0
  151.2929  137.2764  184.4123 O   0  0  0  0  0  0  0  0  0  0  0  0
  149.7675  136.0123  185.5961 C   0  0  0  0  0  0  0  0  0  0  0  0
  149.0562  134.7966  185.1449 N   0  0  0  0  0  0  0  0  0  0  0  0
  148.3870  135.1047  184.4202 H   0  0  0  0  0  0  0  0  0  0  0  0
  148.5126  134.4405  185.9635 H   0  0  0  0  0  0  0  0  0  0  0  0
  150.7989  135.6281  186.5626 C   0  0  0  0  0  0  0  0  0  0  0  0
  150.4816  135.6377  187.9883 C   0  0  0  0  0  0  0  0  0  0  0  0
  149.2244  135.6258  188.5474 C   0  0  0  0  0  0  0  0  0  0  0  0
  148.9412  135.6193  189.8923 C   0  0  0  0  0  0  0  0  0  0  0  0
  149.9975  135.6253  190.7811 C   0  0  0  0  0  0  0  0  0  0  0  0
  149.7327  135.6176  192.1417 O   0  0  0  0  0  0  0  0  0  0  0  0
  151.2784  135.6383  190.2861 C   0  0  0  0  0  0  0  0  0  0  0  0
  151.5323  135.6445  188.9231 C   0  0  0  0  0  0  0  0  0  0  0  0
  149.6395  134.7248  192.6580 H   0  0  0  0  0  0  0  0  0  0  0  0
 17 18  1  0  0  0
 18 19  1  0  0  0
 18 16  1  0  0  0
 16 10  1  0  0  0
 10  6  1  0  0  0
  6  7  1  0  0  0
  7  8  2  0  0  0
  7  5  1  0  0  0
  5 20  1  0  0  0
 20 21  1  0  0  0
 21 22  2  0  0  0
 22 23  1  0  0  0
 23 24  1  0  0  0
 24 25  2  0  0  0
 25 26  1  0  0  0
 26 27  2  0  0  0
 27 28  1  0  0  0
 28 29  2  0  0  0
  5  1  1  0  0  0
  1  2  1  0  0  0
  2  3  2  0  0  0
  2 31  1  0  0  0
 31 32  1  0  0  0
 32 33  1  0  0  0
 33 34  2  0  0  0
 33 36  1  0  0  0
 36 37  1  0  0  0
 37 38  1  0  0  0
 38 39  1  0  0  0
 39 40  1  0  0  0
 40 41  1  0  0  0
 41 42  2  0  0  0
 41 43  1  0  0  0
 43 44  1  0  0  0
 43 47  1  0  0  0
 47 48  1  0  0  0
 48 49  2  0  0  0
 49 50  1  0  0  0
 50 51  2  0  0  0
 51 52  1  0  0  0
 51 53  1  0  0  0
 53 54  2  0  0  0
 10 11  1  0  0  0
 11 12  1  0  0  0
 11 13  2  0  0  0
 29 21  1  0  0  0
 40 36  1  0  0  0
 54 48  1  0  0  0
 29 24  1  0  0  0
  6  9  1  0  0  0
 23 30  1  0  0  0
  1  4  1  0  0  0
 32 35  1  0  0  0
 44 45  1  0  0  0
 44 46  1  0  0  0
 52 55  1  0  0  0
 12 14  1  0  0  0
 12 15  1  0  0  0
M  END
> <minimizedAffinity>
-7.72841

> <CNNscore>
0.3097048402

> <CNNaffinity>
6.6188650131

> <CNN_VS>
2.0498945713

> <CNNaffinity_variance>
0.6019489169

$$$$
[H]Oc1c([H])c([H])c(C([H])([H])[C@@]([H])(C(=O)N2C([H])([H])C([H])([H])C([H])([H])[C@@]2([H])C(=O)N([H])C([H])([H])C(=O)N([H])[C@]([H])(C(=O)N([H])[C@]([H])(C(=O)N([H])[H])C([H])([H])C([H])(C([H])([H])[H])C([H])([H])[H])C([H])([H])c2c([H])n([H])c3c([H])c([H])c([H])c([H])c23)N([H])[H])c([H])c1[H]


 55 58  0  0  0  0  0  0  0  0999 V2000
  152.6578  136.6557  186.5992 N   0  0  0  0  0  0  0  0  0  0  0  0
  153.5521  137.7366  186.5831 C   0  0  0  0  0  0  0  0  0  0  0  0
  153.2908  138.6863  187.4073 O   0  0  0  0  0  0  0  0  0  0  0  0
  152.7558  135.8171  186.0038 H   0  0  0  0  0  0  0  0  0  0  0  0
  151.4715  136.6374  187.5059 C   0  0  0  0  0  0  0  0  0  0  0  0
  152.3315  136.8264  189.8855 N   0  0  0  0  0  0  0  0  0  0  0  0
  151.9002  136.0722  188.7841 C   0  0  0  0  0  0  0  0  0  0  0  0
  151.8920  134.8166  188.9115 O   0  0  0  0  0  0  0  0  0  0  0  0
  152.3652  137.8539  189.8813 H   0  0  0  0  0  0  0  0  0  0  0  0
  152.7768  136.1759  191.1590 C   0  0  0  0  0  0  0  0  0  0  0  0
  151.9259  136.7130  192.2028 C   0  0  0  0  0  0  0  0  0  0  0  0
  150.5208  136.7042  192.1135 N   0  0  0  0  0  0  0  0  0  0  0  0
  152.4168  137.2309  193.2622 O   0  0  0  0  0  0  0  0  0  0  0  0
  149.9665  136.5933  191.2299 H   0  0  0  0  0  0  0  0  0  0  0  0
  149.9140  136.8127  192.9725 H   0  0  0  0  0  0  0  0  0  0  0  0
  154.2236  136.5028  191.2358 C   0  0  0  0  0  0  0  0  0  0  0  0
  155.9259  137.2874  189.5490 C   0  0  0  0  0  0  0  0  0  0  0  0
  154.7872  137.6398  190.4943 C   0  0  0  0  0  0  0  0  0  0  0  0
  154.9628  138.9335  191.1969 C   0  0  0  0  0  0  0  0  0  0  0  0
  150.4428  135.8299  186.7942 C   0  0  0  0  0  0  0  0  0  0  0  0
  150.0290  136.2319  185.4586 C   0  0  0  0  0  0  0  0  0  0  0  0
  150.5015  135.7751  184.2345 C   0  0  0  0  0  0  0  0  0  0  0  0
  149.8710  136.4522  183.2811 N   0  0  0  0  0  0  0  0  0  0  0  0
  149.0016  137.3366  183.7873 C   0  0  0  0  0  0  0  0  0  0  0  0
  148.1388  138.2252  183.1909 C   0  0  0  0  0  0  0  0  0  0  0  0
  147.3099  139.0397  183.9434 C   0  0  0  0  0  0  0  0  0  0  0  0
  147.3902  138.9173  185.3101 C   0  0  0  0  0  0  0  0  0  0  0  0
  148.2519  138.0304  185.9006 C   0  0  0  0  0  0  0  0  0  0  0  0
  149.0877  137.2112  185.1547 C   0  0  0  0  0  0  0  0  0  0  0  0
  150.0038  136.3411  182.2358 H   0  0  0  0  0  0  0  0  0  0  0  0
  154.7399  137.8730  185.7188 C   0  0  0  0  0  0  0  0  0  0  0  0
  154.9860  139.2187  185.2814 N   0  0  0  0  0  0  0  0  0  0  0  0
  154.3422  139.7550  184.0970 C   0  0  0  0  0  0  0  0  0  0  0  0
  153.5654  138.9777  183.5224 O   0  0  0  0  0  0  0  0  0  0  0  0
  155.6377  139.8111  185.8246 H   0  0  0  0  0  0  0  0  0  0  0  0
  154.6400  141.0809  183.6959 C   0  0  0  0  0  0  0  0  0  0  0  0
  153.7567  141.6135  182.5493 C   0  0  0  0  0  0  0  0  0  0  0  0
  154.3062  143.0397  182.4172 C   0  0  0  0  0  0  0  0  0  0  0  0
  155.6459  143.0092  183.1777 C   0  0  0  0  0  0  0  0  0  0  0  0
  155.9050  141.5367  183.2194 N   0  0  0  0  0  0  0  0  0  0  0  0
  157.0662  140.9004  182.8234 C   0  0  0  0  0  0  0  0  0  0  0  0
  157.0097  139.5990  182.7739 O   0  0  0  0  0  0  0  0  0  0  0  0
  158.3640  141.4404  182.4547 C   0  0  0  0  0  0  0  0  0  0  0  0
  158.5211  141.4065  180.9845 N   0  0  0  0  0  0  0  0  0  0  0  0
  158.1148  140.5097  180.6703 H   0  0  0  0  0  0  0  0  0  0  0  0
  159.5475  141.3883  180.7884 H   0  0  0  0  0  0  0  0  0  0  0  0
  158.8400  142.7326  182.9537 C   0  0  0  0  0  0  0  0  0  0  0  0
  159.5769  142.7848  184.2138 C   0  0  0  0  0  0  0  0  0  0  0  0
  159.2593  142.1204  185.3761 C   0  0  0  0  0  0  0  0  0  0  0  0
  159.9717  142.1670  186.5506 C   0  0  0  0  0  0  0  0  0  0  0  0
  161.1119  142.9440  186.5912 C   0  0  0  0  0  0  0  0  0  0  0  0
  161.8450  143.0031  187.7662 O   0  0  0  0  0  0  0  0  0  0  0  0
  161.4829  143.6338  185.4632 C   0  0  0  0  0  0  0  0  0  0  0  0
  160.7433  143.5667  184.2924 C   0  0  0  0  0  0  0  0  0  0  0  0
  162.6096  142.3287  187.9479 H   0  0  0  0  0  0  0  0  0  0  0  0
 17 18  1  0  0  0
 18 19  1  0  0  0
 18 16  1  0  0  0
 16 10  1  0  0  0
 10  6  1  0  0  0
  6  7  1  0  0  0
  7  8  2  0  0  0
  7  5  1  0  0  0
  5 20  1  0  0  0
 20 21  1  0  0  0
 21 22  2  0  0  0
 22 23  1  0  0  0
 23 24  1  0  0  0
 24 25  2  0  0  0
 25 26  1  0  0  0
 26 27  2  0  0  0
 27 28  1  0  0  0
 28 29  2  0  0  0
  5  1  1  0  0  0
  1  2  1  0  0  0
  2  3  2  0  0  0
  2 31  1  0  0  0
 31 32  1  0  0  0
 32 33  1  0  0  0
 33 34  2  0  0  0
 33 36  1  0  0  0
 36 37  1  0  0  0
 37 38  1  0  0  0
 38 39  1  0  0  0
 39 40  1  0  0  0
 40 41  1  0  0  0
 41 42  2  0  0  0
 41 43  1  0  0  0
 43 44  1  0  0  0
 43 47  1  0  0  0
 47 48  1  0  0  0
 48 49  2  0  0  0
 49 50  1  0  0  0
 50 51  2  0  0  0
 51 52  1  0  0  0
 51 53  1  0  0  0
 53 54  2  0  0  0
 10 11  1  0  0  0
 11 12  1  0  0  0
 11 13  2  0  0  0
 29 21  1  0  0  0
 40 36  1  0  0  0
 54 48  1  0  0  0
 29 24  1  0  0  0
  6  9  1  0  0  0
 23 30  1  0  0  0
  1  4  1  0  0  0
 32 35  1  0  0  0
 44 45  1  0  0  0
 44 46  1  0  0  0
 52 55  1  0  0  0
 12 14  1  0  0  0
 12 15  1  0  0  0
M  END
> <minimizedAffinity>
-8.84482

> <CNNscore>
0.3096086979

> <CNNaffinity>
6.8190855980

> <CNN_VS>
2.1112482548

> <CNNaffinity_variance>
0.3256999850

$$$$
[H]Oc1c([H])c([H])c(C([H])([H])[C@@]([H])(C(=O)N2C([H])([H])C([H])([H])C([H])([H])[C@@]2([H])C(=O)N([H])C([H])([H])C(=O)N([H])[C@]([H])(C(=O)N([H])[C@]([H])(C(=O)N([H])[H])C([H])([H])C([H])(C([H])([H])[H])C([H])([H])[H])C([H])([H])c2c([H])n([H])c3c([H])c([H])c([H])c([H])c23)N([H])[H])c([H])c1[H]


 55 58  0  0  0  0  0  0  0  0999 V2000
  152.6202  136.4652  186.1763 N   0  0  0  0  0  0  0  0  0  0  0  0
  153.4860  137.5683  186.2223 C   0  0  0  0  0  0  0  0  0  0  0  0
  153.1645  138.4926  187.0541 O   0  0  0  0  0  0  0  0  0  0  0  0
  152.7658  135.6428  185.5681 H   0  0  0  0  0  0  0  0  0  0  0  0
  151.3966  136.3971  187.0292 C   0  0  0  0  0  0  0  0  0  0  0  0
  150.9431  135.5181  189.3658 N   0  0  0  0  0  0  0  0  0  0  0  0
  151.7160  135.5772  188.1967 C   0  0  0  0  0  0  0  0  0  0  0  0
  152.7644  134.8755  188.1612 O   0  0  0  0  0  0  0  0  0  0  0  0
  150.0691  136.0460  189.4861 H   0  0  0  0  0  0  0  0  0  0  0  0
  151.3447  134.6694  190.5327 C   0  0  0  0  0  0  0  0  0  0  0  0
  150.2440  133.7536  190.7605 C   0  0  0  0  0  0  0  0  0  0  0  0
  148.9142  134.0692  190.4221 N   0  0  0  0  0  0  0  0  0  0  0  0
  150.4302  132.6065  191.2906 O   0  0  0  0  0  0  0  0  0  0  0  0
  148.5399  135.0348  190.2556 H   0  0  0  0  0  0  0  0  0  0  0  0
  148.1813  133.3155  190.3094 H   0  0  0  0  0  0  0  0  0  0  0  0
  151.6319  135.6559  191.6051 C   0  0  0  0  0  0  0  0  0  0  0  0
  150.1576  135.7786  193.6474 C   0  0  0  0  0  0  0  0  0  0  0  0
  151.4632  135.3088  193.0234 C   0  0  0  0  0  0  0  0  0  0  0  0
  152.6350  135.4072  193.9265 C   0  0  0  0  0  0  0  0  0  0  0  0
  150.3357  135.8275  186.1534 C   0  0  0  0  0  0  0  0  0  0  0  0
  150.0186  136.4972  184.9014 C   0  0  0  0  0  0  0  0  0  0  0  0
  150.6297  136.3461  183.6628 C   0  0  0  0  0  0  0  0  0  0  0  0
  150.0441  137.1887  182.8190 N   0  0  0  0  0  0  0  0  0  0  0  0
  149.0748  137.8978  183.4125 C   0  0  0  0  0  0  0  0  0  0  0  0
  148.2119  138.8564  182.9371 C   0  0  0  0  0  0  0  0  0  0  0  0
  147.2653  139.4445  183.7587 C   0  0  0  0  0  0  0  0  0  0  0  0
  147.2295  139.0250  185.0672 C   0  0  0  0  0  0  0  0  0  0  0  0
  148.0918  138.0693  185.5370 C   0  0  0  0  0  0  0  0  0  0  0  0
  149.0449  137.4755  184.7215 C   0  0  0  0  0  0  0  0  0  0  0  0
  150.2782  137.3191  181.7939 H   0  0  0  0  0  0  0  0  0  0  0  0
  154.7063  137.7536  185.4142 C   0  0  0  0  0  0  0  0  0  0  0  0
  154.9851  139.1255  185.0931 N   0  0  0  0  0  0  0  0  0  0  0  0
  154.4439  139.7438  183.8974 C   0  0  0  0  0  0  0  0  0  0  0  0
  153.7217  139.0102  183.2061 O   0  0  0  0  0  0  0  0  0  0  0  0
  155.5860  139.6772  185.7297 H   0  0  0  0  0  0  0  0  0  0  0  0
  154.7712  141.0932  183.6156 C   0  0  0  0  0  0  0  0  0  0  0  0
  153.9971  141.7022  182.4288 C   0  0  0  0  0  0  0  0  0  0  0  0
  154.5491  143.1336  182.4445 C   0  0  0  0  0  0  0  0  0  0  0  0
  155.8113  143.0508  183.3244 C   0  0  0  0  0  0  0  0  0  0  0  0
  156.0731  141.5785  183.2921 N   0  0  0  0  0  0  0  0  0  0  0  0
  157.2698  140.9689  182.9659 C   0  0  0  0  0  0  0  0  0  0  0  0
  157.2250  139.6738  182.8247 O   0  0  0  0  0  0  0  0  0  0  0  0
  158.5937  141.5310  182.7582 C   0  0  0  0  0  0  0  0  0  0  0  0
  158.8853  141.6035  181.3101 N   0  0  0  0  0  0  0  0  0  0  0  0
  158.5133  140.7329  180.8956 H   0  0  0  0  0  0  0  0  0  0  0  0
  159.9254  141.5970  181.2083 H   0  0  0  0  0  0  0  0  0  0  0  0
  159.0165  142.7823  183.3912 C   0  0  0  0  0  0  0  0  0  0  0  0
  159.9295  142.7343  184.5303 C   0  0  0  0  0  0  0  0  0  0  0  0
  161.3024  142.8125  184.4830 C   0  0  0  0  0  0  0  0  0  0  0  0
  162.1485  142.7815  185.5657 C   0  0  0  0  0  0  0  0  0  0  0  0
  161.5933  142.6614  186.8238 C   0  0  0  0  0  0  0  0  0  0  0  0
  162.4298  142.6296  187.9287 O   0  0  0  0  0  0  0  0  0  0  0  0
  160.2274  142.5776  186.9389 C   0  0  0  0  0  0  0  0  0  0  0  0
  159.3996  142.6118  185.8273 C   0  0  0  0  0  0  0  0  0  0  0  0
  162.7000  143.5038  188.4137 H   0  0  0  0  0  0  0  0  0  0  0  0
 17 18  1  0  0  0
 18 19  1  0  0  0
 18 16  1  0  0  0
 16 10  1  0  0  0
 10  6  1  0  0  0
  6  7  1  0  0  0
  7  8  2  0  0  0
  7  5  1  0  0  0
  5 20  1  0  0  0
 20 21  1  0  0  0
 21 22  2  0  0  0
 22 23  1  0  0  0
 23 24  1  0  0  0
 24 25  2  0  0  0
 25 26  1  0  0  0
 26 27  2  0  0  0
 27 28  1  0  0  0
 28 29  2  0  0  0
  5  1  1  0  0  0
  1  2  1  0  0  0
  2  3  2  0  0  0
  2 31  1  0  0  0
 31 32  1  0  0  0
 32 33  1  0  0  0
 33 34  2  0  0  0
 33 36  1  0  0  0
 36 37  1  0  0  0
 37 38  1  0  0  0
 38 39  1  0  0  0
 39 40  1  0  0  0
 40 41  1  0  0  0
 41 42  2  0  0  0
 41 43  1  0  0  0
 43 44  1  0  0  0
 43 47  1  0  0  0
 47 48  1  0  0  0
 48 49  2  0  0  0
 49 50  1  0  0  0
 50 51  2  0  0  0
 51 52  1  0  0  0
 51 53  1  0  0  0
 53 54  2  0  0  0
 10 11  1  0  0  0
 11 12  1  0  0  0
 11 13  2  0  0  0
 29 21  1  0  0  0
 40 36  1  0  0  0
 54 48  1  0  0  0
 29 24  1  0  0  0
  6  9  1  0  0  0
 23 30  1  0  0  0
  1  4  1  0  0  0
 32 35  1  0  0  0
 44 45  1  0  0  0
 44 46  1  0  0  0
 52 55  1  0  0  0
 12 14  1  0  0  0
 12 15  1  0  0  0
M  END
> <minimizedAffinity>
-7.97276

> <CNNscore>
0.2824693918

> <CNNaffinity>
6.6763963699

> <CNN_VS>
1.8858776093

> <CNNaffinity_variance>
0.0463456810

$$$$
[H]Oc1c([H])c([H])c(C([H])([H])[C@@]([H])(C(=O)N2C([H])([H])C([H])([H])C([H])([H])[C@@]2([H])C(=O)N([H])C([H])([H])C(=O)N([H])[C@]([H])(C(=O)N([H])[C@]([H])(C(=O)N([H])[H])C([H])([H])C([H])(C([H])([H])[H])C([H])([H])[H])C([H])([H])c2c([H])n([H])c3c([H])c([H])c([H])c([H])c23)N([H])[H])c([H])c1[H]


 55 58  0  0  0  0  0  0  0  0999 V2000
  153.8739  139.8301  184.6344 N   0  0  0  0  0  0  0  0  0  0  0  0
  153.9503  138.7799  185.5616 C   0  0  0  0  0  0  0  0  0  0  0  0
  154.6530  137.7681  185.1985 O   0  0  0  0  0  0  0  0  0  0  0  0
  153.3596  140.7105  184.8012 H   0  0  0  0  0  0  0  0  0  0  0  0
  154.5527  139.7503  183.3068 C   0  0  0  0  0  0  0  0  0  0  0  0
  156.9012  140.4813  182.6841 N   0  0  0  0  0  0  0  0  0  0  0  0
  155.6709  140.6918  183.3242 C   0  0  0  0  0  0  0  0  0  0  0  0
  155.5303  141.7699  183.9652 O   0  0  0  0  0  0  0  0  0  0  0  0
  157.1077  139.6392  182.1315 H   0  0  0  0  0  0  0  0  0  0  0  0
  158.0112  141.4838  182.7630 C   0  0  0  0  0  0  0  0  0  0  0  0
  158.5740  141.5652  181.4294 C   0  0  0  0  0  0  0  0  0  0  0  0
  158.0768  140.8097  180.3504 N   0  0  0  0  0  0  0  0  0  0  0  0
  159.5629  142.3306  181.1689 O   0  0  0  0  0  0  0  0  0  0  0  0
  157.4862  139.9465  180.4310 H   0  0  0  0  0  0  0  0  0  0  0  0
  158.2780  141.0820  179.3488 H   0  0  0  0  0  0  0  0  0  0  0  0
  158.8924  140.9519  183.8338 C   0  0  0  0  0  0  0  0  0  0  0  0
  161.0378  142.0769  184.5344 C   0  0  0  0  0  0  0  0  0  0  0  0
  159.5553  141.8501  184.7899 C   0  0  0  0  0  0  0  0  0  0  0  0
  159.1967  141.7545  186.2254 C   0  0  0  0  0  0  0  0  0  0  0  0
  153.4992  140.0703  182.3045 C   0  0  0  0  0  0  0  0  0  0  0  0
  152.4694  139.0820  182.0223 C   0  0  0  0  0  0  0  0  0  0  0  0
  152.2049  137.8950  182.6943 C   0  0  0  0  0  0  0  0  0  0  0  0
  151.2061  137.2883  182.0625 N   0  0  0  0  0  0  0  0  0  0  0  0
  150.7801  137.9940  181.0066 C   0  0  0  0  0  0  0  0  0  0  0  0
  149.7823  137.7670  180.0887 C   0  0  0  0  0  0  0  0  0  0  0  0
  149.5161  138.6724  179.0756 C   0  0  0  0  0  0  0  0  0  0  0  0
  150.2938  139.8049  179.0322 C   0  0  0  0  0  0  0  0  0  0  0  0
  151.2877  140.0270  179.9491 C   0  0  0  0  0  0  0  0  0  0  0  0
  151.5630  139.1247  180.9669 C   0  0  0  0  0  0  0  0  0  0  0  0
  150.7653  136.3610  182.3241 H   0  0  0  0  0  0  0  0  0  0  0  0
  153.3060  138.7391  186.8881 C   0  0  0  0  0  0  0  0  0  0  0  0
  154.1646  138.2578  187.9340 N   0  0  0  0  0  0  0  0  0  0  0  0
  153.6461  137.4493  189.0215 C   0  0  0  0  0  0  0  0  0  0  0  0
  152.4332  137.1991  188.9595 O   0  0  0  0  0  0  0  0  0  0  0  0
  155.1707  138.4977  187.9069 H   0  0  0  0  0  0  0  0  0  0  0  0
  154.5326  137.0219  190.0408 C   0  0  0  0  0  0  0  0  0  0  0  0
  155.9398  137.6486  189.9655 C   0  0  0  0  0  0  0  0  0  0  0  0
  156.5883  137.0205  191.2059 C   0  0  0  0  0  0  0  0  0  0  0  0
  155.6570  135.8507  191.5779 C   0  0  0  0  0  0  0  0  0  0  0  0
  154.9145  135.6706  190.2919 N   0  0  0  0  0  0  0  0  0  0  0  0
  154.7582  134.4854  189.5984 C   0  0  0  0  0  0  0  0  0  0  0  0
  154.2314  134.5901  188.4107 O   0  0  0  0  0  0  0  0  0  0  0  0
  155.0773  133.1184  189.9745 C   0  0  0  0  0  0  0  0  0  0  0  0
  154.3755  132.1755  189.0769 N   0  0  0  0  0  0  0  0  0  0  0  0
  153.4320  132.5685  188.9242 H   0  0  0  0  0  0  0  0  0  0  0  0
  154.2755  131.2755  189.5989 H   0  0  0  0  0  0  0  0  0  0  0  0
  156.4573  132.6629  190.1569 C   0  0  0  0  0  0  0  0  0  0  0  0
  157.5277  133.3032  189.3967 C   0  0  0  0  0  0  0  0  0  0  0  0
  157.3996  133.9539  188.1912 C   0  0  0  0  0  0  0  0  0  0  0  0
  158.4143  134.5657  187.4945 C   0  0  0  0  0  0  0  0  0  0  0  0
  159.6848  134.5373  188.0336 C   0  0  0  0  0  0  0  0  0  0  0  0
  160.7214  135.1499  187.3469 O   0  0  0  0  0  0  0  0  0  0  0  0
  159.8794  133.9018  189.2354 C   0  0  0  0  0  0  0  0  0  0  0  0
  158.8352  133.2934  189.9148 C   0  0  0  0  0  0  0  0  0  0  0  0
  160.9522  136.1454  187.5144 H   0  0  0  0  0  0  0  0  0  0  0  0
 17 18  1  0  0  0
 18 19  1  0  0  0
 18 16  1  0  0  0
 16 10  1  0  0  0
 10  6  1  0  0  0
  6  7  1  0  0  0
  7  8  2  0  0  0
  7  5  1  0  0  0
  5 20  1  0  0  0
 20 21  1  0  0  0
 21 22  2  0  0  0
 22 23  1  0  0  0
 23 24  1  0  0  0
 24 25  2  0  0  0
 25 26  1  0  0  0
 26 27  2  0  0  0
 27 28  1  0  0  0
 28 29  2  0  0  0
  5  1  1  0  0  0
  1  2  1  0  0  0
  2  3  2  0  0  0
  2 31  1  0  0  0
 31 32  1  0  0  0
 32 33  1  0  0  0
 33 34  2  0  0  0
 33 36  1  0  0  0
 36 37  1  0  0  0
 37 38  1  0  0  0
 38 39  1  0  0  0
 39 40  1  0  0  0
 40 41  1  0  0  0
 41 42  2  0  0  0
 41 43  1  0  0  0
 43 44  1  0  0  0
 43 47  1  0  0  0
 47 48  1  0  0  0
 48 49  2  0  0  0
 49 50  1  0  0  0
 50 51  2  0  0  0
 51 52  1  0  0  0
 51 53  1  0  0  0
 53 54  2  0  0  0
 10 11  1  0  0  0
 11 12  1  0  0  0
 11 13  2  0  0  0
 29 21  1  0  0  0
 40 36  1  0  0  0
 54 48  1  0  0  0
 29 24  1  0  0  0
  6  9  1  0  0  0
 23 30  1  0  0  0
  1  4  1  0  0  0
 32 35  1  0  0  0
 44 45  1  0  0  0
 44 46  1  0  0  0
 52 55  1  0  0  0
 12 14  1  0  0  0
 12 15  1  0  0  0
M  END
> <minimizedAffinity>
-8.73126

> <CNNscore>
0.2520959973

> <CNNaffinity>
6.6543517113

> <CNN_VS>
1.6775354147

> <CNNaffinity_variance>
0.2062052935

$$$$
[H]Oc1c([H])c([H])c(C([H])([H])[C@@]([H])(C(=O)N2C([H])([H])C([H])([H])C([H])([H])[C@@]2([H])C(=O)N([H])C([H])([H])C(=O)N([H])[C@]([H])(C(=O)N([H])[C@]([H])(C(=O)N([H])[H])C([H])([H])C([H])(C([H])([H])[H])C([H])([H])[H])C([H])([H])c2c([H])n([H])c3c([H])c([H])c([H])c([H])c23)N([H])[H])c([H])c1[H]


 55 58  0  0  0  0  0  0  0  0999 V2000
  154.4326  137.5043  183.9167 N   0  0  0  0  0  0  0  0  0  0  0  0
  153.1384  137.0468  183.6268 C   0  0  0  0  0  0  0  0  0  0  0  0
  152.1810  137.8250  183.9836 O   0  0  0  0  0  0  0  0  0  0  0  0
  155.2946  136.9905  183.6707 H   0  0  0  0  0  0  0  0  0  0  0  0
  154.6631  138.8034  184.6159 C   0  0  0  0  0  0  0  0  0  0  0  0
  156.7124  140.0788  183.8339 N   0  0  0  0  0  0  0  0  0  0  0  0
  155.3740  139.6839  183.6905 C   0  0  0  0  0  0  0  0  0  0  0  0
  154.7434  140.1314  182.6930 O   0  0  0  0  0  0  0  0  0  0  0  0
  157.3098  139.7605  184.6077 H   0  0  0  0  0  0  0  0  0  0  0  0
  157.3698  141.0022  182.8550 C   0  0  0  0  0  0  0  0  0  0  0  0
  158.1224  140.1569  181.9489 C   0  0  0  0  0  0  0  0  0  0  0  0
  158.3718  140.5153  180.6103 N   0  0  0  0  0  0  0  0  0  0  0  0
  158.5949  139.0314  182.3250 O   0  0  0  0  0  0  0  0  0  0  0  0
  157.8381  141.2322  180.0613 H   0  0  0  0  0  0  0  0  0  0  0  0
  159.1490  140.0622  180.0550 H   0  0  0  0  0  0  0  0  0  0  0  0
  158.1495  141.9303  183.7133 C   0  0  0  0  0  0  0  0  0  0  0  0
  159.0800  141.7324  186.0487 C   0  0  0  0  0  0  0  0  0  0  0  0
  159.2436  141.4416  184.5643 C   0  0  0  0  0  0  0  0  0  0  0  0
  160.6377  141.5631  184.0744 C   0  0  0  0  0  0  0  0  0  0  0  0
  155.4302  138.4600  185.8449 C   0  0  0  0  0  0  0  0  0  0  0  0
  154.7154  138.2999  187.1019 C   0  0  0  0  0  0  0  0  0  0  0  0
  153.3431  138.2871  187.3190 C   0  0  0  0  0  0  0  0  0  0  0  0
  153.1430  138.1615  188.6263 N   0  0  0  0  0  0  0  0  0  0  0  0
  154.2962  138.0876  189.3038 C   0  0  0  0  0  0  0  0  0  0  0  0
  154.5702  137.9424  190.6431 C   0  0  0  0  0  0  0  0  0  0  0  0
  155.8724  137.8731  191.1084 C   0  0  0  0  0  0  0  0  0  0  0  0
  156.8740  137.9554  190.1708 C   0  0  0  0  0  0  0  0  0  0  0  0
  156.5964  138.1004  188.8368 C   0  0  0  0  0  0  0  0  0  0  0  0
  155.2946  138.1725  188.3611 C   0  0  0  0  0  0  0  0  0  0  0  0
  152.2063  138.1187  189.1196 H   0  0  0  0  0  0  0  0  0  0  0  0
  152.7909  135.7760  182.9628 C   0  0  0  0  0  0  0  0  0  0  0  0
  152.1714  134.8177  183.8351 N   0  0  0  0  0  0  0  0  0  0  0  0
  152.8714  133.6179  184.2537 C   0  0  0  0  0  0  0  0  0  0  0  0
  154.0281  133.5052  183.8211 O   0  0  0  0  0  0  0  0  0  0  0  0
  151.2065  134.9913  184.1658 H   0  0  0  0  0  0  0  0  0  0  0  0
  152.2042  132.6934  185.0948 C   0  0  0  0  0  0  0  0  0  0  0  0
  150.6834  132.5978  184.8569 C   0  0  0  0  0  0  0  0  0  0  0  0
  150.3136  131.5065  185.8697 C   0  0  0  0  0  0  0  0  0  0  0  0
  151.5350  131.4178  186.8048 C   0  0  0  0  0  0  0  0  0  0  0  0
  152.1946  132.7299  186.5208 N   0  0  0  0  0  0  0  0  0  0  0  0
  152.5877  133.6660  187.4586 C   0  0  0  0  0  0  0  0  0  0  0  0
  152.9756  134.8157  186.9822 O   0  0  0  0  0  0  0  0  0  0  0  0
  152.6526  133.5855  188.9081 C   0  0  0  0  0  0  0  0  0  0  0  0
  153.6540  132.5738  189.3091 N   0  0  0  0  0  0  0  0  0  0  0  0
  153.5464  131.7833  188.6521 H   0  0  0  0  0  0  0  0  0  0  0  0
  153.3884  132.2446  190.2648 H   0  0  0  0  0  0  0  0  0  0  0  0
  152.8163  134.7747  189.7474 C   0  0  0  0  0  0  0  0  0  0  0  0
  151.8808  135.0098  190.8442 C   0  0  0  0  0  0  0  0  0  0  0  0
  151.5354  136.2299  191.3783 C   0  0  0  0  0  0  0  0  0  0  0  0
  150.6407  136.4370  192.4011 C   0  0  0  0  0  0  0  0  0  0  0  0
  150.0210  135.3364  192.9581 C   0  0  0  0  0  0  0  0  0  0  0  0
  149.1145  135.5244  193.9897 O   0  0  0  0  0  0  0  0  0  0  0  0
  150.3238  134.0890  192.4698 C   0  0  0  0  0  0  0  0  0  0  0  0
  151.2310  133.9121  191.4365 C   0  0  0  0  0  0  0  0  0  0  0  0
  148.1083  135.6677  193.7911 H   0  0  0  0  0  0  0  0  0  0  0  0
 17 18  1  0  0  0
 18 19  1  0  0  0
 18 16  1  0  0  0
 16 10  1  0  0  0
 10  6  1  0  0  0
  6  7  1  0  0  0
  7  8  2  0  0  0
  7  5  1  0  0  0
  5 20  1  0  0  0
 20 21  1  0  0  0
 21 22  2  0  0  0
 22 23  1  0  0  0
 23 24  1  0  0  0
 24 25  2  0  0  0
 25 26  1  0  0  0
 26 27  2  0  0  0
 27 28  1  0  0  0
 28 29  2  0  0  0
  5  1  1  0  0  0
  1  2  1  0  0  0
  2  3  2  0  0  0
  2 31  1  0  0  0
 31 32  1  0  0  0
 32 33  1  0  0  0
 33 34  2  0  0  0
 33 36  1  0  0  0
 36 37  1  0  0  0
 37 38  1  0  0  0
 38 39  1  0  0  0
 39 40  1  0  0  0
 40 41  1  0  0  0
 41 42  2  0  0  0
 41 43  1  0  0  0
 43 44  1  0  0  0
 43 47  1  0  0  0
 47 48  1  0  0  0
 48 49  2  0  0  0
 49 50  1  0  0  0
 50 51  2  0  0  0
 51 52  1  0  0  0
 51 53  1  0  0  0
 53 54  2  0  0  0
 10 11  1  0  0  0
 11 12  1  0  0  0
 11 13  2  0  0  0
 29 21  1  0  0  0
 40 36  1  0  0  0
 54 48  1  0  0  0
 29 24  1  0  0  0
  6  9  1  0  0  0
 23 30  1  0  0  0
  1  4  1  0  0  0
 32 35  1  0  0  0
 44 45  1  0  0  0
 44 46  1  0  0  0
 52 55  1  0  0  0
 12 14  1  0  0  0
 12 15  1  0  0  0
M  END
> <minimizedAffinity>
-7.37750

> <CNNscore>
0.2454500645

> <CNNaffinity>
6.3779644966

> <CNN_VS>
1.5654717684

> <CNNaffinity_variance>
0.2029673755

$$$$
[H]Oc1c([H])c([H])c(C([H])([H])[C@@]([H])(C(=O)N([H])[C@]([H])(C(=O)N([H])[C@]([H])(C(=O)N([H])[C@]([H])(C(=O)N([H])[C@]([H])(C(=O)N([H])[H])C([H])([H])C([H])(C([H])([H])[H])C([H])([H])[H])C([H])([H])C([H])([H])C(=O)N([H])[H])C([H])([H])C([H])([H])C(=O)N([H])[H])C([H])([H])c2c([H])c([H])c([H])c([H])c2[H])N([H])[H])c([H])c1[H]


 63 64  0  0  0  0  0  0  0  0999 V2000
  152.2881  138.9685  181.4728 C   0  0  0  0  0  0  0  0  0  0  0  0
  153.9162  139.5119  183.2995 N   0  0  0  0  0  0  0  0  0  0  0  0
  153.3458  139.8621  182.0583 C   0  0  0  0  0  0  0  0  0  0  0  0
  153.6638  140.8792  181.4067 O   0  0  0  0  0  0  0  0  0  0  0  0
  153.5943  138.6095  183.7765 H   0  0  0  0  0  0  0  0  0  0  0  0
  154.9084  140.2526  183.9918 C   0  0  0  0  0  0  0  0  0  0  0  0
  156.2834  141.4054  182.2514 N   0  0  0  0  0  0  0  0  0  0  0  0
  155.3487  141.5105  183.2538 C   0  0  0  0  0  0  0  0  0  0  0  0
  154.7980  142.5378  183.6429 O   0  0  0  0  0  0  0  0  0  0  0  0
  156.6114  140.3132  182.1405 H   0  0  0  0  0  0  0  0  0  0  0  0
  156.9521  142.1779  181.3145 C   0  0  0  0  0  0  0  0  0  0  0  0
  157.9318  141.4031  180.4827 C   0  0  0  0  0  0  0  0  0  0  0  0
  158.2748  141.7315  179.1553 N   0  0  0  0  0  0  0  0  0  0  0  0
  158.5154  140.3769  180.9589 O   0  0  0  0  0  0  0  0  0  0  0  0
  157.6247  141.7722  178.3434 H   0  0  0  0  0  0  0  0  0  0  0  0
  159.2865  141.9600  178.9567 H   0  0  0  0  0  0  0  0  0  0  0  0
  157.4556  143.5491  181.5170 C   0  0  0  0  0  0  0  0  0  0  0  0
  159.2623  143.3430  183.2219 C   0  0  0  0  0  0  0  0  0  0  0  0
  158.9145  143.7381  181.7895 C   0  0  0  0  0  0  0  0  0  0  0  0
  159.2014  145.2587  181.7505 C   0  0  0  0  0  0  0  0  0  0  0  0
  156.1863  139.3828  183.9922 C   0  0  0  0  0  0  0  0  0  0  0  0
  156.9339  139.5608  185.2759 C   0  0  0  0  0  0  0  0  0  0  0  0
  158.2690  140.1875  184.9887 C   0  0  0  0  0  0  0  0  0  0  0  0
  158.9555  139.6744  183.8619 N   0  0  0  0  0  0  0  0  0  0  0  0
  158.7660  141.0925  185.6679 O   0  0  0  0  0  0  0  0  0  0  0  0
  158.5421  138.9359  183.2253 H   0  0  0  0  0  0  0  0  0  0  0  0
  159.9203  139.9750  183.5621 H   0  0  0  0  0  0  0  0  0  0  0  0
  151.8767  137.9686  182.4097 N   0  0  0  0  0  0  0  0  0  0  0  0
  152.2018  136.5998  182.2885 C   0  0  0  0  0  0  0  0  0  0  0  0
  152.9232  136.2814  181.2832 O   0  0  0  0  0  0  0  0  0  0  0  0
  151.2958  138.2693  183.2391 H   0  0  0  0  0  0  0  0  0  0  0  0
  151.7503  135.5437  183.2583 C   0  0  0  0  0  0  0  0  0  0  0  0
  152.2914  135.7571  184.5526 N   0  0  0  0  0  0  0  0  0  0  0  0
  153.5542  135.2789  185.0270 C   0  0  0  0  0  0  0  0  0  0  0  0
  154.2669  134.6124  184.2539 O   0  0  0  0  0  0  0  0  0  0  0  0
  151.7314  136.3200  185.2596 H   0  0  0  0  0  0  0  0  0  0  0  0
  154.0298  135.5521  186.3931 C   0  0  0  0  0  0  0  0  0  0  0  0
  154.4061  134.3297  187.0911 N   0  0  0  0  0  0  0  0  0  0  0  0
  155.0342  133.7117  186.5714 H   0  0  0  0  0  0  0  0  0  0  0  0
  154.7748  134.5478  188.0494 H   0  0  0  0  0  0  0  0  0  0  0  0
  155.0796  136.6120  186.4368 C   0  0  0  0  0  0  0  0  0  0  0  0
  155.1071  137.3151  187.7148 C   0  0  0  0  0  0  0  0  0  0  0  0
  156.2201  137.1707  188.5164 C   0  0  0  0  0  0  0  0  0  0  0  0
  156.2344  137.8017  189.7357 C   0  0  0  0  0  0  0  0  0  0  0  0
  155.1718  138.5649  190.1684 C   0  0  0  0  0  0  0  0  0  0  0  0
  155.2342  139.1751  191.3906 O   0  0  0  0  0  0  0  0  0  0  0  0
  154.0520  138.6930  189.3343 C   0  0  0  0  0  0  0  0  0  0  0  0
  154.0312  138.0585  188.1012 C   0  0  0  0  0  0  0  0  0  0  0  0
  154.4612  139.7406  191.7078 H   0  0  0  0  0  0  0  0  0  0  0  0
  150.3162  135.2047  183.1265 C   0  0  0  0  0  0  0  0  0  0  0  0
  149.8701  134.7670  181.7875 C   0  0  0  0  0  0  0  0  0  0  0  0
  148.8769  135.4819  181.1016 C   0  0  0  0  0  0  0  0  0  0  0  0
  148.5069  134.9799  179.8752 C   0  0  0  0  0  0  0  0  0  0  0  0
  149.0410  133.8476  179.2981 C   0  0  0  0  0  0  0  0  0  0  0  0
  150.0246  133.1497  179.9862 C   0  0  0  0  0  0  0  0  0  0  0  0
  150.4031  133.6442  181.2199 C   0  0  0  0  0  0  0  0  0  0  0  0
  151.1636  139.8606  181.0345 C   0  0  0  0  0  0  0  0  0  0  0  0
  150.1255  138.9739  180.3332 C   0  0  0  0  0  0  0  0  0  0  0  0
  148.8625  139.0217  181.0708 C   0  0  0  0  0  0  0  0  0  0  0  0
  147.6250  139.0331  180.3907 N   0  0  0  0  0  0  0  0  0  0  0  0
  148.8689  139.0533  182.3262 O   0  0  0  0  0  0  0  0  0  0  0  0
  147.2812  138.1501  179.9602 H   0  0  0  0  0  0  0  0  0  0  0  0
  147.0400  139.8810  180.3002 H   0  0  0  0  0  0  0  0  0  0  0  0
 18 19  1  0  0  0
 19 20  1  0  0  0
 19 17  1  0  0  0
 17 11  1  0  0  0
 11  7  1  0  0  0
  7  8  1  0  0  0
  8  9  2  0  0  0
  8  6  1  0  0  0
  6 21  1  0  0  0
 21 22  1  0  0  0
 22 23  1  0  0  0
 23 24  1  0  0  0
 23 25  2  0  0  0
  6  2  1  0  0  0
  2  3  1  0  0  0
  3  4  2  0  0  0
  3  1  1  0  0  0
  1 57  1  0  0  0
 57 58  1  0  0  0
 58 59  1  0  0  0
 59 60  1  0  0  0
 59 61  2  0  0  0
  1 28  1  0  0  0
 28 29  1  0  0  0
 29 30  2  0  0  0
 29 32  1  0  0  0
 32 50  1  0  0  0
 50 51  1  0  0  0
 51 52  2  0  0  0
 52 53  1  0  0  0
 53 54  2  0  0  0
 54 55  1  0  0  0
 55 56  2  0  0  0
 32 33  1  0  0  0
 33 34  1  0  0  0
 34 35  2  0  0  0
 34 37  1  0  0  0
 37 38  1  0  0  0
 37 41  1  0  0  0
 41 42  1  0  0  0
 42 43  2  0  0  0
 43 44  1  0  0  0
 44 45  2  0  0  0
 45 46  1  0  0  0
 45 47  1  0  0  0
 47 48  2  0  0  0
 11 12  1  0  0  0
 12 13  1  0  0  0
 12 14  2  0  0  0
 56 51  1  0  0  0
 48 42  1  0  0  0
  7 10  1  0  0  0
 24 26  1  0  0  0
 24 27  1  0  0  0
  2  5  1  0  0  0
 60 62  1  0  0  0
 60 63  1  0  0  0
 28 31  1  0  0  0
 33 36  1  0  0  0
 38 39  1  0  0  0
 38 40  1  0  0  0
 46 49  1  0  0  0
 13 15  1  0  0  0
 13 16  1  0  0  0
M  END
> <minimizedAffinity>
-7.13200

> <CNNscore>
0.2400799841

> <CNNaffinity>
6.3806610107

> <CNN_VS>
1.5318689346

> <CNNaffinity_variance>
0.9146183133

$$$$
[H]Oc1c([H])c([H])c(C([H])([H])[C@@]([H])(C(=O)N([H])[C@]([H])(C(=O)N([H])[C@]([H])(C(=O)N([H])[C@]([H])(C(=O)N([H])[C@]([H])(C(=O)N([H])[H])C([H])([H])C([H])(C([H])([H])[H])C([H])([H])[H])C([H])([H])C([H])([H])C(=O)N([H])[H])C([H])([H])C([H])([H])C(=O)N([H])[H])C([H])([H])c2c([H])c([H])c([H])c([H])c2[H])N([H])[H])c([H])c1[H]


 63 64  0  0  0  0  0  0  0  0999 V2000
  154.4865  140.7764  182.8006 C   0  0  0  0  0  0  0  0  0  0  0  0
  156.9891  140.6349  182.7946 N   0  0  0  0  0  0  0  0  0  0  0  0
  155.7644  140.1954  183.3384 C   0  0  0  0  0  0  0  0  0  0  0  0
  155.6706  139.3434  184.2469 O   0  0  0  0  0  0  0  0  0  0  0  0
  156.9724  141.3844  182.0306 H   0  0  0  0  0  0  0  0  0  0  0  0
  158.2757  140.1766  183.1776 C   0  0  0  0  0  0  0  0  0  0  0  0
  159.6212  142.1357  183.9521 N   0  0  0  0  0  0  0  0  0  0  0  0
  158.9088  141.0086  184.2856 C   0  0  0  0  0  0  0  0  0  0  0  0
  158.7079  140.5717  185.4165 O   0  0  0  0  0  0  0  0  0  0  0  0
  159.6351  142.2625  182.8135 H   0  0  0  0  0  0  0  0  0  0  0  0
  160.3165  143.1842  184.5343 C   0  0  0  0  0  0  0  0  0  0  0  0
  160.1849  144.4814  183.7914 C   0  0  0  0  0  0  0  0  0  0  0  0
  159.1627  144.7588  182.8608 N   0  0  0  0  0  0  0  0  0  0  0  0
  161.0237  145.4209  183.9764 O   0  0  0  0  0  0  0  0  0  0  0  0
  158.9761  144.2396  181.9783 H   0  0  0  0  0  0  0  0  0  0  0  0
  158.5197  145.5695  183.0720 H   0  0  0  0  0  0  0  0  0  0  0  0
  161.6532  143.1051  185.1521 C   0  0  0  0  0  0  0  0  0  0  0  0
  162.9398  142.6591  187.2400 C   0  0  0  0  0  0  0  0  0  0  0  0
  161.7848  143.4296  186.6067 C   0  0  0  0  0  0  0  0  0  0  0  0
  160.5339  142.8661  187.3236 C   0  0  0  0  0  0  0  0  0  0  0  0
  159.2100  140.4314  181.9726 C   0  0  0  0  0  0  0  0  0  0  0  0
  158.4117  140.5393  180.7118 C   0  0  0  0  0  0  0  0  0  0  0  0
  158.4629  141.9557  180.2128 C   0  0  0  0  0  0  0  0  0  0  0  0
  158.1075  142.1387  178.8548 N   0  0  0  0  0  0  0  0  0  0  0  0
  158.7880  142.9214  180.9121 O   0  0  0  0  0  0  0  0  0  0  0  0
  157.7746  141.3457  178.2368 H   0  0  0  0  0  0  0  0  0  0  0  0
  158.1424  143.0619  178.3471 H   0  0  0  0  0  0  0  0  0  0  0  0
  153.3967  139.8618  182.9515 N   0  0  0  0  0  0  0  0  0  0  0  0
  152.4863  139.5501  181.9180 C   0  0  0  0  0  0  0  0  0  0  0  0
  152.6953  140.1221  180.7948 O   0  0  0  0  0  0  0  0  0  0  0  0
  153.2635  139.3930  183.8886 H   0  0  0  0  0  0  0  0  0  0  0  0
  151.3261  138.6082  182.0811 C   0  0  0  0  0  0  0  0  0  0  0  0
  151.5531  137.6758  183.1264 N   0  0  0  0  0  0  0  0  0  0  0  0
  152.2618  136.4376  183.0117 C   0  0  0  0  0  0  0  0  0  0  0  0
  152.7361  136.1236  181.9042 O   0  0  0  0  0  0  0  0  0  0  0  0
  151.1739  137.8864  184.0970 H   0  0  0  0  0  0  0  0  0  0  0  0
  152.4442  135.5327  184.1583 C   0  0  0  0  0  0  0  0  0  0  0  0
  151.9379  134.1952  183.8798 N   0  0  0  0  0  0  0  0  0  0  0  0
  152.2609  133.7859  182.9996 H   0  0  0  0  0  0  0  0  0  0  0  0
  152.1082  133.5564  184.6951 H   0  0  0  0  0  0  0  0  0  0  0  0
  153.8402  135.5449  184.6858 C   0  0  0  0  0  0  0  0  0  0  0  0
  153.9753  136.3679  185.8828 C   0  0  0  0  0  0  0  0  0  0  0  0
  153.0669  137.3866  186.0816 C   0  0  0  0  0  0  0  0  0  0  0  0
  153.2124  138.1860  187.1882 C   0  0  0  0  0  0  0  0  0  0  0  0
  154.2356  137.9936  188.0910 C   0  0  0  0  0  0  0  0  0  0  0  0
  154.3375  138.8155  189.1791 O   0  0  0  0  0  0  0  0  0  0  0  0
  155.1463  136.9519  187.8633 C   0  0  0  0  0  0  0  0  0  0  0  0
  155.0048  136.1404  186.7476 C   0  0  0  0  0  0  0  0  0  0  0  0
  155.0811  138.6732  189.8461 H   0  0  0  0  0  0  0  0  0  0  0  0
  150.0112  139.2803  181.9914 C   0  0  0  0  0  0  0  0  0  0  0  0
  149.1548  138.8880  180.8529 C   0  0  0  0  0  0  0  0  0  0  0  0
  149.7297  138.4823  179.6393 C   0  0  0  0  0  0  0  0  0  0  0  0
  148.8512  138.1655  178.6288 C   0  0  0  0  0  0  0  0  0  0  0  0
  147.4781  138.2218  178.7375 C   0  0  0  0  0  0  0  0  0  0  0  0
  146.9212  138.6232  179.9444 C   0  0  0  0  0  0  0  0  0  0  0  0
  147.7943  138.9453  180.9662 C   0  0  0  0  0  0  0  0  0  0  0  0
  154.2666  142.0753  183.5197 C   0  0  0  0  0  0  0  0  0  0  0  0
  154.4056  143.1990  182.4835 C   0  0  0  0  0  0  0  0  0  0  0  0
  155.7688  143.7301  182.5172 C   0  0  0  0  0  0  0  0  0  0  0  0
  156.2201  144.6336  181.5302 N   0  0  0  0  0  0  0  0  0  0  0  0
  156.5557  143.3836  183.4324 O   0  0  0  0  0  0  0  0  0  0  0  0
  155.8896  145.6198  181.5643 H   0  0  0  0  0  0  0  0  0  0  0  0
  156.8677  144.3611  180.7713 H   0  0  0  0  0  0  0  0  0  0  0  0
 18 19  1  0  0  0
 19 20  1  0  0  0
 19 17  1  0  0  0
 17 11  1  0  0  0
 11  7  1  0  0  0
  7  8  1  0  0  0
  8  9  2  0  0  0
  8  6  1  0  0  0
  6 21  1  0  0  0
 21 22  1  0  0  0
 22 23  1  0  0  0
 23 24  1  0  0  0
 23 25  2  0  0  0
  6  2  1  0  0  0
  2  3  1  0  0  0
  3  4  2  0  0  0
  3  1  1  0  0  0
  1 57  1  0  0  0
 57 58  1  0  0  0
 58 59  1  0  0  0
 59 60  1  0  0  0
 59 61  2  0  0  0
  1 28  1  0  0  0
 28 29  1  0  0  0
 29 30  2  0  0  0
 29 32  1  0  0  0
 32 50  1  0  0  0
 50 51  1  0  0  0
 51 52  2  0  0  0
 52 53  1  0  0  0
 53 54  2  0  0  0
 54 55  1  0  0  0
 55 56  2  0  0  0
 32 33  1  0  0  0
 33 34  1  0  0  0
 34 35  2  0  0  0
 34 37  1  0  0  0
 37 38  1  0  0  0
 37 41  1  0  0  0
 41 42  1  0  0  0
 42 43  2  0  0  0
 43 44  1  0  0  0
 44 45  2  0  0  0
 45 46  1  0  0  0
 45 47  1  0  0  0
 47 48  2  0  0  0
 11 12  1  0  0  0
 12 13  1  0  0  0
 12 14  2  0  0  0
 56 51  1  0  0  0
 48 42  1  0  0  0
  7 10  1  0  0  0
 24 26  1  0  0  0
 24 27  1  0  0  0
  2  5  1  0  0  0
 60 62  1  0  0  0
 60 63  1  0  0  0
 28 31  1  0  0  0
 33 36  1  0  0  0
 38 39  1  0  0  0
 38 40  1  0  0  0
 46 49  1  0  0  0
 13 15  1  0  0  0
 13 16  1  0  0  0
M  END
> <minimizedAffinity>
-8.40737

> <CNNscore>
0.2013033032

> <CNNaffinity>
6.9924125671

> <CNN_VS>
1.4075957537

> <CNNaffinity_variance>
0.5364744663

$$$$
[H]Oc1c([H])c([H])c(C([H])([H])[C@@]([H])(C(=O)N([H])[C@]([H])(C(=O)N([H])[C@]([H])(C(=O)N([H])[C@]([H])(C(=O)N([H])[C@]([H])(C(=O)N([H])[H])C([H])([H])C([H])(C([H])([H])[H])C([H])([H])[H])C([H])([H])C([H])([H])C(=O)N([H])[H])C([H])([H])C([H])([H])C(=O)N([H])[H])C([H])([H])c2c([H])c([H])c([H])c([H])c2[H])N([H])[H])c([H])c1[H]


 63 64  0  0  0  0  0  0  0  0999 V2000
  152.2421  138.8934  181.6748 C   0  0  0  0  0  0  0  0  0  0  0  0
  153.8915  139.5645  183.4390 N   0  0  0  0  0  0  0  0  0  0  0  0
  153.3445  139.7933  182.1595 C   0  0  0  0  0  0  0  0  0  0  0  0
  153.7188  140.7067  181.3942 O   0  0  0  0  0  0  0  0  0  0  0  0
  153.5200  138.7440  184.0172 H   0  0  0  0  0  0  0  0  0  0  0  0
  154.9199  140.3290  184.0473 C   0  0  0  0  0  0  0  0  0  0  0  0
  156.2457  141.5026  182.2828 N   0  0  0  0  0  0  0  0  0  0  0  0
  155.2856  141.5829  183.2631 C   0  0  0  0  0  0  0  0  0  0  0  0
  154.6559  142.5838  183.5975 O   0  0  0  0  0  0  0  0  0  0  0  0
  156.6521  140.4330  182.2252 H   0  0  0  0  0  0  0  0  0  0  0  0
  156.8774  142.2807  181.3250 C   0  0  0  0  0  0  0  0  0  0  0  0
  157.7726  141.4998  180.4082 C   0  0  0  0  0  0  0  0  0  0  0  0
  158.0839  141.8872  179.0889 N   0  0  0  0  0  0  0  0  0  0  0  0
  158.3076  140.4124  180.7979 O   0  0  0  0  0  0  0  0  0  0  0  0
  157.4066  142.0173  178.3093 H   0  0  0  0  0  0  0  0  0  0  0  0
  159.0996  142.0649  178.8610 H   0  0  0  0  0  0  0  0  0  0  0  0
  157.4403  143.6280  181.5314 C   0  0  0  0  0  0  0  0  0  0  0  0
  159.3036  143.4217  183.1743 C   0  0  0  0  0  0  0  0  0  0  0  0
  158.9165  143.7582  181.7371 C   0  0  0  0  0  0  0  0  0  0  0  0
  159.2736  145.2586  181.6048 C   0  0  0  0  0  0  0  0  0  0  0  0
  156.2078  139.4780  183.9650 C   0  0  0  0  0  0  0  0  0  0  0  0
  157.0009  139.6151  185.2263 C   0  0  0  0  0  0  0  0  0  0  0  0
  158.3440  140.2074  184.9050 C   0  0  0  0  0  0  0  0  0  0  0  0
  158.9654  139.7132  183.7330 N   0  0  0  0  0  0  0  0  0  0  0  0
  158.8994  141.0701  185.5937 O   0  0  0  0  0  0  0  0  0  0  0  0
  158.5010  139.0123  183.0890 H   0  0  0  0  0  0  0  0  0  0  0  0
  159.9269  139.9923  183.4033 H   0  0  0  0  0  0  0  0  0  0  0  0
  151.7964  138.0142  182.7117 N   0  0  0  0  0  0  0  0  0  0  0  0
  151.6232  136.6234  182.5393 C   0  0  0  0  0  0  0  0  0  0  0  0
  151.9120  136.1611  181.3837 O   0  0  0  0  0  0  0  0  0  0  0  0
  151.5833  138.4272  183.6602 H   0  0  0  0  0  0  0  0  0  0  0  0
  151.1317  135.7012  183.6200 C   0  0  0  0  0  0  0  0  0  0  0  0
  151.8734  135.8596  184.8192 N   0  0  0  0  0  0  0  0  0  0  0  0
  153.2035  135.3869  185.0559 C   0  0  0  0  0  0  0  0  0  0  0  0
  153.7901  134.7780  184.1420 O   0  0  0  0  0  0  0  0  0  0  0  0
  151.4281  136.3720  185.6374 H   0  0  0  0  0  0  0  0  0  0  0  0
  153.8914  135.5997  186.3398 C   0  0  0  0  0  0  0  0  0  0  0  0
  154.4886  134.3707  186.8455 N   0  0  0  0  0  0  0  0  0  0  0  0
  155.0633  133.8603  186.1704 H   0  0  0  0  0  0  0  0  0  0  0  0
  155.0033  134.5497  187.7426 H   0  0  0  0  0  0  0  0  0  0  0  0
  154.8385  136.7524  186.3021 C   0  0  0  0  0  0  0  0  0  0  0  0
  155.0068  137.3770  187.6097 C   0  0  0  0  0  0  0  0  0  0  0  0
  156.2069  137.2042  188.2671 C   0  0  0  0  0  0  0  0  0  0  0  0
  156.3559  137.7602  189.5135 C   0  0  0  0  0  0  0  0  0  0  0  0
  155.3425  138.4765  190.1127 C   0  0  0  0  0  0  0  0  0  0  0  0
  155.5398  139.0124  191.3552 O   0  0  0  0  0  0  0  0  0  0  0  0
  154.1320  138.6347  189.4229 C   0  0  0  0  0  0  0  0  0  0  0  0
  153.9750  138.0760  188.1633 C   0  0  0  0  0  0  0  0  0  0  0  0
  154.8028  139.5435  191.7941 H   0  0  0  0  0  0  0  0  0  0  0  0
  149.6562  135.6219  183.6934 C   0  0  0  0  0  0  0  0  0  0  0  0
  149.0377  136.1214  184.9390 C   0  0  0  0  0  0  0  0  0  0  0  0
  148.5777  135.2225  185.9129 C   0  0  0  0  0  0  0  0  0  0  0  0
  147.9897  135.7817  187.0240 C   0  0  0  0  0  0  0  0  0  0  0  0
  147.8314  137.1357  187.2294 C   0  0  0  0  0  0  0  0  0  0  0  0
  148.2923  138.0152  186.2590 C   0  0  0  0  0  0  0  0  0  0  0  0
  148.8836  137.4645  185.1378 C   0  0  0  0  0  0  0  0  0  0  0  0
  151.1539  139.7861  181.1539 C   0  0  0  0  0  0  0  0  0  0  0  0
  150.8451  139.3383  179.7188 C   0  0  0  0  0  0  0  0  0  0  0  0
  149.5021  138.7594  179.6647 C   0  0  0  0  0  0  0  0  0  0  0  0
  148.8653  138.5178  178.4277 N   0  0  0  0  0  0  0  0  0  0  0  0
  148.8994  138.4702  180.7278 O   0  0  0  0  0  0  0  0  0  0  0  0
  149.1807  137.7114  177.8504 H   0  0  0  0  0  0  0  0  0  0  0  0
  148.0956  139.1063  178.0662 H   0  0  0  0  0  0  0  0  0  0  0  0
 18 19  1  0  0  0
 19 20  1  0  0  0
 19 17  1  0  0  0
 17 11  1  0  0  0
 11  7  1  0  0  0
  7  8  1  0  0  0
  8  9  2  0  0  0
  8  6  1  0  0  0
  6 21  1  0  0  0
 21 22  1  0  0  0
 22 23  1  0  0  0
 23 24  1  0  0  0
 23 25  2  0  0  0
  6  2  1  0  0  0
  2  3  1  0  0  0
  3  4  2  0  0  0
  3  1  1  0  0  0
  1 57  1  0  0  0
 57 58  1  0  0  0
 58 59  1  0  0  0
 59 60  1  0  0  0
 59 61  2  0  0  0
  1 28  1  0  0  0
 28 29  1  0  0  0
 29 30  2  0  0  0
 29 32  1  0  0  0
 32 50  1  0  0  0
 50 51  1  0  0  0
 51 52  2  0  0  0
 52 53  1  0  0  0
 53 54  2  0  0  0
 54 55  1  0  0  0
 55 56  2  0  0  0
 32 33  1  0  0  0
 33 34  1  0  0  0
 34 35  2  0  0  0
 34 37  1  0  0  0
 37 38  1  0  0  0
 37 41  1  0  0  0
 41 42  1  0  0  0
 42 43  2  0  0  0
 43 44  1  0  0  0
 44 45  2  0  0  0
 45 46  1  0  0  0
 45 47  1  0  0  0
 47 48  2  0  0  0
 11 12  1  0  0  0
 12 13  1  0  0  0
 12 14  2  0  0  0
 56 51  1  0  0  0
 48 42  1  0  0  0
  7 10  1  0  0  0
 24 26  1  0  0  0
 24 27  1  0  0  0
  2  5  1  0  0  0
 60 62  1  0  0  0
 60 63  1  0  0  0
 28 31  1  0  0  0
 33 36  1  0  0  0
 38 39  1  0  0  0
 38 40  1  0  0  0
 46 49  1  0  0  0
 13 15  1  0  0  0
 13 16  1  0  0  0
M  END
> <minimizedAffinity>
-7.40275

> <CNNscore>
0.1931388825

> <CNNaffinity>
6.4715867043

> <CNN_VS>
1.2499150038

> <CNNaffinity_variance>
0.9231439829

$$$$
[H]Oc1c([H])c([H])c(C([H])([H])[C@@]([H])(C(=O)N([H])[C@]([H])(C(=O)N([H])[C@]([H])(C(=O)N([H])[C@]([H])(C(=O)N([H])[C@]([H])(C(=O)N([H])[H])C([H])([H])C([H])(C([H])([H])[H])C([H])([H])[H])C([H])([H])C([H])([H])C(=O)N([H])[H])C([H])([H])C([H])([H])C(=O)N([H])[H])C([H])([H])c2c([H])c([H])c([H])c([H])c2[H])N([H])[H])c([H])c1[H]


 63 64  0  0  0  0  0  0  0  0999 V2000
  155.0306  139.8757  183.5699 C   0  0  0  0  0  0  0  0  0  0  0  0
  157.1717  140.0958  182.2853 N   0  0  0  0  0  0  0  0  0  0  0  0
  156.2738  140.6465  183.2230 C   0  0  0  0  0  0  0  0  0  0  0  0
  156.4467  141.7445  183.7925 O   0  0  0  0  0  0  0  0  0  0  0  0
  156.9301  139.1562  181.8333 H   0  0  0  0  0  0  0  0  0  0  0  0
  158.3913  140.6850  181.8636 C   0  0  0  0  0  0  0  0  0  0  0  0
  159.4519  142.4654  183.2614 N   0  0  0  0  0  0  0  0  0  0  0  0
  159.2823  141.1231  183.0190 C   0  0  0  0  0  0  0  0  0  0  0  0
  159.7796  140.1922  183.6484 O   0  0  0  0  0  0  0  0  0  0  0  0
  158.8658  143.0757  182.4889 H   0  0  0  0  0  0  0  0  0  0  0  0
  160.0826  143.3317  184.1409 C   0  0  0  0  0  0  0  0  0  0  0  0
  159.9958  144.7734  183.7336 C   0  0  0  0  0  0  0  0  0  0  0  0
  160.9897  145.7341  184.0109 N   0  0  0  0  0  0  0  0  0  0  0  0
  158.9817  145.2060  183.0974 O   0  0  0  0  0  0  0  0  0  0  0  0
  161.3183  146.0252  184.9546 H   0  0  0  0  0  0  0  0  0  0  0  0
  161.4507  146.2085  183.1877 H   0  0  0  0  0  0  0  0  0  0  0  0
  161.3644  143.0918  184.8294 C   0  0  0  0  0  0  0  0  0  0  0  0
  160.0573  142.7114  186.9175 C   0  0  0  0  0  0  0  0  0  0  0  0
  161.3410  142.3975  186.1544 C   0  0  0  0  0  0  0  0  0  0  0  0
  162.4498  143.0298  187.0302 C   0  0  0  0  0  0  0  0  0  0  0  0
  158.0210  142.0222  181.1820 C   0  0  0  0  0  0  0  0  0  0  0  0
  158.4588  142.0131  179.7513 C   0  0  0  0  0  0  0  0  0  0  0  0
  159.1888  143.2911  179.4486 C   0  0  0  0  0  0  0  0  0  0  0  0
  159.1391  144.2783  180.4621 N   0  0  0  0  0  0  0  0  0  0  0  0
  159.8028  143.5016  178.3970 O   0  0  0  0  0  0  0  0  0  0  0  0
  158.6675  144.1181  181.3967 H   0  0  0  0  0  0  0  0  0  0  0  0
  159.5579  145.2420  180.3786 H   0  0  0  0  0  0  0  0  0  0  0  0
  155.0923  139.3650  184.9049 N   0  0  0  0  0  0  0  0  0  0  0  0
  154.5565  138.1172  185.2923 C   0  0  0  0  0  0  0  0  0  0  0  0
  154.0135  137.4273  184.3640 O   0  0  0  0  0  0  0  0  0  0  0  0
  155.5640  139.9538  185.6442 H   0  0  0  0  0  0  0  0  0  0  0  0
  154.5984  137.5892  186.6991 C   0  0  0  0  0  0  0  0  0  0  0  0
  153.7384  136.4727  186.8641 N   0  0  0  0  0  0  0  0  0  0  0  0
  152.3328  136.5239  187.1290 C   0  0  0  0  0  0  0  0  0  0  0  0
  151.7858  137.6380  187.2274 O   0  0  0  0  0  0  0  0  0  0  0  0
  154.1448  135.4931  186.7905 H   0  0  0  0  0  0  0  0  0  0  0  0
  151.5226  135.3050  187.2865 C   0  0  0  0  0  0  0  0  0  0  0  0
  151.5291  134.4895  186.0792 N   0  0  0  0  0  0  0  0  0  0  0  0
  152.4566  134.2988  185.6920 H   0  0  0  0  0  0  0  0  0  0  0  0
  150.9754  133.6093  186.2226 H   0  0  0  0  0  0  0  0  0  0  0  0
  151.8625  134.5429  188.5238 C   0  0  0  0  0  0  0  0  0  0  0  0
  151.6731  135.3346  189.7344 C   0  0  0  0  0  0  0  0  0  0  0  0
  152.7882  135.8607  190.3525 C   0  0  0  0  0  0  0  0  0  0  0  0
  152.6172  136.5759  191.5119 C   0  0  0  0  0  0  0  0  0  0  0  0
  151.3698  136.7741  192.0630 C   0  0  0  0  0  0  0  0  0  0  0  0
  151.2508  137.4952  193.2188 O   0  0  0  0  0  0  0  0  0  0  0  0
  150.2535  136.2262  191.4150 C   0  0  0  0  0  0  0  0  0  0  0  0
  150.4192  135.5030  190.2432 C   0  0  0  0  0  0  0  0  0  0  0  0
  150.3384  137.6485  193.6214 H   0  0  0  0  0  0  0  0  0  0  0  0
  155.9660  137.5313  187.2605 C   0  0  0  0  0  0  0  0  0  0  0  0
  156.0638  137.3004  188.7168 C   0  0  0  0  0  0  0  0  0  0  0  0
  155.7906  138.3387  189.6198 C   0  0  0  0  0  0  0  0  0  0  0  0
  155.9379  138.0357  190.9538 C   0  0  0  0  0  0  0  0  0  0  0  0
  156.3269  136.8058  191.4400 C   0  0  0  0  0  0  0  0  0  0  0  0
  156.5927  135.7858  190.5363 C   0  0  0  0  0  0  0  0  0  0  0  0
  156.4493  136.0792  189.1934 C   0  0  0  0  0  0  0  0  0  0  0  0
  153.8718  140.8037  183.3493 C   0  0  0  0  0  0  0  0  0  0  0  0
  153.5701  140.8060  181.8444 C   0  0  0  0  0  0  0  0  0  0  0  0
  152.7480  139.6429  181.5081 C   0  0  0  0  0  0  0  0  0  0  0  0
  151.9827  138.9853  182.4959 N   0  0  0  0  0  0  0  0  0  0  0  0
  152.7163  139.2162  180.3275 O   0  0  0  0  0  0  0  0  0  0  0  0
  151.1107  139.4383  182.8389 H   0  0  0  0  0  0  0  0  0  0  0  0
  152.2477  138.0695  182.8965 H   0  0  0  0  0  0  0  0  0  0  0  0
 18 19  1  0  0  0
 19 20  1  0  0  0
 19 17  1  0  0  0
 17 11  1  0  0  0
 11  7  1  0  0  0
  7  8  1  0  0  0
  8  9  2  0  0  0
  8  6  1  0  0  0
  6 21  1  0  0  0
 21 22  1  0  0  0
 22 23  1  0  0  0
 23 24  1  0  0  0
 23 25  2  0  0  0
  6  2  1  0  0  0
  2  3  1  0  0  0
  3  4  2  0  0  0
  3  1  1  0  0  0
  1 57  1  0  0  0
 57 58  1  0  0  0
 58 59  1  0  0  0
 59 60  1  0  0  0
 59 61  2  0  0  0
  1 28  1  0  0  0
 28 29  1  0  0  0
 29 30  2  0  0  0
 29 32  1  0  0  0
 32 50  1  0  0  0
 50 51  1  0  0  0
 51 52  2  0  0  0
 52 53  1  0  0  0
 53 54  2  0  0  0
 54 55  1  0  0  0
 55 56  2  0  0  0
 32 33  1  0  0  0
 33 34  1  0  0  0
 34 35  2  0  0  0
 34 37  1  0  0  0
 37 38  1  0  0  0
 37 41  1  0  0  0
 41 42  1  0  0  0
 42 43  2  0  0  0
 43 44  1  0  0  0
 44 45  2  0  0  0
 45 46  1  0  0  0
 45 47  1  0  0  0
 47 48  2  0  0  0
 11 12  1  0  0  0
 12 13  1  0  0  0
 12 14  2  0  0  0
 56 51  1  0  0  0
 48 42  1  0  0  0
  7 10  1  0  0  0
 24 26  1  0  0  0
 24 27  1  0  0  0
  2  5  1  0  0  0
 60 62  1  0  0  0
 60 63  1  0  0  0
 28 31  1  0  0  0
 33 36  1  0  0  0
 38 39  1  0  0  0
 38 40  1  0  0  0
 46 49  1  0  0  0
 13 15  1  0  0  0
 13 16  1  0  0  0
M  END
> <minimizedAffinity>
-8.49740

> <CNNscore>
0.1527339816

> <CNNaffinity>
6.8373427391

> <CNN_VS>
1.0442945957

> <CNNaffinity_variance>
0.3391377330

$$$$
[H]Oc1c([H])c([H])c(C([H])([H])[C@@]([H])(C(=O)N([H])[C@]([H])(C(=O)N([H])[C@]([H])(C(=O)N([H])[C@]([H])(C(=O)N([H])[C@]([H])(C(=O)N([H])[H])C([H])([H])C([H])(C([H])([H])[H])C([H])([H])[H])C([H])([H])C([H])([H])C(=O)N([H])[H])C([H])([H])C([H])([H])C(=O)N([H])[H])C([H])([H])c2c([H])c([H])c([H])c([H])c2[H])N([H])[H])c([H])c1[H]


 63 64  0  0  0  0  0  0  0  0999 V2000
  153.5893  137.8881  183.9369 C   0  0  0  0  0  0  0  0  0  0  0  0
  155.2820  139.5792  183.1898 N   0  0  0  0  0  0  0  0  0  0  0  0
  154.5306  139.0194  184.2437 C   0  0  0  0  0  0  0  0  0  0  0  0
  154.5983  139.4049  185.4298 O   0  0  0  0  0  0  0  0  0  0  0  0
  155.1432  139.1961  182.2001 H   0  0  0  0  0  0  0  0  0  0  0  0
  156.2212  140.6350  183.3139 C   0  0  0  0  0  0  0  0  0  0  0  0
  157.4861  142.1801  181.8102 N   0  0  0  0  0  0  0  0  0  0  0  0
  156.3144  141.5104  182.0706 C   0  0  0  0  0  0  0  0  0  0  0  0
  155.2892  141.5286  181.3933 O   0  0  0  0  0  0  0  0  0  0  0  0
  158.2472  141.9661  182.6395 H   0  0  0  0  0  0  0  0  0  0  0  0
  158.0641  143.0170  180.8683 C   0  0  0  0  0  0  0  0  0  0  0  0
  158.1886  142.3979  179.5070 C   0  0  0  0  0  0  0  0  0  0  0  0
  157.2690  141.4722  178.9729 N   0  0  0  0  0  0  0  0  0  0  0  0
  159.1680  142.6929  178.7492 O   0  0  0  0  0  0  0  0  0  0  0  0
  157.0328  140.5397  179.3705 H   0  0  0  0  0  0  0  0  0  0  0  0
  156.7668  141.7431  178.0843 H   0  0  0  0  0  0  0  0  0  0  0  0
  159.1968  143.9333  181.0968 C   0  0  0  0  0  0  0  0  0  0  0  0
  159.6914  144.6725  183.4255 C   0  0  0  0  0  0  0  0  0  0  0  0
  159.0312  145.0330  182.0977 C   0  0  0  0  0  0  0  0  0  0  0  0
  157.5262  145.1182  182.4498 C   0  0  0  0  0  0  0  0  0  0  0  0
  157.6177  139.9755  183.3819 C   0  0  0  0  0  0  0  0  0  0  0  0
  158.2105  140.1569  184.7437 C   0  0  0  0  0  0  0  0  0  0  0  0
  159.4413  141.0123  184.6381 C   0  0  0  0  0  0  0  0  0  0  0  0
  160.1852  140.8683  183.4422 N   0  0  0  0  0  0  0  0  0  0  0  0
  159.8102  141.8005  185.5155 O   0  0  0  0  0  0  0  0  0  0  0  0
  159.8758  140.2426  182.6458 H   0  0  0  0  0  0  0  0  0  0  0  0
  161.0955  141.3604  183.2418 H   0  0  0  0  0  0  0  0  0  0  0  0
  153.2175  137.1853  185.1263 N   0  0  0  0  0  0  0  0  0  0  0  0
  153.6068  135.8570  185.4059 C   0  0  0  0  0  0  0  0  0  0  0  0
  154.3498  135.2944  184.5319 O   0  0  0  0  0  0  0  0  0  0  0  0
  152.6170  137.6865  185.8362 H   0  0  0  0  0  0  0  0  0  0  0  0
  153.1973  135.1081  186.6433 C   0  0  0  0  0  0  0  0  0  0  0  0
  153.5276  135.8260  187.8218 N   0  0  0  0  0  0  0  0  0  0  0  0
  154.4692  135.4192  188.8200 C   0  0  0  0  0  0  0  0  0  0  0  0
  155.0711  134.3403  188.6660 O   0  0  0  0  0  0  0  0  0  0  0  0
  153.0484  136.7560  188.0109 H   0  0  0  0  0  0  0  0  0  0  0  0
  154.7436  136.2354  190.0140 C   0  0  0  0  0  0  0  0  0  0  0  0
  155.9819  136.9918  189.8813 N   0  0  0  0  0  0  0  0  0  0  0  0
  156.0722  137.5229  189.0116 H   0  0  0  0  0  0  0  0  0  0  0  0
  156.1421  137.5931  190.7266 H   0  0  0  0  0  0  0  0  0  0  0  0
  153.5755  137.0692  190.4231 C   0  0  0  0  0  0  0  0  0  0  0  0
  152.8716  136.5139  191.5740 C   0  0  0  0  0  0  0  0  0  0  0  0
  151.5772  136.9274  191.8105 C   0  0  0  0  0  0  0  0  0  0  0  0
  150.9242  136.4344  192.9130 C   0  0  0  0  0  0  0  0  0  0  0  0
  151.5296  135.5477  193.7768 C   0  0  0  0  0  0  0  0  0  0  0  0
  150.8370  135.0837  194.8607 O   0  0  0  0  0  0  0  0  0  0  0  0
  152.8470  135.1458  193.5137 C   0  0  0  0  0  0  0  0  0  0  0  0
  153.5123  135.6396  192.4014 C   0  0  0  0  0  0  0  0  0  0  0  0
  151.2744  134.4289  195.4914 H   0  0  0  0  0  0  0  0  0  0  0  0
  151.8598  134.4852  186.5331 C   0  0  0  0  0  0  0  0  0  0  0  0
  150.9649  134.6523  187.6971 C   0  0  0  0  0  0  0  0  0  0  0  0
  150.0063  135.6764  187.7138 C   0  0  0  0  0  0  0  0  0  0  0  0
  149.2406  135.7708  188.8531 C   0  0  0  0  0  0  0  0  0  0  0  0
  149.3577  134.9405  189.9473 C   0  0  0  0  0  0  0  0  0  0  0  0
  150.3092  133.9297  189.9179 C   0  0  0  0  0  0  0  0  0  0  0  0
  151.0850  133.8263  188.7789 C   0  0  0  0  0  0  0  0  0  0  0  0
  152.4158  138.4861  183.2173 C   0  0  0  0  0  0  0  0  0  0  0  0
  152.4207  137.9216  181.7900 C   0  0  0  0  0  0  0  0  0  0  0  0
  151.9061  138.9302  180.8629 C   0  0  0  0  0  0  0  0  0  0  0  0
  152.7821  139.8014  180.1790 N   0  0  0  0  0  0  0  0  0  0  0  0
  150.6698  139.0301  180.6661 O   0  0  0  0  0  0  0  0  0  0  0  0
  153.3401  139.4287  179.3835 H   0  0  0  0  0  0  0  0  0  0  0  0
  152.8957  140.7978  180.4313 H   0  0  0  0  0  0  0  0  0  0  0  0
 18 19  1  0  0  0
 19 20  1  0  0  0
 19 17  1  0  0  0
 17 11  1  0  0  0
 11  7  1  0  0  0
  7  8  1  0  0  0
  8  9  2  0  0  0
  8  6  1  0  0  0
  6 21  1  0  0  0
 21 22  1  0  0  0
 22 23  1  0  0  0
 23 24  1  0  0  0
 23 25  2  0  0  0
  6  2  1  0  0  0
  2  3  1  0  0  0
  3  4  2  0  0  0
  3  1  1  0  0  0
  1 57  1  0  0  0
 57 58  1  0  0  0
 58 59  1  0  0  0
 59 60  1  0  0  0
 59 61  2  0  0  0
  1 28  1  0  0  0
 28 29  1  0  0  0
 29 30  2  0  0  0
 29 32  1  0  0  0
 32 50  1  0  0  0
 50 51  1  0  0  0
 51 52  2  0  0  0
 52 53  1  0  0  0
 53 54  2  0  0  0
 54 55  1  0  0  0
 55 56  2  0  0  0
 32 33  1  0  0  0
 33 34  1  0  0  0
 34 35  2  0  0  0
 34 37  1  0  0  0
 37 38  1  0  0  0
 37 41  1  0  0  0
 41 42  1  0  0  0
 42 43  2  0  0  0
 43 44  1  0  0  0
 44 45  2  0  0  0
 45 46  1  0  0  0
 45 47  1  0  0  0
 47 48  2  0  0  0
 11 12  1  0  0  0
 12 13  1  0  0  0
 12 14  2  0  0  0
 56 51  1  0  0  0
 48 42  1  0  0  0
  7 10  1  0  0  0
 24 26  1  0  0  0
 24 27  1  0  0  0
  2  5  1  0  0  0
 60 62  1  0  0  0
 60 63  1  0  0  0
 28 31  1  0  0  0
 33 36  1  0  0  0
 38 39  1  0  0  0
 38 40  1  0  0  0
 46 49  1  0  0  0
 13 15  1  0  0  0
 13 16  1  0  0  0
M  END
> <minimizedAffinity>
-6.75016

> <CNNscore>
0.1464190334

> <CNNaffinity>
6.2132573128

> <CNN_VS>
0.9097391367

> <CNNaffinity_variance>
0.4701089263

$$$$
[H]Oc1c([H])c([H])c(C([H])([H])[C@@]([H])(C(=O)N([H])[C@]([H])(C(=O)N([H])[C@]([H])(C(=O)N([H])[C@]([H])(C(=O)N([H])[C@]([H])(C(=O)N([H])[H])C([H])([H])C([H])(C([H])([H])[H])C([H])([H])[H])C([H])([H])C([H])([H])C(=O)N([H])[H])C([H])([H])C([H])([H])C(=O)N([H])[H])C([H])([H])c2c([H])c([H])c([H])c([H])c2[H])N([H])[H])c([H])c1[H]


 63 64  0  0  0  0  0  0  0  0999 V2000
  153.3229  137.3064  185.2729 C   0  0  0  0  0  0  0  0  0  0  0  0
  155.0182  139.0026  184.5436 N   0  0  0  0  0  0  0  0  0  0  0  0
  153.8253  138.3035  184.2663 C   0  0  0  0  0  0  0  0  0  0  0  0
  153.1496  138.4618  183.2278 O   0  0  0  0  0  0  0  0  0  0  0  0
  155.5408  138.7864  185.4523 H   0  0  0  0  0  0  0  0  0  0  0  0
  155.6148  139.9831  183.7100 C   0  0  0  0  0  0  0  0  0  0  0  0
  157.5820  141.5210  183.5929 N   0  0  0  0  0  0  0  0  0  0  0  0
  156.9791  140.4474  184.2038 C   0  0  0  0  0  0  0  0  0  0  0  0
  157.4224  139.7891  185.1420 O   0  0  0  0  0  0  0  0  0  0  0  0
  156.9178  141.9059  182.7423 H   0  0  0  0  0  0  0  0  0  0  0  0
  158.7203  142.3082  183.6721 C   0  0  0  0  0  0  0  0  0  0  0  0
  159.0238  143.0584  182.4085 C   0  0  0  0  0  0  0  0  0  0  0  0
  159.1323  142.4559  181.1385 N   0  0  0  0  0  0  0  0  0  0  0  0
  159.2043  144.3184  182.4316 O   0  0  0  0  0  0  0  0  0  0  0  0
  159.8164  141.7220  180.8617 H   0  0  0  0  0  0  0  0  0  0  0  0
  158.4582  142.7737  180.3903 H   0  0  0  0  0  0  0  0  0  0  0  0
  159.9821  141.9481  184.3450 C   0  0  0  0  0  0  0  0  0  0  0  0
  161.9377  142.5550  185.7666 C   0  0  0  0  0  0  0  0  0  0  0  0
  160.4655  142.8175  185.4626 C   0  0  0  0  0  0  0  0  0  0  0  0
  159.7400  142.3628  186.7523 C   0  0  0  0  0  0  0  0  0  0  0  0
  154.7462  141.2556  183.8367 C   0  0  0  0  0  0  0  0  0  0  0  0
  154.3423  141.7443  182.4815 C   0  0  0  0  0  0  0  0  0  0  0  0
  154.2918  143.2460  182.4913 C   0  0  0  0  0  0  0  0  0  0  0  0
  155.5015  143.9006  182.1564 N   0  0  0  0  0  0  0  0  0  0  0  0
  153.2800  143.8998  182.7674 O   0  0  0  0  0  0  0  0  0  0  0  0
  156.3752  143.3780  181.8646 H   0  0  0  0  0  0  0  0  0  0  0  0
  155.6384  144.9457  182.1679 H   0  0  0  0  0  0  0  0  0  0  0  0
  154.2760  136.2614  185.4885 N   0  0  0  0  0  0  0  0  0  0  0  0
  154.1814  134.9808  184.9009 C   0  0  0  0  0  0  0  0  0  0  0  0
  153.1854  134.7928  184.1230 O   0  0  0  0  0  0  0  0  0  0  0  0
  155.0970  136.4567  186.1237 H   0  0  0  0  0  0  0  0  0  0  0  0
  155.1682  133.8734  185.1451 C   0  0  0  0  0  0  0  0  0  0  0  0
  155.3062  133.5923  186.5291 N   0  0  0  0  0  0  0  0  0  0  0  0
  156.5394  133.4738  187.2457 C   0  0  0  0  0  0  0  0  0  0  0  0
  157.6067  133.6285  186.6235 O   0  0  0  0  0  0  0  0  0  0  0  0
  154.4315  133.4506  187.1165 H   0  0  0  0  0  0  0  0  0  0  0  0
  156.5801  133.1769  188.6870 C   0  0  0  0  0  0  0  0  0  0  0  0
  156.7557  131.7534  188.9429 N   0  0  0  0  0  0  0  0  0  0  0  0
  157.5228  131.3137  188.4282 H   0  0  0  0  0  0  0  0  0  0  0  0
  156.8172  131.5662  189.9739 H   0  0  0  0  0  0  0  0  0  0  0  0
  157.5471  134.0404  189.4263 C   0  0  0  0  0  0  0  0  0  0  0  0
  156.9252  135.2537  189.9453 C   0  0  0  0  0  0  0  0  0  0  0  0
  157.2206  136.4533  189.3323 C   0  0  0  0  0  0  0  0  0  0  0  0
  156.6657  137.6017  189.8405 C   0  0  0  0  0  0  0  0  0  0  0  0
  155.8318  137.5790  190.9373 C   0  0  0  0  0  0  0  0  0  0  0  0
  155.3023  138.7497  191.4053 O   0  0  0  0  0  0  0  0  0  0  0  0
  155.5501  136.3459  191.5424 C   0  0  0  0  0  0  0  0  0  0  0  0
  156.1070  135.1820  191.0339 C   0  0  0  0  0  0  0  0  0  0  0  0
  154.6856  138.7363  192.2038 H   0  0  0  0  0  0  0  0  0  0  0  0
  155.0305  132.7485  184.1941 C   0  0  0  0  0  0  0  0  0  0  0  0
  155.9207  132.7788  183.0151 C   0  0  0  0  0  0  0  0  0  0  0  0
  155.5484  133.4872  181.8629 C   0  0  0  0  0  0  0  0  0  0  0  0
  156.4286  133.4317  180.8068 C   0  0  0  0  0  0  0  0  0  0  0  0
  157.6211  132.7401  180.8157 C   0  0  0  0  0  0  0  0  0  0  0  0
  157.9791  132.0442  181.9626 C   0  0  0  0  0  0  0  0  0  0  0  0
  157.1018  132.0919  183.0294 C   0  0  0  0  0  0  0  0  0  0  0  0
  153.0036  138.0765  186.5209 C   0  0  0  0  0  0  0  0  0  0  0  0
  154.0024  137.6324  187.5984 C   0  0  0  0  0  0  0  0  0  0  0  0
  153.3809  136.6223  188.4557 C   0  0  0  0  0  0  0  0  0  0  0  0
  152.4273  136.9861  189.4315 N   0  0  0  0  0  0  0  0  0  0  0  0
  153.6935  135.4126  188.3294 O   0  0  0  0  0  0  0  0  0  0  0  0
  151.4668  137.2419  189.1233 H   0  0  0  0  0  0  0  0  0  0  0  0
  152.6383  137.0099  190.4436 H   0  0  0  0  0  0  0  0  0  0  0  0
 18 19  1  0  0  0
 19 20  1  0  0  0
 19 17  1  0  0  0
 17 11  1  0  0  0
 11  7  1  0  0  0
  7  8  1  0  0  0
  8  9  2  0  0  0
  8  6  1  0  0  0
  6 21  1  0  0  0
 21 22  1  0  0  0
 22 23  1  0  0  0
 23 24  1  0  0  0
 23 25  2  0  0  0
  6  2  1  0  0  0
  2  3  1  0  0  0
  3  4  2  0  0  0
  3  1  1  0  0  0
  1 57  1  0  0  0
 57 58  1  0  0  0
 58 59  1  0  0  0
 59 60  1  0  0  0
 59 61  2  0  0  0
  1 28  1  0  0  0
 28 29  1  0  0  0
 29 30  2  0  0  0
 29 32  1  0  0  0
 32 50  1  0  0  0
 50 51  1  0  0  0
 51 52  2  0  0  0
 52 53  1  0  0  0
 53 54  2  0  0  0
 54 55  1  0  0  0
 55 56  2  0  0  0
 32 33  1  0  0  0
 33 34  1  0  0  0
 34 35  2  0  0  0
 34 37  1  0  0  0
 37 38  1  0  0  0
 37 41  1  0  0  0
 41 42  1  0  0  0
 42 43  2  0  0  0
 43 44  1  0  0  0
 44 45  2  0  0  0
 45 46  1  0  0  0
 45 47  1  0  0  0
 47 48  2  0  0  0
 11 12  1  0  0  0
 12 13  1  0  0  0
 12 14  2  0  0  0
 56 51  1  0  0  0
 48 42  1  0  0  0
  7 10  1  0  0  0
 24 26  1  0  0  0
 24 27  1  0  0  0
  2  5  1  0  0  0
 60 62  1  0  0  0
 60 63  1  0  0  0
 28 31  1  0  0  0
 33 36  1  0  0  0
 38 39  1  0  0  0
 38 40  1  0  0  0
 46 49  1  0  0  0
 13 15  1  0  0  0
 13 16  1  0  0  0
M  END
> <minimizedAffinity>
-7.51708

> <CNNscore>
0.1439094394

> <CNNaffinity>
6.5372900963

> <CNN_VS>
0.9407777786

> <CNNaffinity_variance>
0.6660268903

$$$$
[H]Oc1c([H])c([H])c(C([H])([H])[C@@]([H])(C(=O)N([H])[C@]([H])(C(=O)N([H])[C@]([H])(C(=O)N([H])[C@]([H])(C(=O)N([H])[C@]([H])(C(=O)N([H])[H])C([H])([H])C([H])(C([H])([H])[H])C([H])([H])[H])C([H])([H])C([H])([H])C(=O)N([H])[H])C([H])([H])C([H])([H])C(=O)N([H])[H])C([H])([H])c2c([H])c([H])c([H])c([H])c2[H])N([H])[H])c([H])c1[H]


 63 64  0  0  0  0  0  0  0  0999 V2000
  154.0058  139.4816  184.4536 C   0  0  0  0  0  0  0  0  0  0  0  0
  156.0325  140.5034  183.3900 N   0  0  0  0  0  0  0  0  0  0  0  0
  155.4573  139.4096  184.0693 C   0  0  0  0  0  0  0  0  0  0  0  0
  156.0816  138.3717  184.3743 O   0  0  0  0  0  0  0  0  0  0  0  0
  155.4237  141.3603  183.1879 H   0  0  0  0  0  0  0  0  0  0  0  0
  157.3770  140.5862  182.9451 C   0  0  0  0  0  0  0  0  0  0  0  0
  158.9589  142.4013  183.6170 N   0  0  0  0  0  0  0  0  0  0  0  0
  158.3096  141.2387  183.9576 C   0  0  0  0  0  0  0  0  0  0  0  0
  158.3894  140.6360  185.0256 O   0  0  0  0  0  0  0  0  0  0  0  0
  158.6834  142.6992  182.5455 H   0  0  0  0  0  0  0  0  0  0  0  0
  159.8250  143.3474  184.1430 C   0  0  0  0  0  0  0  0  0  0  0  0
  159.8533  144.6341  183.3714 C   0  0  0  0  0  0  0  0  0  0  0  0
  160.6159  145.7607  183.7414 N   0  0  0  0  0  0  0  0  0  0  0  0
  159.1624  144.7676  182.3106 O   0  0  0  0  0  0  0  0  0  0  0  0
  160.5283  146.2994  184.6276 H   0  0  0  0  0  0  0  0  0  0  0  0
  161.3491  146.0969  183.0597 H   0  0  0  0  0  0  0  0  0  0  0  0
  161.1609  143.0844  184.7094 C   0  0  0  0  0  0  0  0  0  0  0  0
  162.6446  142.7013  186.6754 C   0  0  0  0  0  0  0  0  0  0  0  0
  161.3992  143.4097  186.1501 C   0  0  0  0  0  0  0  0  0  0  0  0
  160.2471  142.7754  186.9666 C   0  0  0  0  0  0  0  0  0  0  0  0
  157.3891  141.5849  181.7652 C   0  0  0  0  0  0  0  0  0  0  0  0
  158.5175  141.2726  180.8337 C   0  0  0  0  0  0  0  0  0  0  0  0
  158.5274  142.2749  179.7142 C   0  0  0  0  0  0  0  0  0  0  0  0
  159.4606  143.3310  179.8476 N   0  0  0  0  0  0  0  0  0  0  0  0
  157.7860  142.2134  178.7274 O   0  0  0  0  0  0  0  0  0  0  0  0
  160.1477  143.3917  180.6513 H   0  0  0  0  0  0  0  0  0  0  0  0
  159.5529  144.1357  179.1730 H   0  0  0  0  0  0  0  0  0  0  0  0
  153.1947  138.7069  183.5654 N   0  0  0  0  0  0  0  0  0  0  0  0
  152.6612  139.2043  182.3562 C   0  0  0  0  0  0  0  0  0  0  0  0
  152.9608  140.4118  182.0657 O   0  0  0  0  0  0  0  0  0  0  0  0
  152.9810  137.7063  183.8279 H   0  0  0  0  0  0  0  0  0  0  0  0
  151.7887  138.3999  181.4334 C   0  0  0  0  0  0  0  0  0  0  0  0
  150.9874  137.4725  182.1482 N   0  0  0  0  0  0  0  0  0  0  0  0
  151.3973  136.1778  182.6003 C   0  0  0  0  0  0  0  0  0  0  0  0
  152.5603  135.8042  182.3599 O   0  0  0  0  0  0  0  0  0  0  0  0
  149.9842  137.7327  182.3855 H   0  0  0  0  0  0  0  0  0  0  0  0
  150.4888  135.2834  183.3362 C   0  0  0  0  0  0  0  0  0  0  0  0
  150.9831  134.9899  184.6750 N   0  0  0  0  0  0  0  0  0  0  0  0
  151.2588  135.8089  185.2225 H   0  0  0  0  0  0  0  0  0  0  0  0
  150.3057  134.3800  185.1955 H   0  0  0  0  0  0  0  0  0  0  0  0
  149.0726  135.7535  183.3122 C   0  0  0  0  0  0  0  0  0  0  0  0
  148.6141  136.2046  184.6216 C   0  0  0  0  0  0  0  0  0  0  0  0
  147.9498  135.3039  185.4276 C   0  0  0  0  0  0  0  0  0  0  0  0
  147.4851  135.7348  186.6455 C   0  0  0  0  0  0  0  0  0  0  0  0
  147.6660  137.0327  187.0716 C   0  0  0  0  0  0  0  0  0  0  0  0
  147.1860  137.4136  188.2940 O   0  0  0  0  0  0  0  0  0  0  0  0
  148.3430  137.9281  186.2312 C   0  0  0  0  0  0  0  0  0  0  0  0
  148.8154  137.4993  184.9998 C   0  0  0  0  0  0  0  0  0  0  0  0
  147.3228  138.3611  188.6124 H   0  0  0  0  0  0  0  0  0  0  0  0
  151.1672  139.2107  180.3633 C   0  0  0  0  0  0  0  0  0  0  0  0
  149.7107  139.0414  180.1796 C   0  0  0  0  0  0  0  0  0  0  0  0
  148.8131  139.5240  181.1437 C   0  0  0  0  0  0  0  0  0  0  0  0
  147.4791  139.2923  180.8991 C   0  0  0  0  0  0  0  0  0  0  0  0
  146.9881  138.6324  179.7928 C   0  0  0  0  0  0  0  0  0  0  0  0
  147.8865  138.1610  178.8449 C   0  0  0  0  0  0  0  0  0  0  0  0
  149.2293  138.3870  179.0810 C   0  0  0  0  0  0  0  0  0  0  0  0
  153.9140  139.0258  185.8806 C   0  0  0  0  0  0  0  0  0  0  0  0
  152.9068  137.8685  185.9254 C   0  0  0  0  0  0  0  0  0  0  0  0
  153.5930  136.6372  186.3185 C   0  0  0  0  0  0  0  0  0  0  0  0
  153.8680  136.3615  187.6758 N   0  0  0  0  0  0  0  0  0  0  0  0
  153.9462  135.8082  185.4439 O   0  0  0  0  0  0  0  0  0  0  0  0
  153.0867  136.0633  188.2953 H   0  0  0  0  0  0  0  0  0  0  0  0
  154.8140  136.4409  188.0861 H   0  0  0  0  0  0  0  0  0  0  0  0
 18 19  1  0  0  0
 19 20  1  0  0  0
 19 17  1  0  0  0
 17 11  1  0  0  0
 11  7  1  0  0  0
  7  8  1  0  0  0
  8  9  2  0  0  0
  8  6  1  0  0  0
  6 21  1  0  0  0
 21 22  1  0  0  0
 22 23  1  0  0  0
 23 24  1  0  0  0
 23 25  2  0  0  0
  6  2  1  0  0  0
  2  3  1  0  0  0
  3  4  2  0  0  0
  3  1  1  0  0  0
  1 57  1  0  0  0
 57 58  1  0  0  0
 58 59  1  0  0  0
 59 60  1  0  0  0
 59 61  2  0  0  0
  1 28  1  0  0  0
 28 29  1  0  0  0
 29 30  2  0  0  0
 29 32  1  0  0  0
 32 50  1  0  0  0
 50 51  1  0  0  0
 51 52  2  0  0  0
 52 53  1  0  0  0
 53 54  2  0  0  0
 54 55  1  0  0  0
 55 56  2  0  0  0
 32 33  1  0  0  0
 33 34  1  0  0  0
 34 35  2  0  0  0
 34 37  1  0  0  0
 37 38  1  0  0  0
 37 41  1  0  0  0
 41 42  1  0  0  0
 42 43  2  0  0  0
 43 44  1  0  0  0
 44 45  2  0  0  0
 45 46  1  0  0  0
 45 47  1  0  0  0
 47 48  2  0  0  0
 11 12  1  0  0  0
 12 13  1  0  0  0
 12 14  2  0  0  0
 56 51  1  0  0  0
 48 42  1  0  0  0
  7 10  1  0  0  0
 24 26  1  0  0  0
 24 27  1  0  0  0
  2  5  1  0  0  0
 60 62  1  0  0  0
 60 63  1  0  0  0
 28 31  1  0  0  0
 33 36  1  0  0  0
 38 39  1  0  0  0
 38 40  1  0  0  0
 46 49  1  0  0  0
 13 15  1  0  0  0
 13 16  1  0  0  0
M  END
> <minimizedAffinity>
-7.95925

> <CNNscore>
0.1368966550

> <CNNaffinity>
6.7297859192

> <CNN_VS>
0.9212851524

> <CNNaffinity_variance>
0.1615513116

$$$$
[H]Oc1c([H])c([H])c(C([H])([H])[C@@]([H])(C(=O)N([H])[C@]([H])(C(=O)N([H])[C@]([H])(C(=O)N([H])[C@]([H])(C(=O)N([H])[C@]([H])(C(=O)N([H])[H])C([H])([H])C([H])(C([H])([H])[H])C([H])([H])[H])C([H])([H])C([H])([H])C(=O)N([H])[H])C([H])([H])C([H])([H])C(=O)N([H])[H])C([H])([H])c2c([H])c([H])c([H])c([H])c2[H])N([H])[H])c([H])c1[H]


 63 64  0  0  0  0  0  0  0  0999 V2000
  154.0277  136.9113  186.2454 C   0  0  0  0  0  0  0  0  0  0  0  0
  154.5733  137.1848  188.6765 N   0  0  0  0  0  0  0  0  0  0  0  0
  154.9050  137.4629  187.3344 C   0  0  0  0  0  0  0  0  0  0  0  0
  155.8904  138.1474  186.9870 O   0  0  0  0  0  0  0  0  0  0  0  0
  153.7195  136.5717  188.8782 H   0  0  0  0  0  0  0  0  0  0  0  0
  155.2846  137.6416  189.8158 C   0  0  0  0  0  0  0  0  0  0  0  0
  156.4834  135.4524  189.6791 N   0  0  0  0  0  0  0  0  0  0  0  0
  156.2333  136.5994  190.3941 C   0  0  0  0  0  0  0  0  0  0  0  0
  156.7033  136.9028  191.4882 O   0  0  0  0  0  0  0  0  0  0  0  0
  155.8811  135.4643  188.7045 H   0  0  0  0  0  0  0  0  0  0  0  0
  157.2361  134.2896  189.7337 C   0  0  0  0  0  0  0  0  0  0  0  0
  156.8512  133.3744  190.8590 C   0  0  0  0  0  0  0  0  0  0  0  0
  155.5203  133.0998  191.2342 N   0  0  0  0  0  0  0  0  0  0  0  0
  157.7448  132.7863  191.5491 O   0  0  0  0  0  0  0  0  0  0  0  0
  154.8180  133.7935  191.5643 H   0  0  0  0  0  0  0  0  0  0  0  0
  155.1961  132.0963  191.1776 H   0  0  0  0  0  0  0  0  0  0  0  0
  158.6851  134.1785  189.4837 C   0  0  0  0  0  0  0  0  0  0  0  0
  159.8616  132.5236  188.0377 C   0  0  0  0  0  0  0  0  0  0  0  0
  159.1454  133.8700  188.0939 C   0  0  0  0  0  0  0  0  0  0  0  0
  160.2546  134.8884  187.7348 C   0  0  0  0  0  0  0  0  0  0  0  0
  154.2408  137.8261  190.9411 C   0  0  0  0  0  0  0  0  0  0  0  0
  153.2130  136.7406  190.8774 C   0  0  0  0  0  0  0  0  0  0  0  0
  152.4775  136.6776  192.1862 C   0  0  0  0  0  0  0  0  0  0  0  0
  151.8619  135.4377  192.4824 N   0  0  0  0  0  0  0  0  0  0  0  0
  152.3948  137.6240  192.9765 O   0  0  0  0  0  0  0  0  0  0  0  0
  151.9520  134.5881  191.8566 H   0  0  0  0  0  0  0  0  0  0  0  0
  151.2701  135.2529  193.3349 H   0  0  0  0  0  0  0  0  0  0  0  0
  154.0993  137.7153  185.0641 N   0  0  0  0  0  0  0  0  0  0  0  0
  152.9992  137.9563  184.2122 C   0  0  0  0  0  0  0  0  0  0  0  0
  151.8911  137.4259  184.5632 O   0  0  0  0  0  0  0  0  0  0  0  0
  155.0270  138.1534  184.8129 H   0  0  0  0  0  0  0  0  0  0  0  0
  153.0776  138.7806  182.9575 C   0  0  0  0  0  0  0  0  0  0  0  0
  154.1272  139.7333  183.0229 N   0  0  0  0  0  0  0  0  0  0  0  0
  154.0661  141.0870  182.5622 C   0  0  0  0  0  0  0  0  0  0  0  0
  153.0056  141.4953  182.0536 O   0  0  0  0  0  0  0  0  0  0  0  0
  155.0587  139.4464  183.4475 H   0  0  0  0  0  0  0  0  0  0  0  0
  155.2136  142.0024  182.6727 C   0  0  0  0  0  0  0  0  0  0  0  0
  155.1209  142.8482  183.8555 N   0  0  0  0  0  0  0  0  0  0  0  0
  154.9285  142.3503  184.7282 H   0  0  0  0  0  0  0  0  0  0  0  0
  155.9639  143.4685  183.9354 H   0  0  0  0  0  0  0  0  0  0  0  0
  156.5246  141.3017  182.5409 C   0  0  0  0  0  0  0  0  0  0  0  0
  157.4556  142.0213  181.6785 C   0  0  0  0  0  0  0  0  0  0  0  0
  158.0060  143.1959  182.1470 C   0  0  0  0  0  0  0  0  0  0  0  0
  158.8544  143.8946  181.3242 C   0  0  0  0  0  0  0  0  0  0  0  0
  159.1612  143.4513  180.0560 C   0  0  0  0  0  0  0  0  0  0  0  0
  160.0132  144.1819  179.2747 O   0  0  0  0  0  0  0  0  0  0  0  0
  158.5858  142.2551  179.6042 C   0  0  0  0  0  0  0  0  0  0  0  0
  157.7282  141.5442  180.4304 C   0  0  0  0  0  0  0  0  0  0  0  0
  160.2458  143.8569  178.3483 H   0  0  0  0  0  0  0  0  0  0  0  0
  152.9080  137.9827  181.7232 C   0  0  0  0  0  0  0  0  0  0  0  0
  151.7791  138.3652  180.8497 C   0  0  0  0  0  0  0  0  0  0  0  0
  151.9230  139.4043  179.9183 C   0  0  0  0  0  0  0  0  0  0  0  0
  150.8077  139.7074  179.1718 C   0  0  0  0  0  0  0  0  0  0  0  0
  149.5921  139.0667  179.2830 C   0  0  0  0  0  0  0  0  0  0  0  0
  149.4628  138.0387  180.2073 C   0  0  0  0  0  0  0  0  0  0  0  0
  150.5765  137.7266  180.9638 C   0  0  0  0  0  0  0  0  0  0  0  0
  154.4627  135.4931  186.0175 C   0  0  0  0  0  0  0  0  0  0  0  0
  153.2613  134.5917  186.3335 C   0  0  0  0  0  0  0  0  0  0  0  0
  152.8982  133.8241  185.1416 C   0  0  0  0  0  0  0  0  0  0  0  0
  152.4238  134.4703  183.9791 N   0  0  0  0  0  0  0  0  0  0  0  0
  153.0064  132.5730  185.1429 O   0  0  0  0  0  0  0  0  0  0  0  0
  153.1013  134.9844  183.3792 H   0  0  0  0  0  0  0  0  0  0  0  0
  151.4302  134.4565  183.6928 H   0  0  0  0  0  0  0  0  0  0  0  0
 18 19  1  0  0  0
 19 20  1  0  0  0
 19 17  1  0  0  0
 17 11  1  0  0  0
 11  7  1  0  0  0
  7  8  1  0  0  0
  8  9  2  0  0  0
  8  6  1  0  0  0
  6 21  1  0  0  0
 21 22  1  0  0  0
 22 23  1  0  0  0
 23 24  1  0  0  0
 23 25  2  0  0  0
  6  2  1  0  0  0
  2  3  1  0  0  0
  3  4  2  0  0  0
  3  1  1  0  0  0
  1 57  1  0  0  0
 57 58  1  0  0  0
 58 59  1  0  0  0
 59 60  1  0  0  0
 59 61  2  0  0  0
  1 28  1  0  0  0
 28 29  1  0  0  0
 29 30  2  0  0  0
 29 32  1  0  0  0
 32 50  1  0  0  0
 50 51  1  0  0  0
 51 52  2  0  0  0
 52 53  1  0  0  0
 53 54  2  0  0  0
 54 55  1  0  0  0
 55 56  2  0  0  0
 32 33  1  0  0  0
 33 34  1  0  0  0
 34 35  2  0  0  0
 34 37  1  0  0  0
 37 38  1  0  0  0
 37 41  1  0  0  0
 41 42  1  0  0  0
 42 43  2  0  0  0
 43 44  1  0  0  0
 44 45  2  0  0  0
 45 46  1  0  0  0
 45 47  1  0  0  0
 47 48  2  0  0  0
 11 12  1  0  0  0
 12 13  1  0  0  0
 12 14  2  0  0  0
 56 51  1  0  0  0
 48 42  1  0  0  0
  7 10  1  0  0  0
 24 26  1  0  0  0
 24 27  1  0  0  0
  2  5  1  0  0  0
 60 62  1  0  0  0
 60 63  1  0  0  0
 28 31  1  0  0  0
 33 36  1  0  0  0
 38 39  1  0  0  0
 38 40  1  0  0  0
 46 49  1  0  0  0
 13 15  1  0  0  0
 13 16  1  0  0  0
M  END
> <minimizedAffinity>
-7.44933

> <CNNscore>
0.1312572360

> <CNNaffinity>
6.4361648560

> <CNN_VS>
0.8447932005

> <CNNaffinity_variance>
0.3930558562

$$$$
[H]Oc1c([H])c([H])c(C([H])([H])[C@@]([H])(C(=O)N([H])[C@]([H])(C(=O)N([H])[C@]([H])(C(=O)N([H])[C@]([H])(C(=O)N([H])[C@]([H])(C(=O)N([H])[H])C([H])([H])C([H])(C([H])([H])[H])C([H])([H])[H])C([H])([H])C([H])([H])C(=O)N([H])[H])C([H])([H])C([H])([H])C(=O)N([H])[H])C([H])([H])c2c([H])c([H])c([H])c([H])c2[H])N([H])[H])c([H])c1[H]


 63 64  0  0  0  0  0  0  0  0999 V2000
  153.5094  136.8853  187.1472 C   0  0  0  0  0  0  0  0  0  0  0  0
  154.0561  136.8689  189.5934 N   0  0  0  0  0  0  0  0  0  0  0  0
  154.3582  137.3435  188.3002 C   0  0  0  0  0  0  0  0  0  0  0  0
  155.2945  138.1305  188.0473 O   0  0  0  0  0  0  0  0  0  0  0  0
  153.2453  136.1803  189.7114 H   0  0  0  0  0  0  0  0  0  0  0  0
  154.7458  137.2159  190.7835 C   0  0  0  0  0  0  0  0  0  0  0  0
  156.1568  135.2150  190.2798 N   0  0  0  0  0  0  0  0  0  0  0  0
  155.9374  136.3132  191.0766 C   0  0  0  0  0  0  0  0  0  0  0  0
  156.6150  136.6746  192.0360 O   0  0  0  0  0  0  0  0  0  0  0  0
  155.3392  135.1470  189.4801 H   0  0  0  0  0  0  0  0  0  0  0  0
  157.0487  134.1677  190.1077 C   0  0  0  0  0  0  0  0  0  0  0  0
  156.9829  133.1348  191.1944 C   0  0  0  0  0  0  0  0  0  0  0  0
  155.8430  132.3538  191.4742 N   0  0  0  0  0  0  0  0  0  0  0  0
  157.9919  132.9133  191.9382 O   0  0  0  0  0  0  0  0  0  0  0  0
  154.9083  132.7097  191.7622 H   0  0  0  0  0  0  0  0  0  0  0  0
  155.9377  131.3058  191.3851 H   0  0  0  0  0  0  0  0  0  0  0  0
  158.4350  134.2772  189.6170 C   0  0  0  0  0  0  0  0  0  0  0  0
  158.0092  133.8829  187.1928 C   0  0  0  0  0  0  0  0  0  0  0  0
  158.6601  134.7928  188.2307 C   0  0  0  0  0  0  0  0  0  0  0  0
  160.1730  134.6674  187.9282 C   0  0  0  0  0  0  0  0  0  0  0  0
  153.7825  136.9134  191.9541 C   0  0  0  0  0  0  0  0  0  0  0  0
  152.3920  136.7085  191.4410 C   0  0  0  0  0  0  0  0  0  0  0  0
  151.4090  137.0459  192.5262 C   0  0  0  0  0  0  0  0  0  0  0  0
  151.8640  137.9696  193.4977 N   0  0  0  0  0  0  0  0  0  0  0  0
  150.2710  136.5694  192.5979 O   0  0  0  0  0  0  0  0  0  0  0  0
  152.8119  138.4388  193.4439 H   0  0  0  0  0  0  0  0  0  0  0  0
  151.3116  138.2666  194.3449 H   0  0  0  0  0  0  0  0  0  0  0  0
  153.8053  137.6250  185.9588 N   0  0  0  0  0  0  0  0  0  0  0  0
  152.8907  137.8018  184.8975 C   0  0  0  0  0  0  0  0  0  0  0  0
  151.7383  137.2736  185.0563 O   0  0  0  0  0  0  0  0  0  0  0  0
  154.7620  138.0636  185.8681 H   0  0  0  0  0  0  0  0  0  0  0  0
  153.2076  138.5578  183.6374 C   0  0  0  0  0  0  0  0  0  0  0  0
  154.4838  139.1744  183.7049 N   0  0  0  0  0  0  0  0  0  0  0  0
  154.7913  140.5187  183.3215 C   0  0  0  0  0  0  0  0  0  0  0  0
  153.8732  141.2383  182.8864 O   0  0  0  0  0  0  0  0  0  0  0  0
  155.3097  138.6125  184.0689 H   0  0  0  0  0  0  0  0  0  0  0  0
  156.1524  141.0693  183.4274 C   0  0  0  0  0  0  0  0  0  0  0  0
  156.1430  142.5225  183.5322 N   0  0  0  0  0  0  0  0  0  0  0  0
  155.5090  142.9002  184.2407 H   0  0  0  0  0  0  0  0  0  0  0  0
  157.1189  142.8932  183.6417 H   0  0  0  0  0  0  0  0  0  0  0  0
  156.9645  140.3995  184.4852 C   0  0  0  0  0  0  0  0  0  0  0  0
  158.3026  140.9685  184.6028 C   0  0  0  0  0  0  0  0  0  0  0  0
  159.1628  140.8428  183.5320 C   0  0  0  0  0  0  0  0  0  0  0  0
  160.4348  141.3452  183.6524 C   0  0  0  0  0  0  0  0  0  0  0  0
  160.8631  141.9629  184.8074 C   0  0  0  0  0  0  0  0  0  0  0  0
  162.1394  142.4486  184.8782 O   0  0  0  0  0  0  0  0  0  0  0  0
  159.9686  142.0750  185.8814 C   0  0  0  0  0  0  0  0  0  0  0  0
  158.6821  141.5700  185.7663 C   0  0  0  0  0  0  0  0  0  0  0  0
  162.4543  142.9078  185.7196 H   0  0  0  0  0  0  0  0  0  0  0  0
  152.8264  137.8289  182.4077 C   0  0  0  0  0  0  0  0  0  0  0  0
  151.8538  138.5049  181.5241 C   0  0  0  0  0  0  0  0  0  0  0  0
  152.2813  139.1215  180.3387 C   0  0  0  0  0  0  0  0  0  0  0  0
  151.3074  139.7507  179.5979 C   0  0  0  0  0  0  0  0  0  0  0  0
  149.9742  139.8082  179.9435 C   0  0  0  0  0  0  0  0  0  0  0  0
  149.5632  139.1926  181.1183 C   0  0  0  0  0  0  0  0  0  0  0  0
  150.5334  138.5586  181.8712 C   0  0  0  0  0  0  0  0  0  0  0  0
  153.7467  135.4111  186.9955 C   0  0  0  0  0  0  0  0  0  0  0  0
  152.5616  134.6891  187.6512 C   0  0  0  0  0  0  0  0  0  0  0  0
  153.0560  133.5863  188.4764 C   0  0  0  0  0  0  0  0  0  0  0  0
  152.9913  132.2520  188.0188 N   0  0  0  0  0  0  0  0  0  0  0  0
  153.5461  133.8197  189.6088 O   0  0  0  0  0  0  0  0  0  0  0  0
  153.6635  131.9392  187.2883 H   0  0  0  0  0  0  0  0  0  0  0  0
  152.3051  131.5664  188.3772 H   0  0  0  0  0  0  0  0  0  0  0  0
 18 19  1  0  0  0
 19 20  1  0  0  0
 19 17  1  0  0  0
 17 11  1  0  0  0
 11  7  1  0  0  0
  7  8  1  0  0  0
  8  9  2  0  0  0
  8  6  1  0  0  0
  6 21  1  0  0  0
 21 22  1  0  0  0
 22 23  1  0  0  0
 23 24  1  0  0  0
 23 25  2  0  0  0
  6  2  1  0  0  0
  2  3  1  0  0  0
  3  4  2  0  0  0
  3  1  1  0  0  0
  1 57  1  0  0  0
 57 58  1  0  0  0
 58 59  1  0  0  0
 59 60  1  0  0  0
 59 61  2  0  0  0
  1 28  1  0  0  0
 28 29  1  0  0  0
 29 30  2  0  0  0
 29 32  1  0  0  0
 32 50  1  0  0  0
 50 51  1  0  0  0
 51 52  2  0  0  0
 52 53  1  0  0  0
 53 54  2  0  0  0
 54 55  1  0  0  0
 55 56  2  0  0  0
 32 33  1  0  0  0
 33 34  1  0  0  0
 34 35  2  0  0  0
 34 37  1  0  0  0
 37 38  1  0  0  0
 37 41  1  0  0  0
 41 42  1  0  0  0
 42 43  2  0  0  0
 43 44  1  0  0  0
 44 45  2  0  0  0
 45 46  1  0  0  0
 45 47  1  0  0  0
 47 48  2  0  0  0
 11 12  1  0  0  0
 12 13  1  0  0  0
 12 14  2  0  0  0
 56 51  1  0  0  0
 48 42  1  0  0  0
  7 10  1  0  0  0
 24 26  1  0  0  0
 24 27  1  0  0  0
  2  5  1  0  0  0
 60 62  1  0  0  0
 60 63  1  0  0  0
 28 31  1  0  0  0
 33 36  1  0  0  0
 38 39  1  0  0  0
 38 40  1  0  0  0
 46 49  1  0  0  0
 13 15  1  0  0  0
 13 16  1  0  0  0
M  END
> <minimizedAffinity>
-7.49692

> <CNNscore>
0.1279650778

> <CNNaffinity>
6.4546079636

> <CNN_VS>
0.8259643912

> <CNNaffinity_variance>
0.4579141140

$$$$
[H]c1sc(N([H])C2([H])C([H])([H])C([H])([H])N(C(=O)c3c([H])c(OC([H])([H])[H])c(OC([H])([H])[H])c(OC([H])([H])[H])c3[H])C([H])([H])C2([H])[H])nc1-c1c([H])c([H])c(F)c(Cl)c1[H]


 35 38  0  0  0  0  0  0  0  0999 V2000
  151.4205  135.8865  188.2973 C   0  0  0  0  0  0  0  0  0  0  0  0
  150.2706  136.1153  187.7163 O   0  0  0  0  0  0  0  0  0  0  0  0
  152.5211  136.2103  187.5142 N   0  0  0  0  0  0  0  0  0  0  0  0
  152.2179  136.7621  186.1554 C   0  0  0  0  0  0  0  0  0  0  0  0
  152.8854  138.1230  186.1755 C   0  0  0  0  0  0  0  0  0  0  0  0
  154.3994  137.9662  186.1285 C   0  0  0  0  0  0  0  0  0  0  0  0
  154.8106  136.6192  186.6644 C   0  0  0  0  0  0  0  0  0  0  0  0
  153.9081  136.1082  187.7750 C   0  0  0  0  0  0  0  0  0  0  0  0
  151.0254  135.7876  191.9839 C   0  0  0  0  0  0  0  0  0  0  0  0
  151.1404  136.2363  190.7003 C   0  0  0  0  0  0  0  0  0  0  0  0
  151.3040  135.3471  189.6264 C   0  0  0  0  0  0  0  0  0  0  0  0
  151.3429  134.0028  189.9298 C   0  0  0  0  0  0  0  0  0  0  0  0
  151.2216  133.5791  191.2583 C   0  0  0  0  0  0  0  0  0  0  0  0
  151.0634  134.4508  192.2917 C   0  0  0  0  0  0  0  0  0  0  0  0
  151.9501  137.5072  193.3895 C   0  0  0  0  0  0  0  0  0  0  0  0
  150.8646  136.6894  193.0268 O   0  0  0  0  0  0  0  0  0  0  0  0
  151.2675  132.2175  191.5053 O   0  0  0  0  0  0  0  0  0  0  0  0
  150.1538  131.3826  191.3817 C   0  0  0  0  0  0  0  0  0  0  0  0
  150.9518  133.9467  193.5700 O   0  0  0  0  0  0  0  0  0  0  0  0
  149.6792  133.8371  194.1574 C   0  0  0  0  0  0  0  0  0  0  0  0
  154.8728  138.2158  184.7869 N   0  0  0  0  0  0  0  0  0  0  0  0
  154.7212  137.5174  184.0493 H   0  0  0  0  0  0  0  0  0  0  0  0
  155.5579  139.4321  184.4586 C   0  0  0  0  0  0  0  0  0  0  0  0
  156.8231  139.7354  184.6049 N   0  0  0  0  0  0  0  0  0  0  0  0
  157.2623  140.8973  184.2365 C   0  0  0  0  0  0  0  0  0  0  0  0
  156.3512  141.7733  183.6968 C   0  0  0  0  0  0  0  0  0  0  0  0
  154.9136  140.8515  183.7597 S   0  0  0  0  0  0  0  0  0  0  0  0
  158.6881  141.2812  184.3854 C   0  0  0  0  0  0  0  0  0  0  0  0
  159.6035  141.0589  183.3917 C   0  0  0  0  0  0  0  0  0  0  0  0
  160.9428  141.4297  183.5523 C   0  0  0  0  0  0  0  0  0  0  0  0
  161.3813  142.0272  184.7087 C   0  0  0  0  0  0  0  0  0  0  0  0
  162.6925  142.3950  184.8768 F   0  0  0  0  0  0  0  0  0  0  0  0
  160.4613  142.2517  185.7095 C   0  0  0  0  0  0  0  0  0  0  0  0
  161.0412  143.0146  187.1753 Cl  0  0  0  0  0  0  0  0  0  0  0  0
  159.1490  141.8815  185.5367 C   0  0  0  0  0  0  0  0  0  0  0  0
 15 16  1  0  0  0
 16  9  1  0  0  0
  9 10  2  0  0  0
 10 11  1  0  0  0
 11 12  2  0  0  0
 12 13  1  0  0  0
 13 17  1  0  0  0
 17 18  1  0  0  0
 13 14  2  0  0  0
 14 19  1  0  0  0
 19 20  1  0  0  0
 11  1  1  0  0  0
  1  2  2  0  0  0
  1  3  1  0  0  0
  3  4  1  0  0  0
  4  5  1  0  0  0
  5  6  1  0  0  0
  6  7  1  0  0  0
  7  8  1  0  0  0
  6 21  1  0  0  0
 21 23  1  0  0  0
 23 24  2  0  0  0
 24 25  1  0  0  0
 25 26  2  0  0  0
 26 27  1  0  0  0
 25 28  1  0  0  0
 28 29  2  0  0  0
 29 30  1  0  0  0
 30 31  2  0  0  0
 31 32  1  0  0  0
 31 33  1  0  0  0
 33 34  1  0  0  0
 33 35  2  0  0  0
 14  9  1  0  0  0
  8  3  1  0  0  0
 27 23  1  0  0  0
 35 28  1  0  0  0
 21 22  1  0  0  0
M  END
> <minimizedAffinity>
-7.17741

> <CNNscore>
0.3964904249

> <CNNaffinity>
6.1733045578

> <CNN_VS>
2.4476561546

> <CNNaffinity_variance>
0.0926375911

$$$$
[H]c1sc(N([H])C2([H])C([H])([H])C([H])([H])N(C(=O)c3c([H])c(OC([H])([H])[H])c(OC([H])([H])[H])c(OC([H])([H])[H])c3[H])C([H])([H])C2([H])[H])nc1-c1c([H])c([H])c(F)c(Cl)c1[H]


 35 38  0  0  0  0  0  0  0  0999 V2000
  153.9087  137.0976  190.2838 C   0  0  0  0  0  0  0  0  0  0  0  0
  155.0823  136.8612  190.8120 O   0  0  0  0  0  0  0  0  0  0  0  0
  153.9652  137.7036  189.0352 N   0  0  0  0  0  0  0  0  0  0  0  0
  155.3376  137.9810  188.5039 C   0  0  0  0  0  0  0  0  0  0  0  0
  155.3694  137.2070  187.2009 C   0  0  0  0  0  0  0  0  0  0  0  0
  154.4810  137.8840  186.1660 C   0  0  0  0  0  0  0  0  0  0  0  0
  153.4125  138.7058  186.8394 C   0  0  0  0  0  0  0  0  0  0  0  0
  152.9358  138.1169  188.1566 C   0  0  0  0  0  0  0  0  0  0  0  0
  150.5031  135.9587  191.2121 C   0  0  0  0  0  0  0  0  0  0  0  0
  151.5871  136.3598  190.4868 C   0  0  0  0  0  0  0  0  0  0  0  0
  152.8049  136.6801  191.1075 C   0  0  0  0  0  0  0  0  0  0  0  0
  152.8528  136.5707  192.4809 C   0  0  0  0  0  0  0  0  0  0  0  0
  151.7209  136.1561  193.1922 C   0  0  0  0  0  0  0  0  0  0  0  0
  150.5452  135.8480  192.5793 C   0  0  0  0  0  0  0  0  0  0  0  0
  149.3038  135.5350  189.1700 C   0  0  0  0  0  0  0  0  0  0  0  0
  149.3112  135.6481  190.5722 O   0  0  0  0  0  0  0  0  0  0  0  0
  151.8256  136.0639  194.5697 O   0  0  0  0  0  0  0  0  0  0  0  0
  152.3864  134.9609  195.2191 C   0  0  0  0  0  0  0  0  0  0  0  0
  149.4797  135.4479  193.3573 O   0  0  0  0  0  0  0  0  0  0  0  0
  149.2251  134.0749  193.5213 C   0  0  0  0  0  0  0  0  0  0  0  0
  155.2960  138.6472  185.2499 N   0  0  0  0  0  0  0  0  0  0  0  0
  156.3164  138.6696  185.3649 H   0  0  0  0  0  0  0  0  0  0  0  0
  154.7045  139.3831  184.1704 C   0  0  0  0  0  0  0  0  0  0  0  0
  153.7373  139.0321  183.3608 N   0  0  0  0  0  0  0  0  0  0  0  0
  153.3285  139.8474  182.4407 C   0  0  0  0  0  0  0  0  0  0  0  0
  153.9494  141.0710  182.3616 C   0  0  0  0  0  0  0  0  0  0  0  0
  155.0883  140.9578  183.6306 S   0  0  0  0  0  0  0  0  0  0  0  0
  152.2361  139.4887  181.5025 C   0  0  0  0  0  0  0  0  0  0  0  0
  152.1263  140.0676  180.2664 C   0  0  0  0  0  0  0  0  0  0  0  0
  151.0892  139.7140  179.3968 C   0  0  0  0  0  0  0  0  0  0  0  0
  150.1501  138.7773  179.7539 C   0  0  0  0  0  0  0  0  0  0  0  0
  149.1288  138.4230  178.9089 F   0  0  0  0  0  0  0  0  0  0  0  0
  150.2592  138.1939  180.9973 C   0  0  0  0  0  0  0  0  0  0  0  0
  149.0520  137.0022  181.4326 Cl  0  0  0  0  0  0  0  0  0  0  0  0
  151.2840  138.5520  181.8405 C   0  0  0  0  0  0  0  0  0  0  0  0
 15 16  1  0  0  0
 16  9  1  0  0  0
  9 10  2  0  0  0
 10 11  1  0  0  0
 11 12  2  0  0  0
 12 13  1  0  0  0
 13 17  1  0  0  0
 17 18  1  0  0  0
 13 14  2  0  0  0
 14 19  1  0  0  0
 19 20  1  0  0  0
 11  1  1  0  0  0
  1  2  2  0  0  0
  1  3  1  0  0  0
  3  4  1  0  0  0
  4  5  1  0  0  0
  5  6  1  0  0  0
  6  7  1  0  0  0
  7  8  1  0  0  0
  6 21  1  0  0  0
 21 23  1  0  0  0
 23 24  2  0  0  0
 24 25  1  0  0  0
 25 26  2  0  0  0
 26 27  1  0  0  0
 25 28  1  0  0  0
 28 29  2  0  0  0
 29 30  1  0  0  0
 30 31  2  0  0  0
 31 32  1  0  0  0
 31 33  1  0  0  0
 33 34  1  0  0  0
 33 35  2  0  0  0
 14  9  1  0  0  0
  8  3  1  0  0  0
 27 23  1  0  0  0
 35 28  1  0  0  0
 21 22  1  0  0  0
M  END
> <minimizedAffinity>
-7.96806

> <CNNscore>
0.3729265034

> <CNNaffinity>
5.9032130241

> <CNN_VS>
2.2014646530

> <CNNaffinity_variance>
0.1433596164

$$$$
[H]c1sc(N([H])C2([H])C([H])([H])C([H])([H])N(C(=O)c3c([H])c(OC([H])([H])[H])c(OC([H])([H])[H])c(OC([H])([H])[H])c3[H])C([H])([H])C2([H])[H])nc1-c1c([H])c([H])c(F)c(Cl)c1[H]


 35 38  0  0  0  0  0  0  0  0999 V2000
  153.7231  137.0594  190.1045 C   0  0  0  0  0  0  0  0  0  0  0  0
  154.8854  136.8430  190.6652 O   0  0  0  0  0  0  0  0  0  0  0  0
  153.8041  137.6620  188.8556 N   0  0  0  0  0  0  0  0  0  0  0  0
  155.1860  137.9588  188.3606 C   0  0  0  0  0  0  0  0  0  0  0  0
  155.2652  137.1809  187.0620 C   0  0  0  0  0  0  0  0  0  0  0  0
  154.3948  137.8405  186.0007 C   0  0  0  0  0  0  0  0  0  0  0  0
  153.2959  138.6480  186.6418 C   0  0  0  0  0  0  0  0  0  0  0  0
  152.7928  138.0563  187.9478 C   0  0  0  0  0  0  0  0  0  0  0  0
  151.7291  136.1705  193.1030 C   0  0  0  0  0  0  0  0  0  0  0  0
  152.7522  136.5725  192.2944 C   0  0  0  0  0  0  0  0  0  0  0  0
  152.6038  136.6277  190.8995 C   0  0  0  0  0  0  0  0  0  0  0  0
  151.3787  136.2572  190.3872 C   0  0  0  0  0  0  0  0  0  0  0  0
  150.3521  135.8502  191.2472 C   0  0  0  0  0  0  0  0  0  0  0  0
  150.5076  135.8007  192.5985 C   0  0  0  0  0  0  0  0  0  0  0  0
  152.4802  134.9774  195.0524 C   0  0  0  0  0  0  0  0  0  0  0  0
  151.9036  136.1254  194.4793 O   0  0  0  0  0  0  0  0  0  0  0  0
  149.1426  135.4892  190.6783 O   0  0  0  0  0  0  0  0  0  0  0  0
  149.0054  134.4121  189.7986 C   0  0  0  0  0  0  0  0  0  0  0  0
  149.4432  135.3876  193.3712 O   0  0  0  0  0  0  0  0  0  0  0  0
  149.2494  134.0134  193.5967 C   0  0  0  0  0  0  0  0  0  0  0  0
  155.2227  138.6131  185.1041 N   0  0  0  0  0  0  0  0  0  0  0  0
  156.2432  138.6161  185.2198 H   0  0  0  0  0  0  0  0  0  0  0  0
  154.6437  139.3853  184.0433 C   0  0  0  0  0  0  0  0  0  0  0  0
  153.6481  139.0844  183.2480 N   0  0  0  0  0  0  0  0  0  0  0  0
  153.2580  139.9265  182.3440 C   0  0  0  0  0  0  0  0  0  0  0  0
  153.9288  141.1234  182.2661 C   0  0  0  0  0  0  0  0  0  0  0  0
  155.0844  140.9481  183.5128 S   0  0  0  0  0  0  0  0  0  0  0  0
  152.1346  139.6246  181.4224 C   0  0  0  0  0  0  0  0  0  0  0  0
  152.1174  140.0801  180.1311 C   0  0  0  0  0  0  0  0  0  0  0  0
  151.0489  139.7830  179.2785 C   0  0  0  0  0  0  0  0  0  0  0  0
  149.9857  139.0269  179.7079 C   0  0  0  0  0  0  0  0  0  0  0  0
  148.9325  138.7294  178.8802 F   0  0  0  0  0  0  0  0  0  0  0  0
  150.0016  138.5677  181.0069 C   0  0  0  0  0  0  0  0  0  0  0  0
  148.6366  137.6055  181.5340 Cl  0  0  0  0  0  0  0  0  0  0  0  0
  151.0586  138.8683  181.8325 C   0  0  0  0  0  0  0  0  0  0  0  0
 15 16  1  0  0  0
 16  9  1  0  0  0
  9 10  2  0  0  0
 10 11  1  0  0  0
 11 12  2  0  0  0
 12 13  1  0  0  0
 13 17  1  0  0  0
 17 18  1  0  0  0
 13 14  2  0  0  0
 14 19  1  0  0  0
 19 20  1  0  0  0
 11  1  1  0  0  0
  1  2  2  0  0  0
  1  3  1  0  0  0
  3  4  1  0  0  0
  4  5  1  0  0  0
  5  6  1  0  0  0
  6  7  1  0  0  0
  7  8  1  0  0  0
  6 21  1  0  0  0
 21 23  1  0  0  0
 23 24  2  0  0  0
 24 25  1  0  0  0
 25 26  2  0  0  0
 26 27  1  0  0  0
 25 28  1  0  0  0
 28 29  2  0  0  0
 29 30  1  0  0  0
 30 31  2  0  0  0
 31 32  1  0  0  0
 31 33  1  0  0  0
 33 34  1  0  0  0
 33 35  2  0  0  0
 14  9  1  0  0  0
  8  3  1  0  0  0
 27 23  1  0  0  0
 35 28  1  0  0  0
 21 22  1  0  0  0
M  END
> <minimizedAffinity>
-7.90580

> <CNNscore>
0.3727796972

> <CNNaffinity>
5.8658957481

> <CNN_VS>
2.1866867542

> <CNNaffinity_variance>
0.1284781694

$$$$
[H]c1sc(N([H])C2([H])C([H])([H])C([H])([H])N(C(=O)c3c([H])c(OC([H])([H])[H])c(OC([H])([H])[H])c(OC([H])([H])[H])c3[H])C([H])([H])C2([H])[H])nc1-c1c([H])c([H])c(F)c(Cl)c1[H]


 35 38  0  0  0  0  0  0  0  0999 V2000
  155.1477  138.6810  185.0230 C   0  0  0  0  0  0  0  0  0  0  0  0
  155.8952  138.5593  186.0900 O   0  0  0  0  0  0  0  0  0  0  0  0
  154.0638  137.8128  184.9931 N   0  0  0  0  0  0  0  0  0  0  0  0
  153.9276  136.8953  186.1689 C   0  0  0  0  0  0  0  0  0  0  0  0
  152.5622  137.2451  186.7268 C   0  0  0  0  0  0  0  0  0  0  0  0
  151.4688  136.7389  185.7956 C   0  0  0  0  0  0  0  0  0  0  0  0
  151.9919  136.5988  184.3893 C   0  0  0  0  0  0  0  0  0  0  0  0
  153.0439  137.6342  184.0287 C   0  0  0  0  0  0  0  0  0  0  0  0
  157.4596  140.6400  182.8842 C   0  0  0  0  0  0  0  0  0  0  0  0
  156.9637  139.7090  183.7500 C   0  0  0  0  0  0  0  0  0  0  0  0
  155.6053  139.6891  184.1035 C   0  0  0  0  0  0  0  0  0  0  0  0
  154.7987  140.6525  183.5361 C   0  0  0  0  0  0  0  0  0  0  0  0
  155.3423  141.5917  182.6520 C   0  0  0  0  0  0  0  0  0  0  0  0
  156.6614  141.6011  182.3164 C   0  0  0  0  0  0  0  0  0  0  0  0
  159.7551  140.8852  183.5614 C   0  0  0  0  0  0  0  0  0  0  0  0
  158.8073  140.6363  182.5521 O   0  0  0  0  0  0  0  0  0  0  0  0
  154.4863  142.5363  182.1118 O   0  0  0  0  0  0  0  0  0  0  0  0
  153.7786  143.4567  182.8895 C   0  0  0  0  0  0  0  0  0  0  0  0
  157.1125  142.5626  181.4375 O   0  0  0  0  0  0  0  0  0  0  0  0
  157.6255  143.7701  181.9430 C   0  0  0  0  0  0  0  0  0  0  0  0
  150.9099  135.5154  186.3215 N   0  0  0  0  0  0  0  0  0  0  0  0
  151.1282  134.6163  185.8755 H   0  0  0  0  0  0  0  0  0  0  0  0
  150.0466  135.5287  187.4666 C   0  0  0  0  0  0  0  0  0  0  0  0
  150.3574  135.5155  188.7384 N   0  0  0  0  0  0  0  0  0  0  0  0
  149.4254  135.5407  189.6380 C   0  0  0  0  0  0  0  0  0  0  0  0
  148.1245  135.5810  189.1968 C   0  0  0  0  0  0  0  0  0  0  0  0
  148.3394  135.5796  187.5015 S   0  0  0  0  0  0  0  0  0  0  0  0
  149.7345  135.5264  191.0894 C   0  0  0  0  0  0  0  0  0  0  0  0
  149.1938  134.5939  191.9339 C   0  0  0  0  0  0  0  0  0  0  0  0
  149.4995  134.5976  193.2989 C   0  0  0  0  0  0  0  0  0  0  0  0
  150.3494  135.5341  193.8347 C   0  0  0  0  0  0  0  0  0  0  0  0
  150.6561  135.5470  195.1720 F   0  0  0  0  0  0  0  0  0  0  0  0
  150.8944  136.4731  192.9863 C   0  0  0  0  0  0  0  0  0  0  0  0
  151.9755  137.6578  193.6896 Cl  0  0  0  0  0  0  0  0  0  0  0  0
  150.5842  136.4564  191.6473 C   0  0  0  0  0  0  0  0  0  0  0  0
 15 16  1  0  0  0
 16  9  1  0  0  0
  9 10  2  0  0  0
 10 11  1  0  0  0
 11 12  2  0  0  0
 12 13  1  0  0  0
 13 17  1  0  0  0
 17 18  1  0  0  0
 13 14  2  0  0  0
 14 19  1  0  0  0
 19 20  1  0  0  0
 11  1  1  0  0  0
  1  2  2  0  0  0
  1  3  1  0  0  0
  3  4  1  0  0  0
  4  5  1  0  0  0
  5  6  1  0  0  0
  6  7  1  0  0  0
  7  8  1  0  0  0
  6 21  1  0  0  0
 21 23  1  0  0  0
 23 24  2  0  0  0
 24 25  1  0  0  0
 25 26  2  0  0  0
 26 27  1  0  0  0
 25 28  1  0  0  0
 28 29  2  0  0  0
 29 30  1  0  0  0
 30 31  2  0  0  0
 31 32  1  0  0  0
 31 33  1  0  0  0
 33 34  1  0  0  0
 33 35  2  0  0  0
 14  9  1  0  0  0
  8  3  1  0  0  0
 27 23  1  0  0  0
 35 28  1  0  0  0
 21 22  1  0  0  0
M  END
> <minimizedAffinity>
-7.42103

> <CNNscore>
0.3630507886

> <CNNaffinity>
6.0256824493

> <CNN_VS>
2.1876287460

> <CNNaffinity_variance>
0.1547223032

$$$$
[H]c1sc(N([H])C2([H])C([H])([H])C([H])([H])N(C(=O)c3c([H])c(OC([H])([H])[H])c(OC([H])([H])[H])c(OC([H])([H])[H])c3[H])C([H])([H])C2([H])[H])nc1-c1c([H])c([H])c(F)c(Cl)c1[H]


 35 38  0  0  0  0  0  0  0  0999 V2000
  155.4662  138.6908  185.1112 C   0  0  0  0  0  0  0  0  0  0  0  0
  156.1470  138.6291  186.2269 O   0  0  0  0  0  0  0  0  0  0  0  0
  154.3895  137.8148  185.0595 N   0  0  0  0  0  0  0  0  0  0  0  0
  154.1844  136.9578  186.2705 C   0  0  0  0  0  0  0  0  0  0  0  0
  152.7859  137.3262  186.7248 C   0  0  0  0  0  0  0  0  0  0  0  0
  151.7539  136.7656  185.7555 C   0  0  0  0  0  0  0  0  0  0  0  0
  152.3632  136.5573  184.3931 C   0  0  0  0  0  0  0  0  0  0  0  0
  153.4316  137.5801  184.0448 C   0  0  0  0  0  0  0  0  0  0  0  0
  155.4987  141.4952  182.6839 C   0  0  0  0  0  0  0  0  0  0  0  0
  155.0782  140.5592  183.5835 C   0  0  0  0  0  0  0  0  0  0  0  0
  155.9758  139.6537  184.1708 C   0  0  0  0  0  0  0  0  0  0  0  0
  157.2987  139.7549  183.7962 C   0  0  0  0  0  0  0  0  0  0  0  0
  157.6939  140.7275  182.8704 C   0  0  0  0  0  0  0  0  0  0  0  0
  156.8142  141.6004  182.3074 C   0  0  0  0  0  0  0  0  0  0  0  0
  153.9276  143.2971  182.9533 C   0  0  0  0  0  0  0  0  0  0  0  0
  154.5891  142.3782  182.1186 O   0  0  0  0  0  0  0  0  0  0  0  0
  159.0348  140.7840  182.5305 O   0  0  0  0  0  0  0  0  0  0  0  0
  160.0181  141.2841  183.3884 C   0  0  0  0  0  0  0  0  0  0  0  0
  157.2897  142.5270  181.4041 O   0  0  0  0  0  0  0  0  0  0  0  0
  157.6391  143.8116  181.8561 C   0  0  0  0  0  0  0  0  0  0  0  0
  151.1682  135.5667  186.3085 N   0  0  0  0  0  0  0  0  0  0  0  0
  151.3891  134.6504  185.9005 H   0  0  0  0  0  0  0  0  0  0  0  0
  150.2742  135.6288  187.4281 C   0  0  0  0  0  0  0  0  0  0  0  0
  150.5468  135.5981  188.7083 N   0  0  0  0  0  0  0  0  0  0  0  0
  149.5921  135.6758  189.5806 C   0  0  0  0  0  0  0  0  0  0  0  0
  148.3088  135.7894  189.1021 C   0  0  0  0  0  0  0  0  0  0  0  0
  148.5723  135.7759  187.4137 S   0  0  0  0  0  0  0  0  0  0  0  0
  149.8577  135.6441  191.0404 C   0  0  0  0  0  0  0  0  0  0  0  0
  149.2743  134.7157  191.8606 C   0  0  0  0  0  0  0  0  0  0  0  0
  149.5394  134.7027  193.2341 C   0  0  0  0  0  0  0  0  0  0  0  0
  150.3910  135.6182  193.8026 C   0  0  0  0  0  0  0  0  0  0  0  0
  150.6582  135.6147  195.1484 F   0  0  0  0  0  0  0  0  0  0  0  0
  150.9789  136.5530  192.9785 C   0  0  0  0  0  0  0  0  0  0  0  0
  152.0614  137.7107  193.7233 Cl  0  0  0  0  0  0  0  0  0  0  0  0
  150.7083  136.5528  191.6309 C   0  0  0  0  0  0  0  0  0  0  0  0
 15 16  1  0  0  0
 16  9  1  0  0  0
  9 10  2  0  0  0
 10 11  1  0  0  0
 11 12  2  0  0  0
 12 13  1  0  0  0
 13 17  1  0  0  0
 17 18  1  0  0  0
 13 14  2  0  0  0
 14 19  1  0  0  0
 19 20  1  0  0  0
 11  1  1  0  0  0
  1  2  2  0  0  0
  1  3  1  0  0  0
  3  4  1  0  0  0
  4  5  1  0  0  0
  5  6  1  0  0  0
  6  7  1  0  0  0
  7  8  1  0  0  0
  6 21  1  0  0  0
 21 23  1  0  0  0
 23 24  2  0  0  0
 24 25  1  0  0  0
 25 26  2  0  0  0
 26 27  1  0  0  0
 25 28  1  0  0  0
 28 29  2  0  0  0
 29 30  1  0  0  0
 30 31  2  0  0  0
 31 32  1  0  0  0
 31 33  1  0  0  0
 33 34  1  0  0  0
 33 35  2  0  0  0
 14  9  1  0  0  0
  8  3  1  0  0  0
 27 23  1  0  0  0
 35 28  1  0  0  0
 21 22  1  0  0  0
M  END
> <minimizedAffinity>
-7.41351

> <CNNscore>
0.3603479564

> <CNNaffinity>
6.0321722031

> <CNN_VS>
2.1736810207

> <CNNaffinity_variance>
0.1122629493

$$$$
[H]c1sc(N([H])C2([H])C([H])([H])C([H])([H])N(C(=O)c3c([H])c(OC([H])([H])[H])c(OC([H])([H])[H])c(OC([H])([H])[H])c3[H])C([H])([H])C2([H])[H])nc1-c1c([H])c([H])c(F)c(Cl)c1[H]


 35 38  0  0  0  0  0  0  0  0999 V2000
  152.4633  136.5039  188.4949 C   0  0  0  0  0  0  0  0  0  0  0  0
  151.2913  136.2481  187.9723 O   0  0  0  0  0  0  0  0  0  0  0  0
  153.3984  136.9696  187.5793 N   0  0  0  0  0  0  0  0  0  0  0  0
  152.9203  137.1037  186.1665 C   0  0  0  0  0  0  0  0  0  0  0  0
  153.1330  138.5740  185.8651 C   0  0  0  0  0  0  0  0  0  0  0  0
  154.6201  138.8730  185.7312 C   0  0  0  0  0  0  0  0  0  0  0  0
  155.4362  137.8575  186.4885 C   0  0  0  0  0  0  0  0  0  0  0  0
  154.7521  137.3465  187.7454 C   0  0  0  0  0  0  0  0  0  0  0  0
  151.3463  135.9062  191.9809 C   0  0  0  0  0  0  0  0  0  0  0  0
  151.3424  136.1456  190.6374 C   0  0  0  0  0  0  0  0  0  0  0  0
  152.5381  136.2489  189.9093 C   0  0  0  0  0  0  0  0  0  0  0  0
  153.7131  136.0977  190.6145 C   0  0  0  0  0  0  0  0  0  0  0  0
  153.6786  135.8530  191.9922 C   0  0  0  0  0  0  0  0  0  0  0  0
  152.5127  135.7547  192.6878 C   0  0  0  0  0  0  0  0  0  0  0  0
  149.3295  134.6857  192.4613 C   0  0  0  0  0  0  0  0  0  0  0  0
  150.1487  135.8089  192.6760 O   0  0  0  0  0  0  0  0  0  0  0  0
  154.8884  135.7094  192.6499 O   0  0  0  0  0  0  0  0  0  0  0  0
  156.1045  136.1373  192.1106 C   0  0  0  0  0  0  0  0  0  0  0  0
  152.5709  135.5119  194.0436 O   0  0  0  0  0  0  0  0  0  0  0  0
  152.4406  134.1928  194.5123 C   0  0  0  0  0  0  0  0  0  0  0  0
  154.9743  138.9630  184.3338 N   0  0  0  0  0  0  0  0  0  0  0  0
  154.5787  138.2977  183.6587 H   0  0  0  0  0  0  0  0  0  0  0  0
  155.8768  139.9731  183.8630 C   0  0  0  0  0  0  0  0  0  0  0  0
  157.1101  140.2173  184.2285 N   0  0  0  0  0  0  0  0  0  0  0  0
  157.7761  141.1807  183.6745 C   0  0  0  0  0  0  0  0  0  0  0  0
  157.1344  141.9151  182.7061 C   0  0  0  0  0  0  0  0  0  0  0  0
  155.6031  141.1575  182.6629 S   0  0  0  0  0  0  0  0  0  0  0  0
  159.1752  141.4912  184.0599 C   0  0  0  0  0  0  0  0  0  0  0  0
  160.2326  141.1929  183.2427 C   0  0  0  0  0  0  0  0  0  0  0  0
  161.5438  141.4953  183.6249 C   0  0  0  0  0  0  0  0  0  0  0  0
  161.8121  142.0996  184.8288 C   0  0  0  0  0  0  0  0  0  0  0  0
  163.0942  142.4007  185.2137 F   0  0  0  0  0  0  0  0  0  0  0  0
  160.7491  142.4005  185.6522 C   0  0  0  0  0  0  0  0  0  0  0  0
  161.1130  143.1709  187.1822 Cl  0  0  0  0  0  0  0  0  0  0  0  0
  159.4664  142.0970  185.2625 C   0  0  0  0  0  0  0  0  0  0  0  0
 15 16  1  0  0  0
 16  9  1  0  0  0
  9 10  2  0  0  0
 10 11  1  0  0  0
 11 12  2  0  0  0
 12 13  1  0  0  0
 13 17  1  0  0  0
 17 18  1  0  0  0
 13 14  2  0  0  0
 14 19  1  0  0  0
 19 20  1  0  0  0
 11  1  1  0  0  0
  1  2  2  0  0  0
  1  3  1  0  0  0
  3  4  1  0  0  0
  4  5  1  0  0  0
  5  6  1  0  0  0
  6  7  1  0  0  0
  7  8  1  0  0  0
  6 21  1  0  0  0
 21 23  1  0  0  0
 23 24  2  0  0  0
 24 25  1  0  0  0
 25 26  2  0  0  0
 26 27  1  0  0  0
 25 28  1  0  0  0
 28 29  2  0  0  0
 29 30  1  0  0  0
 30 31  2  0  0  0
 31 32  1  0  0  0
 31 33  1  0  0  0
 33 34  1  0  0  0
 33 35  2  0  0  0
 14  9  1  0  0  0
  8  3  1  0  0  0
 27 23  1  0  0  0
 35 28  1  0  0  0
 21 22  1  0  0  0
M  END
> <minimizedAffinity>
-7.57145

> <CNNscore>
0.2996768951

> <CNNaffinity>
6.3254146576

> <CNN_VS>
1.8955806494

> <CNNaffinity_variance>
0.0241762847

$$$$
[H]c1sc(N([H])C2([H])C([H])([H])C([H])([H])N(C(=O)c3c([H])c(OC([H])([H])[H])c(OC([H])([H])[H])c(OC([H])([H])[H])c3[H])C([H])([H])C2([H])[H])nc1-c1c([H])c([H])c(F)c(Cl)c1[H]


 35 38  0  0  0  0  0  0  0  0999 V2000
  153.3237  135.5917  187.5364 C   0  0  0  0  0  0  0  0  0  0  0  0
  153.0791  134.4730  186.9034 O   0  0  0  0  0  0  0  0  0  0  0  0
  153.8212  136.6017  186.7228 N   0  0  0  0  0  0  0  0  0  0  0  0
  153.9916  136.2526  185.2765 C   0  0  0  0  0  0  0  0  0  0  0  0
  153.1118  137.2638  184.5684 C   0  0  0  0  0  0  0  0  0  0  0  0
  153.7402  138.6490  184.6412 C   0  0  0  0  0  0  0  0  0  0  0  0
  154.6623  138.7520  185.8286 C   0  0  0  0  0  0  0  0  0  0  0  0
  154.2064  137.9299  187.0224 C   0  0  0  0  0  0  0  0  0  0  0  0
  153.8375  135.7815  191.2048 C   0  0  0  0  0  0  0  0  0  0  0  0
  154.0555  135.8141  189.8581 C   0  0  0  0  0  0  0  0  0  0  0  0
  153.0260  135.5415  188.9436 C   0  0  0  0  0  0  0  0  0  0  0  0
  151.7879  135.2398  189.4695 C   0  0  0  0  0  0  0  0  0  0  0  0
  151.6011  135.2157  190.8565 C   0  0  0  0  0  0  0  0  0  0  0  0
  152.6072  135.4819  191.7339 C   0  0  0  0  0  0  0  0  0  0  0  0
  156.1985  135.9888  191.6176 C   0  0  0  0  0  0  0  0  0  0  0  0
  154.8740  136.0554  192.0865 O   0  0  0  0  0  0  0  0  0  0  0  0
  150.3371  134.9067  191.3295 O   0  0  0  0  0  0  0  0  0  0  0  0
  149.3327  134.3657  190.5226 C   0  0  0  0  0  0  0  0  0  0  0  0
  152.3351  135.4359  193.0846 O   0  0  0  0  0  0  0  0  0  0  0  0
  151.9156  136.6058  193.7420 C   0  0  0  0  0  0  0  0  0  0  0  0
  154.3876  138.9559  183.3871 N   0  0  0  0  0  0  0  0  0  0  0  0
  154.5636  138.2104  182.7027 H   0  0  0  0  0  0  0  0  0  0  0  0
  154.7946  140.2946  183.0728 C   0  0  0  0  0  0  0  0  0  0  0  0
  155.8107  140.7046  182.3562 N   0  0  0  0  0  0  0  0  0  0  0  0
  156.0125  141.9715  182.1754 C   0  0  0  0  0  0  0  0  0  0  0  0
  155.1245  142.8412  182.7619 C   0  0  0  0  0  0  0  0  0  0  0  0
  154.0525  141.7609  183.5391 S   0  0  0  0  0  0  0  0  0  0  0  0
  157.1521  142.4782  181.3710 C   0  0  0  0  0  0  0  0  0  0  0  0
  157.6551  141.7758  180.3086 C   0  0  0  0  0  0  0  0  0  0  0  0
  158.7293  142.2723  179.5627 C   0  0  0  0  0  0  0  0  0  0  0  0
  159.3125  143.4771  179.8711 C   0  0  0  0  0  0  0  0  0  0  0  0
  160.3665  143.9735  179.1463 F   0  0  0  0  0  0  0  0  0  0  0  0
  158.8074  144.1851  180.9398 C   0  0  0  0  0  0  0  0  0  0  0  0
  159.5651  145.7185  181.3157 Cl  0  0  0  0  0  0  0  0  0  0  0  0
  157.7515  143.6838  181.6630 C   0  0  0  0  0  0  0  0  0  0  0  0
 15 16  1  0  0  0
 16  9  1  0  0  0
  9 10  2  0  0  0
 10 11  1  0  0  0
 11 12  2  0  0  0
 12 13  1  0  0  0
 13 17  1  0  0  0
 17 18  1  0  0  0
 13 14  2  0  0  0
 14 19  1  0  0  0
 19 20  1  0  0  0
 11  1  1  0  0  0
  1  2  2  0  0  0
  1  3  1  0  0  0
  3  4  1  0  0  0
  4  5  1  0  0  0
  5  6  1  0  0  0
  6  7  1  0  0  0
  7  8  1  0  0  0
  6 21  1  0  0  0
 21 23  1  0  0  0
 23 24  2  0  0  0
 24 25  1  0  0  0
 25 26  2  0  0  0
 26 27  1  0  0  0
 25 28  1  0  0  0
 28 29  2  0  0  0
 29 30  1  0  0  0
 30 31  2  0  0  0
 31 32  1  0  0  0
 31 33  1  0  0  0
 33 34  1  0  0  0
 33 35  2  0  0  0
 14  9  1  0  0  0
  8  3  1  0  0  0
 27 23  1  0  0  0
 35 28  1  0  0  0
 21 22  1  0  0  0
M  END
> <minimizedAffinity>
-6.93442

> <CNNscore>
0.2760113776

> <CNNaffinity>
6.0593504906

> <CNN_VS>
1.6724497080

> <CNNaffinity_variance>
0.2513477802

$$$$
[H]c1sc(N([H])C2([H])C([H])([H])C([H])([H])N(C(=O)c3c([H])c(OC([H])([H])[H])c(OC([H])([H])[H])c(OC([H])([H])[H])c3[H])C([H])([H])C2([H])[H])nc1-c1c([H])c([H])c(F)c(Cl)c1[H]


 35 38  0  0  0  0  0  0  0  0999 V2000
  154.1836  136.8601  190.6892 C   0  0  0  0  0  0  0  0  0  0  0  0
  155.2335  136.4705  191.3659 O   0  0  0  0  0  0  0  0  0  0  0  0
  154.4897  137.5421  189.5185 N   0  0  0  0  0  0  0  0  0  0  0  0
  155.9479  137.7157  189.2244 C   0  0  0  0  0  0  0  0  0  0  0  0
  156.1154  137.0343  187.8807 C   0  0  0  0  0  0  0  0  0  0  0  0
  155.4649  137.8673  186.7845 C   0  0  0  0  0  0  0  0  0  0  0  0
  154.3812  138.7443  187.3565 C   0  0  0  0  0  0  0  0  0  0  0  0
  153.6525  138.1169  188.5331 C   0  0  0  0  0  0  0  0  0  0  0  0
  151.7359  135.9644  193.3281 C   0  0  0  0  0  0  0  0  0  0  0  0
  152.8922  136.3077  192.6898 C   0  0  0  0  0  0  0  0  0  0  0  0
  152.9310  136.5003  191.2998 C   0  0  0  0  0  0  0  0  0  0  0  0
  151.7487  136.3262  190.6125 C   0  0  0  0  0  0  0  0  0  0  0  0
  150.5818  135.9740  191.3006 C   0  0  0  0  0  0  0  0  0  0  0  0
  150.5563  135.7899  192.6491 C   0  0  0  0  0  0  0  0  0  0  0  0
  152.3136  134.6182  195.2365 C   0  0  0  0  0  0  0  0  0  0  0  0
  151.7264  135.7802  194.7039 O   0  0  0  0  0  0  0  0  0  0  0  0
  149.4232  135.8123  190.5603 O   0  0  0  0  0  0  0  0  0  0  0  0
  149.4099  135.2606  189.2764 C   0  0  0  0  0  0  0  0  0  0  0  0
  149.3627  135.4438  193.2459 O   0  0  0  0  0  0  0  0  0  0  0  0
  149.0491  134.0842  193.4189 C   0  0  0  0  0  0  0  0  0  0  0  0
  156.4788  138.6059  186.0685 N   0  0  0  0  0  0  0  0  0  0  0  0
  157.4489  138.6079  186.4059 H   0  0  0  0  0  0  0  0  0  0  0  0
  156.1566  139.3452  184.8827 C   0  0  0  0  0  0  0  0  0  0  0  0
  156.8881  140.2032  184.2172 N   0  0  0  0  0  0  0  0  0  0  0  0
  156.4204  140.7698  183.1501 C   0  0  0  0  0  0  0  0  0  0  0  0
  155.1461  140.4305  182.7632 C   0  0  0  0  0  0  0  0  0  0  0  0
  154.7091  139.3087  183.9762 S   0  0  0  0  0  0  0  0  0  0  0  0
  157.2160  141.7480  182.3674 C   0  0  0  0  0  0  0  0  0  0  0  0
  157.2635  141.7105  180.9994 C   0  0  0  0  0  0  0  0  0  0  0  0
  158.0190  142.6431  180.2809 C   0  0  0  0  0  0  0  0  0  0  0  0
  158.7354  143.6237  180.9225 C   0  0  0  0  0  0  0  0  0  0  0  0
  159.4797  144.5434  180.2277 F   0  0  0  0  0  0  0  0  0  0  0  0
  158.6886  143.6628  182.2991 C   0  0  0  0  0  0  0  0  0  0  0  0
  159.6088  144.9209  183.0973 Cl  0  0  0  0  0  0  0  0  0  0  0  0
  157.9417  142.7393  182.9909 C   0  0  0  0  0  0  0  0  0  0  0  0
 15 16  1  0  0  0
 16  9  1  0  0  0
  9 10  2  0  0  0
 10 11  1  0  0  0
 11 12  2  0  0  0
 12 13  1  0  0  0
 13 17  1  0  0  0
 17 18  1  0  0  0
 13 14  2  0  0  0
 14 19  1  0  0  0
 19 20  1  0  0  0
 11  1  1  0  0  0
  1  2  2  0  0  0
  1  3  1  0  0  0
  3  4  1  0  0  0
  4  5  1  0  0  0
  5  6  1  0  0  0
  6  7  1  0  0  0
  7  8  1  0  0  0
  6 21  1  0  0  0
 21 23  1  0  0  0
 23 24  2  0  0  0
 24 25  1  0  0  0
 25 26  2  0  0  0
 26 27  1  0  0  0
 25 28  1  0  0  0
 28 29  2  0  0  0
 29 30  1  0  0  0
 30 31  2  0  0  0
 31 32  1  0  0  0
 31 33  1  0  0  0
 33 34  1  0  0  0
 33 35  2  0  0  0
 14  9  1  0  0  0
  8  3  1  0  0  0
 27 23  1  0  0  0
 35 28  1  0  0  0
 21 22  1  0  0  0
M  END
> <minimizedAffinity>
-8.05427

> <CNNscore>
0.2734607756

> <CNNaffinity>
6.0962514877

> <CNN_VS>
1.6670856476

> <CNNaffinity_variance>
0.0175026637

$$$$
[H]c1sc(N([H])C2([H])C([H])([H])C([H])([H])N(C(=O)c3c([H])c(OC([H])([H])[H])c(OC([H])([H])[H])c(OC([H])([H])[H])c3[H])C([H])([H])C2([H])[H])nc1-c1c([H])c([H])c(F)c(Cl)c1[H]


 35 38  0  0  0  0  0  0  0  0999 V2000
  153.1865  136.0903  187.1969 C   0  0  0  0  0  0  0  0  0  0  0  0
  154.3395  135.6096  186.8076 O   0  0  0  0  0  0  0  0  0  0  0  0
  152.3361  136.4289  186.1521 N   0  0  0  0  0  0  0  0  0  0  0  0
  152.8673  136.1903  184.7724 C   0  0  0  0  0  0  0  0  0  0  0  0
  151.8588  135.2307  184.1723 C   0  0  0  0  0  0  0  0  0  0  0  0
  150.5483  135.9536  183.8918 C   0  0  0  0  0  0  0  0  0  0  0  0
  150.4048  137.1588  184.7850 C   0  0  0  0  0  0  0  0  0  0  0  0
  151.0298  136.9729  186.1576 C   0  0  0  0  0  0  0  0  0  0  0  0
  153.8976  137.0220  190.7159 C   0  0  0  0  0  0  0  0  0  0  0  0
  153.9800  136.9113  189.3583 C   0  0  0  0  0  0  0  0  0  0  0  0
  153.0408  136.1676  188.6266 C   0  0  0  0  0  0  0  0  0  0  0  0
  152.0343  135.5560  189.3432 C   0  0  0  0  0  0  0  0  0  0  0  0
  151.9814  135.6915  190.7354 C   0  0  0  0  0  0  0  0  0  0  0  0
  152.8980  136.4155  191.4343 C   0  0  0  0  0  0  0  0  0  0  0  0
  156.1712  137.3098  191.4479 C   0  0  0  0  0  0  0  0  0  0  0  0
  154.8403  137.7640  191.4142 O   0  0  0  0  0  0  0  0  0  0  0  0
  150.9490  135.0561  191.4041 O   0  0  0  0  0  0  0  0  0  0  0  0
  149.6295  135.0550  190.9439 C   0  0  0  0  0  0  0  0  0  0  0  0
  152.7702  136.4963  192.8046 O   0  0  0  0  0  0  0  0  0  0  0  0
  152.0186  137.5442  193.3647 C   0  0  0  0  0  0  0  0  0  0  0  0
  150.4593  136.2713  182.4856 N   0  0  0  0  0  0  0  0  0  0  0  0
  150.0247  135.6066  181.8342 H   0  0  0  0  0  0  0  0  0  0  0  0
  150.9707  137.5092  181.9731 C   0  0  0  0  0  0  0  0  0  0  0  0
  151.9235  138.2716  182.4476 N   0  0  0  0  0  0  0  0  0  0  0  0
  152.2543  139.3620  181.8312 C   0  0  0  0  0  0  0  0  0  0  0  0
  151.5683  139.6686  180.6805 C   0  0  0  0  0  0  0  0  0  0  0  0
  150.4856  138.3512  180.5681 S   0  0  0  0  0  0  0  0  0  0  0  0
  153.3277  140.2543  182.3354 C   0  0  0  0  0  0  0  0  0  0  0  0
  153.3709  141.5848  182.0148 C   0  0  0  0  0  0  0  0  0  0  0  0
  154.3912  142.4086  182.5019 C   0  0  0  0  0  0  0  0  0  0  0  0
  155.3797  141.9108  183.3153 C   0  0  0  0  0  0  0  0  0  0  0  0
  156.3850  142.7096  183.7987 F   0  0  0  0  0  0  0  0  0  0  0  0
  155.3375  140.5721  183.6389 C   0  0  0  0  0  0  0  0  0  0  0  0
  156.6070  139.9578  184.6771 Cl  0  0  0  0  0  0  0  0  0  0  0  0
  154.3286  139.7756  183.1522 C   0  0  0  0  0  0  0  0  0  0  0  0
 15 16  1  0  0  0
 16  9  1  0  0  0
  9 10  2  0  0  0
 10 11  1  0  0  0
 11 12  2  0  0  0
 12 13  1  0  0  0
 13 17  1  0  0  0
 17 18  1  0  0  0
 13 14  2  0  0  0
 14 19  1  0  0  0
 19 20  1  0  0  0
 11  1  1  0  0  0
  1  2  2  0  0  0
  1  3  1  0  0  0
  3  4  1  0  0  0
  4  5  1  0  0  0
  5  6  1  0  0  0
  6  7  1  0  0  0
  7  8  1  0  0  0
  6 21  1  0  0  0
 21 23  1  0  0  0
 23 24  2  0  0  0
 24 25  1  0  0  0
 25 26  2  0  0  0
 26 27  1  0  0  0
 25 28  1  0  0  0
 28 29  2  0  0  0
 29 30  1  0  0  0
 30 31  2  0  0  0
 31 32  1  0  0  0
 31 33  1  0  0  0
 33 34  1  0  0  0
 33 35  2  0  0  0
 14  9  1  0  0  0
  8  3  1  0  0  0
 27 23  1  0  0  0
 35 28  1  0  0  0
 21 22  1  0  0  0
M  END
> <minimizedAffinity>
-6.59975

> <CNNscore>
0.2714775503

> <CNNaffinity>
6.0783314705

> <CNN_VS>
1.6501305103

> <CNNaffinity_variance>
0.1272717416

$$$$
[H]ON([H])C(=O)C([H])([H])N(C([H])([H])c1c([H])c([H])c(C(F)(F)F)c([H])c1[H])S(=O)(=O)c1c([H])c([H])c(OC([H])([H])[H])c([H])c1[H]


 30 31  0  0  0  0  0  0  0  0999 V2000
  156.9032  141.3992  183.1830 N   0  0  0  0  0  0  0  0  0  0  0  0
  157.9926  140.5714  184.1346 S   0  0  0  0  0  0  0  0  0  0  0  0
  158.6858  139.4371  183.3637 O   0  0  0  0  0  0  0  0  0  0  0  0
  157.2284  139.8363  185.2457 O   0  0  0  0  0  0  0  0  0  0  0  0
  161.3870  142.6882  186.2757 C   0  0  0  0  0  0  0  0  0  0  0  0
  161.5157  142.2742  184.9636 C   0  0  0  0  0  0  0  0  0  0  0  0
  160.4909  141.6701  184.2890 C   0  0  0  0  0  0  0  0  0  0  0  0
  159.2429  141.4463  184.9148 C   0  0  0  0  0  0  0  0  0  0  0  0
  159.1512  141.8801  186.2146 C   0  0  0  0  0  0  0  0  0  0  0  0
  160.1844  142.4932  186.9133 C   0  0  0  0  0  0  0  0  0  0  0  0
  163.3892  142.5947  187.7177 C   0  0  0  0  0  0  0  0  0  0  0  0
  162.4664  143.2771  186.9255 O   0  0  0  0  0  0  0  0  0  0  0  0
  156.8330  140.9628  181.7850 C   0  0  0  0  0  0  0  0  0  0  0  0
  157.6262  141.8400  180.9216 C   0  0  0  0  0  0  0  0  0  0  0  0
  158.1013  142.9216  181.3455 O   0  0  0  0  0  0  0  0  0  0  0  0
  157.8866  141.5039  179.5901 N   0  0  0  0  0  0  0  0  0  0  0  0
  158.6227  142.3307  178.7662 O   0  0  0  0  0  0  0  0  0  0  0  0
  157.5377  140.6382  179.1668 H   0  0  0  0  0  0  0  0  0  0  0  0
  159.5625  142.3817  179.1078 H   0  0  0  0  0  0  0  0  0  0  0  0
  155.6006  141.5449  183.7326 C   0  0  0  0  0  0  0  0  0  0  0  0
  154.5224  140.7320  183.1568 C   0  0  0  0  0  0  0  0  0  0  0  0
  153.7312  141.3463  182.1883 C   0  0  0  0  0  0  0  0  0  0  0  0
  152.6753  140.7324  181.5934 C   0  0  0  0  0  0  0  0  0  0  0  0
  152.3284  139.4321  181.9334 C   0  0  0  0  0  0  0  0  0  0  0  0
  153.1118  138.8176  182.8950 C   0  0  0  0  0  0  0  0  0  0  0  0
  154.1906  139.4715  183.4911 C   0  0  0  0  0  0  0  0  0  0  0  0
  151.1699  138.7968  181.3197 C   0  0  0  0  0  0  0  0  0  0  0  0
  151.2418  137.4409  181.3543 F   0  0  0  0  0  0  0  0  0  0  0  0
  151.0770  139.2117  179.9924 F   0  0  0  0  0  0  0  0  0  0  0  0
  149.9645  139.1665  181.9713 F   0  0  0  0  0  0  0  0  0  0  0  0
 11 12  1  0  0  0
 12  5  1  0  0  0
  5  6  2  0  0  0
  6  7  1  0  0  0
  7  8  2  0  0  0
  8  9  1  0  0  0
  9 10  2  0  0  0
  8  2  1  0  0  0
  2  3  2  0  0  0
  2  4  2  0  0  0
  2  1  1  0  0  0
  1 13  1  0  0  0
 13 14  1  0  0  0
 14 15  2  0  0  0
 14 16  1  0  0  0
 16 17  1  0  0  0
  1 20  1  0  0  0
 20 21  1  0  0  0
 21 22  2  0  0  0
 22 23  1  0  0  0
 23 24  2  0  0  0
 24 25  1  0  0  0
 25 26  2  0  0  0
 24 27  1  0  0  0
 27 28  1  0  0  0
 27 29  1  0  0  0
 27 30  1  0  0  0
 10  5  1  0  0  0
 26 21  1  0  0  0
 16 18  1  0  0  0
 17 19  1  0  0  0
M  END
> <minimizedAffinity>
-9.31579

> <CNNscore>
0.6539550424

> <CNNaffinity>
6.5884246826

> <CNN_VS>
4.3085336685

> <CNNaffinity_variance>
0.0954033285

$$$$
[H]ON([H])C(=O)C([H])([H])N(C([H])([H])c1c([H])c([H])c(C(F)(F)F)c([H])c1[H])S(=O)(=O)c1c([H])c([H])c(OC([H])([H])[H])c([H])c1[H]


 30 31  0  0  0  0  0  0  0  0999 V2000
  156.2959  139.5515  184.1786 N   0  0  0  0  0  0  0  0  0  0  0  0
  157.6438  140.1758  183.4231 S   0  0  0  0  0  0  0  0  0  0  0  0
  157.2728  141.1639  182.3062 O   0  0  0  0  0  0  0  0  0  0  0  0
  158.3675  139.0452  182.6770 O   0  0  0  0  0  0  0  0  0  0  0  0
  160.7280  142.4526  185.8504 C   0  0  0  0  0  0  0  0  0  0  0  0
  159.4724  142.1824  186.3606 C   0  0  0  0  0  0  0  0  0  0  0  0
  158.5433  141.4640  185.6601 C   0  0  0  0  0  0  0  0  0  0  0  0
  158.8362  140.9601  184.3719 C   0  0  0  0  0  0  0  0  0  0  0  0
  160.0965  141.2411  183.9039 C   0  0  0  0  0  0  0  0  0  0  0  0
  161.0499  141.9715  184.6031 C   0  0  0  0  0  0  0  0  0  0  0  0
  162.8303  142.7279  187.1158 C   0  0  0  0  0  0  0  0  0  0  0  0
  161.6298  143.2075  186.5926 O   0  0  0  0  0  0  0  0  0  0  0  0
  156.5194  139.0303  185.5307 C   0  0  0  0  0  0  0  0  0  0  0  0
  155.4179  138.1591  185.9454 C   0  0  0  0  0  0  0  0  0  0  0  0
  155.0443  137.1927  185.2370 O   0  0  0  0  0  0  0  0  0  0  0  0
  154.7408  138.3703  187.1497 N   0  0  0  0  0  0  0  0  0  0  0  0
  153.6936  137.5617  187.5420 O   0  0  0  0  0  0  0  0  0  0  0  0
  154.9846  139.1351  187.7869 H   0  0  0  0  0  0  0  0  0  0  0  0
  154.0385  136.6366  187.7095 H   0  0  0  0  0  0  0  0  0  0  0  0
  155.1383  140.3754  184.1400 C   0  0  0  0  0  0  0  0  0  0  0  0
  154.1024  140.0506  183.1521 C   0  0  0  0  0  0  0  0  0  0  0  0
  153.7970  141.0434  182.2235 C   0  0  0  0  0  0  0  0  0  0  0  0
  152.8363  140.9013  181.2734 C   0  0  0  0  0  0  0  0  0  0  0  0
  152.0967  139.7301  181.1837 C   0  0  0  0  0  0  0  0  0  0  0  0
  152.3967  138.7407  182.1041 C   0  0  0  0  0  0  0  0  0  0  0  0
  153.3882  138.9130  183.0705 C   0  0  0  0  0  0  0  0  0  0  0  0
  151.0411  139.6028  180.1879 C   0  0  0  0  0  0  0  0  0  0  0  0
  151.3650  140.1943  179.0088 F   0  0  0  0  0  0  0  0  0  0  0  0
  149.8782  140.1891  180.6842 F   0  0  0  0  0  0  0  0  0  0  0  0
  150.7502  138.2428  179.9051 F   0  0  0  0  0  0  0  0  0  0  0  0
 11 12  1  0  0  0
 12  5  1  0  0  0
  5  6  2  0  0  0
  6  7  1  0  0  0
  7  8  2  0  0  0
  8  9  1  0  0  0
  9 10  2  0  0  0
  8  2  1  0  0  0
  2  3  2  0  0  0
  2  4  2  0  0  0
  2  1  1  0  0  0
  1 13  1  0  0  0
 13 14  1  0  0  0
 14 15  2  0  0  0
 14 16  1  0  0  0
 16 17  1  0  0  0
  1 20  1  0  0  0
 20 21  1  0  0  0
 21 22  2  0  0  0
 22 23  1  0  0  0
 23 24  2  0  0  0
 24 25  1  0  0  0
 25 26  2  0  0  0
 24 27  1  0  0  0
 27 28  1  0  0  0
 27 29  1  0  0  0
 27 30  1  0  0  0
 10  5  1  0  0  0
 26 21  1  0  0  0
 16 18  1  0  0  0
 17 19  1  0  0  0
M  END
> <minimizedAffinity>
-7.97618

> <CNNscore>
0.4865823984

> <CNNaffinity>
5.8017625809

> <CNN_VS>
2.8230354786

> <CNNaffinity_variance>
0.2686263621

$$$$
[H]ON([H])C(=O)C([H])([H])N(C([H])([H])c1c([H])c([H])c(C(F)(F)F)c([H])c1[H])S(=O)(=O)c1c([H])c([H])c(OC([H])([H])[H])c([H])c1[H]


 30 31  0  0  0  0  0  0  0  0999 V2000
  156.0265  139.9592  184.0532 N   0  0  0  0  0  0  0  0  0  0  0  0
  155.4287  141.1368  183.0367 S   0  0  0  0  0  0  0  0  0  0  0  0
  154.4723  142.0948  183.7640 O   0  0  0  0  0  0  0  0  0  0  0  0
  154.5369  140.4757  181.9754 O   0  0  0  0  0  0  0  0  0  0  0  0
  158.5210  143.6670  180.8865 C   0  0  0  0  0  0  0  0  0  0  0  0
  158.1229  142.4427  180.3843 C   0  0  0  0  0  0  0  0  0  0  0  0
  157.1641  141.6838  180.9967 C   0  0  0  0  0  0  0  0  0  0  0  0
  156.5323  142.1298  182.1803 C   0  0  0  0  0  0  0  0  0  0  0  0
  156.9479  143.3546  182.6424 C   0  0  0  0  0  0  0  0  0  0  0  0
  157.9222  144.1355  182.0322 C   0  0  0  0  0  0  0  0  0  0  0  0
  160.0271  144.0916  178.9765 C   0  0  0  0  0  0  0  0  0  0  0  0
  159.5168  144.3906  180.2395 O   0  0  0  0  0  0  0  0  0  0  0  0
  155.1335  138.8200  184.2871 C   0  0  0  0  0  0  0  0  0  0  0  0
  154.8957  138.6257  185.7189 C   0  0  0  0  0  0  0  0  0  0  0  0
  155.8282  138.3246  186.5032 O   0  0  0  0  0  0  0  0  0  0  0  0
  153.6184  138.7708  186.2677 N   0  0  0  0  0  0  0  0  0  0  0  0
  153.3834  138.5773  187.6136 O   0  0  0  0  0  0  0  0  0  0  0  0
  152.8034  139.0173  185.6973 H   0  0  0  0  0  0  0  0  0  0  0  0
  153.8656  139.2828  188.1355 H   0  0  0  0  0  0  0  0  0  0  0  0
  157.3455  139.5158  183.7642 C   0  0  0  0  0  0  0  0  0  0  0  0
  158.4614  140.3630  184.2023 C   0  0  0  0  0  0  0  0  0  0  0  0
  158.3238  140.9772  185.4453 C   0  0  0  0  0  0  0  0  0  0  0  0
  159.2564  141.8169  185.9659 C   0  0  0  0  0  0  0  0  0  0  0  0
  160.4178  142.1082  185.2638 C   0  0  0  0  0  0  0  0  0  0  0  0
  160.5591  141.5001  184.0284 C   0  0  0  0  0  0  0  0  0  0  0  0
  159.5851  140.6421  183.5165 C   0  0  0  0  0  0  0  0  0  0  0  0
  161.3927  143.0415  185.8122 C   0  0  0  0  0  0  0  0  0  0  0  0
  161.1140  143.3898  187.0951 F   0  0  0  0  0  0  0  0  0  0  0  0
  161.4107  144.1912  185.0246 F   0  0  0  0  0  0  0  0  0  0  0  0
  162.7022  142.4943  185.8045 F   0  0  0  0  0  0  0  0  0  0  0  0
 11 12  1  0  0  0
 12  5  1  0  0  0
  5  6  2  0  0  0
  6  7  1  0  0  0
  7  8  2  0  0  0
  8  9  1  0  0  0
  9 10  2  0  0  0
  8  2  1  0  0  0
  2  3  2  0  0  0
  2  4  2  0  0  0
  2  1  1  0  0  0
  1 13  1  0  0  0
 13 14  1  0  0  0
 14 15  2  0  0  0
 14 16  1  0  0  0
 16 17  1  0  0  0
  1 20  1  0  0  0
 20 21  1  0  0  0
 21 22  2  0  0  0
 22 23  1  0  0  0
 23 24  2  0  0  0
 24 25  1  0  0  0
 25 26  2  0  0  0
 24 27  1  0  0  0
 27 28  1  0  0  0
 27 29  1  0  0  0
 27 30  1  0  0  0
 10  5  1  0  0  0
 26 21  1  0  0  0
 16 18  1  0  0  0
 17 19  1  0  0  0
M  END
> <minimizedAffinity>
-8.49876

> <CNNscore>
0.4002084732

> <CNNaffinity>
6.2499699593

> <CNN_VS>
2.5012910366

> <CNNaffinity_variance>
0.1070985422

$$$$
[H]ON([H])C(=O)C([H])([H])N(C([H])([H])c1c([H])c([H])c(C(F)(F)F)c([H])c1[H])S(=O)(=O)c1c([H])c([H])c(OC([H])([H])[H])c([H])c1[H]


 30 31  0  0  0  0  0  0  0  0999 V2000
  157.4462  141.0058  182.8369 N   0  0  0  0  0  0  0  0  0  0  0  0
  156.0497  140.8630  183.7351 S   0  0  0  0  0  0  0  0  0  0  0  0
  155.6634  142.1862  184.4144 O   0  0  0  0  0  0  0  0  0  0  0  0
  156.3090  139.9152  184.9155 O   0  0  0  0  0  0  0  0  0  0  0  0
  152.1604  139.4632  181.8639 C   0  0  0  0  0  0  0  0  0  0  0  0
  152.7688  140.6358  181.4585 C   0  0  0  0  0  0  0  0  0  0  0  0
  153.9607  141.0542  181.9824 C   0  0  0  0  0  0  0  0  0  0  0  0
  154.6270  140.2915  182.9690 C   0  0  0  0  0  0  0  0  0  0  0  0
  153.9960  139.1289  183.3383 C   0  0  0  0  0  0  0  0  0  0  0  0
  152.7842  138.6924  182.8165 C   0  0  0  0  0  0  0  0  0  0  0  0
  150.2750  139.7826  180.3018 C   0  0  0  0  0  0  0  0  0  0  0  0
  150.9365  139.0926  181.3172 O   0  0  0  0  0  0  0  0  0  0  0  0
  157.7849  142.3689  182.4162 C   0  0  0  0  0  0  0  0  0  0  0  0
  157.8554  142.4648  180.9567 C   0  0  0  0  0  0  0  0  0  0  0  0
  158.3081  143.4882  180.3883 O   0  0  0  0  0  0  0  0  0  0  0  0
  157.4221  141.4168  180.1397 N   0  0  0  0  0  0  0  0  0  0  0  0
  157.4734  141.5040  178.7635 O   0  0  0  0  0  0  0  0  0  0  0  0
  157.0415  140.5461  180.5237 H   0  0  0  0  0  0  0  0  0  0  0  0
  158.4307  141.5511  178.4734 H   0  0  0  0  0  0  0  0  0  0  0  0
  158.5853  140.3444  183.3708 C   0  0  0  0  0  0  0  0  0  0  0  0
  159.4083  141.0781  184.3400 C   0  0  0  0  0  0  0  0  0  0  0  0
  160.7139  141.3698  183.9508 C   0  0  0  0  0  0  0  0  0  0  0  0
  161.6028  142.0100  184.7544 C   0  0  0  0  0  0  0  0  0  0  0  0
  161.2401  142.4121  186.0325 C   0  0  0  0  0  0  0  0  0  0  0  0
  159.9437  142.1247  186.4235 C   0  0  0  0  0  0  0  0  0  0  0  0
  159.0510  141.4649  185.5784 C   0  0  0  0  0  0  0  0  0  0  0  0
  162.2125  143.0614  186.9015 C   0  0  0  0  0  0  0  0  0  0  0  0
  161.9575  144.3851  187.0686 F   0  0  0  0  0  0  0  0  0  0  0  0
  163.4834  142.9112  186.3497 F   0  0  0  0  0  0  0  0  0  0  0  0
  162.2326  142.4751  188.1938 F   0  0  0  0  0  0  0  0  0  0  0  0
 11 12  1  0  0  0
 12  5  1  0  0  0
  5  6  2  0  0  0
  6  7  1  0  0  0
  7  8  2  0  0  0
  8  9  1  0  0  0
  9 10  2  0  0  0
  8  2  1  0  0  0
  2  3  2  0  0  0
  2  4  2  0  0  0
  2  1  1  0  0  0
  1 13  1  0  0  0
 13 14  1  0  0  0
 14 15  2  0  0  0
 14 16  1  0  0  0
 16 17  1  0  0  0
  1 20  1  0  0  0
 20 21  1  0  0  0
 21 22  2  0  0  0
 22 23  1  0  0  0
 23 24  2  0  0  0
 24 25  1  0  0  0
 25 26  2  0  0  0
 24 27  1  0  0  0
 27 28  1  0  0  0
 27 29  1  0  0  0
 27 30  1  0  0  0
 10  5  1  0  0  0
 26 21  1  0  0  0
 16 18  1  0  0  0
 17 19  1  0  0  0
M  END
> <minimizedAffinity>
-9.30639

> <CNNscore>
0.3602446914

> <CNNaffinity>
6.3532390594

> <CNN_VS>
2.2887206078

> <CNNaffinity_variance>
0.1026449353

$$$$
[H]ON([H])C(=O)C([H])([H])N(C([H])([H])c1c([H])c([H])c(C(F)(F)F)c([H])c1[H])S(=O)(=O)c1c([H])c([H])c(OC([H])([H])[H])c([H])c1[H]


 30 31  0  0  0  0  0  0  0  0999 V2000
  153.7261  137.5006  184.8227 N   0  0  0  0  0  0  0  0  0  0  0  0
  152.1647  137.0010  184.5233 S   0  0  0  0  0  0  0  0  0  0  0  0
  151.2138  137.3592  185.6762 O   0  0  0  0  0  0  0  0  0  0  0  0
  152.1284  135.4659  184.4912 O   0  0  0  0  0  0  0  0  0  0  0  0
  150.1305  138.6068  180.7991 C   0  0  0  0  0  0  0  0  0  0  0  0
  151.4992  138.4220  180.8441 C   0  0  0  0  0  0  0  0  0  0  0  0
  152.1259  137.9025  181.9430 C   0  0  0  0  0  0  0  0  0  0  0  0
  151.3878  137.5260  183.0887 C   0  0  0  0  0  0  0  0  0  0  0  0
  150.0304  137.7159  183.0016 C   0  0  0  0  0  0  0  0  0  0  0  0
  149.3802  138.2446  181.8930 C   0  0  0  0  0  0  0  0  0  0  0  0
  148.8424  138.4409  178.6990 C   0  0  0  0  0  0  0  0  0  0  0  0
  149.5429  139.1605  179.6666 O   0  0  0  0  0  0  0  0  0  0  0  0
  153.8661  138.8924  185.2623 C   0  0  0  0  0  0  0  0  0  0  0  0
  154.5961  139.6845  184.2704 C   0  0  0  0  0  0  0  0  0  0  0  0
  154.0026  140.4765  183.4985 O   0  0  0  0  0  0  0  0  0  0  0  0
  155.9851  139.5896  184.1469 N   0  0  0  0  0  0  0  0  0  0  0  0
  156.6793  140.3231  183.2065 O   0  0  0  0  0  0  0  0  0  0  0  0
  156.5453  138.9689  184.7396 H   0  0  0  0  0  0  0  0  0  0  0  0
  156.6019  141.2967  183.4275 H   0  0  0  0  0  0  0  0  0  0  0  0
  154.4981  136.6325  185.6415 C   0  0  0  0  0  0  0  0  0  0  0  0
  154.7491  137.0459  187.0275 C   0  0  0  0  0  0  0  0  0  0  0  0
  153.7423  136.7688  187.9499 C   0  0  0  0  0  0  0  0  0  0  0  0
  153.8167  137.1238  189.2592 C   0  0  0  0  0  0  0  0  0  0  0  0
  154.9279  137.7964  189.7487 C   0  0  0  0  0  0  0  0  0  0  0  0
  155.9309  138.0737  188.8359 C   0  0  0  0  0  0  0  0  0  0  0  0
  155.8287  137.6984  187.4959 C   0  0  0  0  0  0  0  0  0  0  0  0
  154.9804  138.2088  191.1449 C   0  0  0  0  0  0  0  0  0  0  0  0
  153.9377  137.7256  191.8689 F   0  0  0  0  0  0  0  0  0  0  0  0
  154.9673  139.6012  191.2058 F   0  0  0  0  0  0  0  0  0  0  0  0
  156.1694  137.7617  191.7778 F   0  0  0  0  0  0  0  0  0  0  0  0
 11 12  1  0  0  0
 12  5  1  0  0  0
  5  6  2  0  0  0
  6  7  1  0  0  0
  7  8  2  0  0  0
  8  9  1  0  0  0
  9 10  2  0  0  0
  8  2  1  0  0  0
  2  3  2  0  0  0
  2  4  2  0  0  0
  2  1  1  0  0  0
  1 13  1  0  0  0
 13 14  1  0  0  0
 14 15  2  0  0  0
 14 16  1  0  0  0
 16 17  1  0  0  0
  1 20  1  0  0  0
 20 21  1  0  0  0
 21 22  2  0  0  0
 22 23  1  0  0  0
 23 24  2  0  0  0
 24 25  1  0  0  0
 25 26  2  0  0  0
 24 27  1  0  0  0
 27 28  1  0  0  0
 27 29  1  0  0  0
 27 30  1  0  0  0
 10  5  1  0  0  0
 26 21  1  0  0  0
 16 18  1  0  0  0
 17 19  1  0  0  0
M  END
> <minimizedAffinity>
-6.07199

> <CNNscore>
0.3428432047

> <CNNaffinity>
5.1162614822

> <CNN_VS>
1.7540755272

> <CNNaffinity_variance>
0.1032766476

$$$$
[H]ON([H])C(=O)C([H])([H])N(C([H])([H])c1c([H])c([H])c(C(F)(F)F)c([H])c1[H])S(=O)(=O)c1c([H])c([H])c(OC([H])([H])[H])c([H])c1[H]


 30 31  0  0  0  0  0  0  0  0999 V2000
  155.4921  140.2663  184.5059 N   0  0  0  0  0  0  0  0  0  0  0  0
  155.0593  140.9902  183.0686 S   0  0  0  0  0  0  0  0  0  0  0  0
  153.7789  141.8284  183.2080 O   0  0  0  0  0  0  0  0  0  0  0  0
  154.6681  139.9016  182.0582 O   0  0  0  0  0  0  0  0  0  0  0  0
  158.2357  143.5546  181.0882 C   0  0  0  0  0  0  0  0  0  0  0  0
  157.9035  142.3110  180.5855 C   0  0  0  0  0  0  0  0  0  0  0  0
  156.9218  141.5404  181.1448 C   0  0  0  0  0  0  0  0  0  0  0  0
  156.1971  141.9936  182.2711 C   0  0  0  0  0  0  0  0  0  0  0  0
  156.5497  143.2373  182.7349 C   0  0  0  0  0  0  0  0  0  0  0  0
  157.5461  144.0303  182.1785 C   0  0  0  0  0  0  0  0  0  0  0  0
  159.9005  143.9495  179.3079 C   0  0  0  0  0  0  0  0  0  0  0  0
  159.2576  144.2901  180.4977 O   0  0  0  0  0  0  0  0  0  0  0  0
  154.4514  139.4460  185.1335 C   0  0  0  0  0  0  0  0  0  0  0  0
  154.0632  138.3350  184.2622 C   0  0  0  0  0  0  0  0  0  0  0  0
  154.6908  137.2480  184.2672 O   0  0  0  0  0  0  0  0  0  0  0  0
  152.9751  138.4427  183.3915 N   0  0  0  0  0  0  0  0  0  0  0  0
  152.6103  137.4051  182.5582 O   0  0  0  0  0  0  0  0  0  0  0  0
  152.4088  139.2945  183.3275 H   0  0  0  0  0  0  0  0  0  0  0  0
  152.2981  136.6326  183.1137 H   0  0  0  0  0  0  0  0  0  0  0  0
  156.7366  139.5799  184.4928 C   0  0  0  0  0  0  0  0  0  0  0  0
  157.9572  140.3769  184.6653 C   0  0  0  0  0  0  0  0  0  0  0  0
  158.9714  140.1690  183.7330 C   0  0  0  0  0  0  0  0  0  0  0  0
  160.1702  140.8062  183.7854 C   0  0  0  0  0  0  0  0  0  0  0  0
  160.4450  141.7161  184.7970 C   0  0  0  0  0  0  0  0  0  0  0  0
  159.4402  141.9262  185.7255 C   0  0  0  0  0  0  0  0  0  0  0  0
  158.2180  141.2575  185.6489 C   0  0  0  0  0  0  0  0  0  0  0  0
  161.7480  142.3637  184.8680 C   0  0  0  0  0  0  0  0  0  0  0  0
  161.7060  143.6608  184.4671 F   0  0  0  0  0  0  0  0  0  0  0  0
  162.6434  141.6681  184.0576 F   0  0  0  0  0  0  0  0  0  0  0  0
  162.2659  142.3530  186.1893 F   0  0  0  0  0  0  0  0  0  0  0  0
 11 12  1  0  0  0
 12  5  1  0  0  0
  5  6  2  0  0  0
  6  7  1  0  0  0
  7  8  2  0  0  0
  8  9  1  0  0  0
  9 10  2  0  0  0
  8  2  1  0  0  0
  2  3  2  0  0  0
  2  4  2  0  0  0
  2  1  1  0  0  0
  1 13  1  0  0  0
 13 14  1  0  0  0
 14 15  2  0  0  0
 14 16  1  0  0  0
 16 17  1  0  0  0
  1 20  1  0  0  0
 20 21  1  0  0  0
 21 22  2  0  0  0
 22 23  1  0  0  0
 23 24  2  0  0  0
 24 25  1  0  0  0
 25 26  2  0  0  0
 24 27  1  0  0  0
 27 28  1  0  0  0
 27 29  1  0  0  0
 27 30  1  0  0  0
 10  5  1  0  0  0
 26 21  1  0  0  0
 16 18  1  0  0  0
 17 19  1  0  0  0
M  END
> <minimizedAffinity>
-7.56788

> <CNNscore>
0.3330790102

> <CNNaffinity>
6.1401834488

> <CNN_VS>
2.0451662540

> <CNNaffinity_variance>
0.1168729514

$$$$
[H]ON([H])C(=O)C([H])([H])N(C([H])([H])c1c([H])c([H])c(C(F)(F)F)c([H])c1[H])S(=O)(=O)c1c([H])c([H])c(OC([H])([H])[H])c([H])c1[H]


 30 31  0  0  0  0  0  0  0  0999 V2000
  156.7819  140.8758  183.1931 N   0  0  0  0  0  0  0  0  0  0  0  0
  158.4264  140.6871  182.9996 S   0  0  0  0  0  0  0  0  0  0  0  0
  158.9193  141.2631  181.6630 O   0  0  0  0  0  0  0  0  0  0  0  0
  158.7479  139.1895  182.8860 O   0  0  0  0  0  0  0  0  0  0  0  0
  161.1514  142.5490  186.1133 C   0  0  0  0  0  0  0  0  0  0  0  0
  159.8378  142.2358  186.4067 C   0  0  0  0  0  0  0  0  0  0  0  0
  159.0126  141.6384  185.4943 C   0  0  0  0  0  0  0  0  0  0  0  0
  159.4785  141.3105  184.2003 C   0  0  0  0  0  0  0  0  0  0  0  0
  160.7910  141.6286  183.9503 C   0  0  0  0  0  0  0  0  0  0  0  0
  161.6404  142.2375  184.8664 C   0  0  0  0  0  0  0  0  0  0  0  0
  163.1521  142.6790  187.5546 C   0  0  0  0  0  0  0  0  0  0  0  0
  161.9438  143.1773  187.0679 O   0  0  0  0  0  0  0  0  0  0  0  0
  156.1502  141.8403  182.2873 C   0  0  0  0  0  0  0  0  0  0  0  0
  154.6906  141.7677  182.3794 C   0  0  0  0  0  0  0  0  0  0  0  0
  154.0537  142.4337  183.2316 O   0  0  0  0  0  0  0  0  0  0  0  0
  153.9496  140.9535  181.5182 N   0  0  0  0  0  0  0  0  0  0  0  0
  152.5750  140.8697  181.6064 O   0  0  0  0  0  0  0  0  0  0  0  0
  154.3919  140.3798  180.7932 H   0  0  0  0  0  0  0  0  0  0  0  0
  152.1767  141.7582  181.3730 H   0  0  0  0  0  0  0  0  0  0  0  0
  156.0318  139.6698  183.2495 C   0  0  0  0  0  0  0  0  0  0  0  0
  155.6172  139.1854  184.5717 C   0  0  0  0  0  0  0  0  0  0  0  0
  154.2455  139.0856  184.7943 C   0  0  0  0  0  0  0  0  0  0  0  0
  153.7125  138.6881  185.9791 C   0  0  0  0  0  0  0  0  0  0  0  0
  154.5325  138.3555  187.0485 C   0  0  0  0  0  0  0  0  0  0  0  0
  155.8962  138.4529  186.8320 C   0  0  0  0  0  0  0  0  0  0  0  0
  156.4174  138.8649  185.6051 C   0  0  0  0  0  0  0  0  0  0  0  0
  153.9511  137.9697  188.3273 C   0  0  0  0  0  0  0  0  0  0  0  0
  152.5950  137.9072  188.2837 F   0  0  0  0  0  0  0  0  0  0  0  0
  154.3307  138.8980  189.2951 F   0  0  0  0  0  0  0  0  0  0  0  0
  154.4131  136.6957  188.7487 F   0  0  0  0  0  0  0  0  0  0  0  0
 11 12  1  0  0  0
 12  5  1  0  0  0
  5  6  2  0  0  0
  6  7  1  0  0  0
  7  8  2  0  0  0
  8  9  1  0  0  0
  9 10  2  0  0  0
  8  2  1  0  0  0
  2  3  2  0  0  0
  2  4  2  0  0  0
  2  1  1  0  0  0
  1 13  1  0  0  0
 13 14  1  0  0  0
 14 15  2  0  0  0
 14 16  1  0  0  0
 16 17  1  0  0  0
  1 20  1  0  0  0
 20 21  1  0  0  0
 21 22  2  0  0  0
 22 23  1  0  0  0
 23 24  2  0  0  0
 24 25  1  0  0  0
 25 26  2  0  0  0
 24 27  1  0  0  0
 27 28  1  0  0  0
 27 29  1  0  0  0
 27 30  1  0  0  0
 10  5  1  0  0  0
 26 21  1  0  0  0
 16 18  1  0  0  0
 17 19  1  0  0  0
M  END
> <minimizedAffinity>
-8.55681

> <CNNscore>
0.3299670219

> <CNNaffinity>
5.7967805862

> <CNN_VS>
1.9127464294

> <CNNaffinity_variance>
0.2361511439

$$$$
[H]ON([H])C(=O)C([H])([H])N(C([H])([H])c1c([H])c([H])c(C(F)(F)F)c([H])c1[H])S(=O)(=O)c1c([H])c([H])c(OC([H])([H])[H])c([H])c1[H]


 30 31  0  0  0  0  0  0  0  0999 V2000
  152.5779  136.6748  185.1391 N   0  0  0  0  0  0  0  0  0  0  0  0
  152.4113  135.0859  184.6647 S   0  0  0  0  0  0  0  0  0  0  0  0
  150.9765  134.7653  184.2173 O   0  0  0  0  0  0  0  0  0  0  0  0
  152.6196  134.1755  185.8840 O   0  0  0  0  0  0  0  0  0  0  0  0
  155.2425  133.6724  181.4129 C   0  0  0  0  0  0  0  0  0  0  0  0
  155.5192  133.4521  182.7487 C   0  0  0  0  0  0  0  0  0  0  0  0
  154.6599  133.8355  183.7411 C   0  0  0  0  0  0  0  0  0  0  0  0
  153.4376  134.4769  183.4346 C   0  0  0  0  0  0  0  0  0  0  0  0
  153.1945  134.6692  182.0966 C   0  0  0  0  0  0  0  0  0  0  0  0
  154.0590  134.2872  181.0778 C   0  0  0  0  0  0  0  0  0  0  0  0
  157.4699  132.8816  180.6986 C   0  0  0  0  0  0  0  0  0  0  0  0
  156.1596  133.2844  180.4421 O   0  0  0  0  0  0  0  0  0  0  0  0
  152.2673  137.6725  184.1105 C   0  0  0  0  0  0  0  0  0  0  0  0
  153.4729  138.3953  183.7003 C   0  0  0  0  0  0  0  0  0  0  0  0
  154.6057  138.0845  184.1426 O   0  0  0  0  0  0  0  0  0  0  0  0
  153.4077  139.4598  182.7969 N   0  0  0  0  0  0  0  0  0  0  0  0
  154.5373  140.1542  182.4147 O   0  0  0  0  0  0  0  0  0  0  0  0
  152.5228  139.7754  182.3873 H   0  0  0  0  0  0  0  0  0  0  0  0
  155.1405  139.5418  181.9011 H   0  0  0  0  0  0  0  0  0  0  0  0
  151.9575  137.0114  186.3727 C   0  0  0  0  0  0  0  0  0  0  0  0
  152.8284  137.3685  187.4992 C   0  0  0  0  0  0  0  0  0  0  0  0
  152.8066  136.5108  188.5969 C   0  0  0  0  0  0  0  0  0  0  0  0
  153.5304  136.7307  189.7254 C   0  0  0  0  0  0  0  0  0  0  0  0
  154.3445  137.8493  189.8380 C   0  0  0  0  0  0  0  0  0  0  0  0
  154.3696  138.7043  188.7497 C   0  0  0  0  0  0  0  0  0  0  0  0
  153.6154  138.4552  187.6026 C   0  0  0  0  0  0  0  0  0  0  0  0
  155.0851  138.0977  191.0677 C   0  0  0  0  0  0  0  0  0  0  0  0
  154.7103  139.2533  191.6754 F   0  0  0  0  0  0  0  0  0  0  0  0
  156.4453  138.1626  190.7710 F   0  0  0  0  0  0  0  0  0  0  0  0
  154.8997  137.0528  192.0099 F   0  0  0  0  0  0  0  0  0  0  0  0
 11 12  1  0  0  0
 12  5  1  0  0  0
  5  6  2  0  0  0
  6  7  1  0  0  0
  7  8  2  0  0  0
  8  9  1  0  0  0
  9 10  2  0  0  0
  8  2  1  0  0  0
  2  3  2  0  0  0
  2  4  2  0  0  0
  2  1  1  0  0  0
  1 13  1  0  0  0
 13 14  1  0  0  0
 14 15  2  0  0  0
 14 16  1  0  0  0
 16 17  1  0  0  0
  1 20  1  0  0  0
 20 21  1  0  0  0
 21 22  2  0  0  0
 22 23  1  0  0  0
 23 24  2  0  0  0
 24 25  1  0  0  0
 25 26  2  0  0  0
 24 27  1  0  0  0
 27 28  1  0  0  0
 27 29  1  0  0  0
 27 30  1  0  0  0
 10  5  1  0  0  0
 26 21  1  0  0  0
 16 18  1  0  0  0
 17 19  1  0  0  0
M  END
> <minimizedAffinity>
-5.67167

> <CNNscore>
0.3219070137

> <CNNaffinity>
4.9993424416

> <CNN_VS>
1.6093233824

> <CNNaffinity_variance>
0.0531937778

$$$$
[H]ON([H])C(=O)C([H])([H])N(C([H])([H])c1c([H])c([H])c(C(F)(F)F)c([H])c1[H])S(=O)(=O)c1c([H])c([H])c(OC([H])([H])[H])c([H])c1[H]


 30 31  0  0  0  0  0  0  0  0999 V2000
  155.9844  140.0159  183.9885 N   0  0  0  0  0  0  0  0  0  0  0  0
  154.5351  139.2035  184.1189 S   0  0  0  0  0  0  0  0  0  0  0  0
  153.7421  139.6355  185.3623 O   0  0  0  0  0  0  0  0  0  0  0  0
  154.8172  137.7151  184.3717 O   0  0  0  0  0  0  0  0  0  0  0  0
  151.7901  139.3370  180.5086 C   0  0  0  0  0  0  0  0  0  0  0  0
  152.0923  138.1427  181.1346 C   0  0  0  0  0  0  0  0  0  0  0  0
  152.8856  138.0864  182.2471 C   0  0  0  0  0  0  0  0  0  0  0  0
  153.4313  139.2635  182.8093 C   0  0  0  0  0  0  0  0  0  0  0  0
  153.1004  140.4303  182.1648 C   0  0  0  0  0  0  0  0  0  0  0  0
  152.2977  140.5026  181.0327 C   0  0  0  0  0  0  0  0  0  0  0  0
  149.7014  138.8289  179.2936 C   0  0  0  0  0  0  0  0  0  0  0  0
  150.9973  139.3393  179.3660 O   0  0  0  0  0  0  0  0  0  0  0  0
  155.8764  141.4687  183.8221 C   0  0  0  0  0  0  0  0  0  0  0  0
  156.2808  141.8734  182.4742 C   0  0  0  0  0  0  0  0  0  0  0  0
  156.1667  143.0611  182.0846 O   0  0  0  0  0  0  0  0  0  0  0  0
  156.8123  140.9504  181.5691 N   0  0  0  0  0  0  0  0  0  0  0  0
  157.1842  141.3209  180.2929 O   0  0  0  0  0  0  0  0  0  0  0  0
  156.9408  139.9623  181.8084 H   0  0  0  0  0  0  0  0  0  0  0  0
  157.9554  141.9574  180.3478 H   0  0  0  0  0  0  0  0  0  0  0  0
  156.9566  139.6913  184.9731 C   0  0  0  0  0  0  0  0  0  0  0  0
  158.2441  140.3942  184.9184 C   0  0  0  0  0  0  0  0  0  0  0  0
  158.4877  141.3230  185.9279 C   0  0  0  0  0  0  0  0  0  0  0  0
  159.6176  142.0751  185.9880 C   0  0  0  0  0  0  0  0  0  0  0  0
  160.6050  141.9486  185.0206 C   0  0  0  0  0  0  0  0  0  0  0  0
  160.3674  141.0267  184.0157 C   0  0  0  0  0  0  0  0  0  0  0  0
  159.1975  140.2675  183.9771 C   0  0  0  0  0  0  0  0  0  0  0  0
  161.7943  142.7884  185.0710 C   0  0  0  0  0  0  0  0  0  0  0  0
  162.8376  142.2532  184.3854 F   0  0  0  0  0  0  0  0  0  0  0  0
  162.1688  142.9624  186.4021 F   0  0  0  0  0  0  0  0  0  0  0  0
  161.5504  144.0738  184.5211 F   0  0  0  0  0  0  0  0  0  0  0  0
 11 12  1  0  0  0
 12  5  1  0  0  0
  5  6  2  0  0  0
  6  7  1  0  0  0
  7  8  2  0  0  0
  8  9  1  0  0  0
  9 10  2  0  0  0
  8  2  1  0  0  0
  2  3  2  0  0  0
  2  4  2  0  0  0
  2  1  1  0  0  0
  1 13  1  0  0  0
 13 14  1  0  0  0
 14 15  2  0  0  0
 14 16  1  0  0  0
 16 17  1  0  0  0
  1 20  1  0  0  0
 20 21  1  0  0  0
 21 22  2  0  0  0
 22 23  1  0  0  0
 23 24  2  0  0  0
 24 25  1  0  0  0
 25 26  2  0  0  0
 24 27  1  0  0  0
 27 28  1  0  0  0
 27 29  1  0  0  0
 27 30  1  0  0  0
 10  5  1  0  0  0
 26 21  1  0  0  0
 16 18  1  0  0  0
 17 19  1  0  0  0
M  END
> <minimizedAffinity>
-8.64517

> <CNNscore>
0.2998719513

> <CNNaffinity>
5.6747679710

> <CNN_VS>
1.7017037868

> <CNNaffinity_variance>
0.0726855472

$$$$
[H]c1nc([H])c(-c2c(O[C@@]3([H])C([H])([H])OC([H])([H])C3([H])[H])nc3sc(N([H])C(=O)N([H])C([H])([H])C([H])([H])[H])nc3c2[H])c([H])c1[H]


 29 32  0  0  0  0  0  0  0  0999 V2000
  152.8619  136.2508  188.8354 C   0  0  0  0  0  0  0  0  0  0  0  0
  152.1907  135.8267  187.7887 N   0  0  0  0  0  0  0  0  0  0  0  0
  152.8145  135.3228  186.7714 C   0  0  0  0  0  0  0  0  0  0  0  0
  152.2247  134.8351  185.5933 C   0  0  0  0  0  0  0  0  0  0  0  0
  153.0388  134.3268  184.5962 C   0  0  0  0  0  0  0  0  0  0  0  0
  154.4058  134.2459  184.6432 C   0  0  0  0  0  0  0  0  0  0  0  0
  154.9304  134.7462  185.8340 N   0  0  0  0  0  0  0  0  0  0  0  0
  154.1793  135.2455  186.8178 C   0  0  0  0  0  0  0  0  0  0  0  0
  154.4854  135.9284  188.3798 S   0  0  0  0  0  0  0  0  0  0  0  0
  151.3838  136.6288  192.2952 N   0  0  0  0  0  0  0  0  0  0  0  0
  151.8698  136.0550  191.1013 C   0  0  0  0  0  0  0  0  0  0  0  0
  151.8551  134.7871  190.9758 O   0  0  0  0  0  0  0  0  0  0  0  0
  152.3658  136.8365  190.0540 N   0  0  0  0  0  0  0  0  0  0  0  0
  151.3986  137.6646  192.3912 H   0  0  0  0  0  0  0  0  0  0  0  0
  152.3909  137.8635  190.1251 H   0  0  0  0  0  0  0  0  0  0  0  0
  151.9739  135.5407  194.4062 C   0  0  0  0  0  0  0  0  0  0  0  0
  150.8730  135.8031  193.3711 C   0  0  0  0  0  0  0  0  0  0  0  0
  152.3491  133.9070  183.3541 C   0  0  0  0  0  0  0  0  0  0  0  0
  152.1870  134.7907  182.3080 C   0  0  0  0  0  0  0  0  0  0  0  0
  151.5223  134.3736  181.1645 C   0  0  0  0  0  0  0  0  0  0  0  0
  151.0279  133.0924  181.0695 C   0  0  0  0  0  0  0  0  0  0  0  0
  151.1963  132.2399  182.1053 N   0  0  0  0  0  0  0  0  0  0  0  0
  151.8411  132.6362  183.2212 C   0  0  0  0  0  0  0  0  0  0  0  0
  155.2913  133.7824  183.7719 O   0  0  0  0  0  0  0  0  0  0  0  0
  155.5048  132.8898  182.8452 C   0  0  0  0  0  0  0  0  0  0  0  0
  156.9001  132.2164  182.9693 C   0  0  0  0  0  0  0  0  0  0  0  0
  157.0819  131.7073  181.5731 C   0  0  0  0  0  0  0  0  0  0  0  0
  156.1394  132.2947  180.7657 O   0  0  0  0  0  0  0  0  0  0  0  0
  155.6694  133.4347  181.4161 C   0  0  0  0  0  0  0  0  0  0  0  0
 16 17  1  0  0  0
 17 10  1  0  0  0
 10 11  1  0  0  0
 11 12  2  0  0  0
 11 13  1  0  0  0
 13  1  1  0  0  0
  1  2  2  0  0  0
  2  3  1  0  0  0
  3  4  2  0  0  0
  4  5  1  0  0  0
  5 18  1  0  0  0
 18 19  2  0  0  0
 19 20  1  0  0  0
 20 21  2  0  0  0
 21 22  1  0  0  0
 22 23  2  0  0  0
  5  6  2  0  0  0
  6 24  1  0  0  0
 24 25  1  0  0  0
 25 26  1  0  0  0
 26 27  1  0  0  0
 27 28  1  0  0  0
 28 29  1  0  0  0
  6  7  1  0  0  0
  7  8  2  0  0  0
  8  9  1  0  0  0
  9  1  1  0  0  0
  8  3  1  0  0  0
 23 18  1  0  0  0
 29 25  1  0  0  0
 10 14  1  0  0  0
 13 15  1  0  0  0
M  END
> <minimizedAffinity>
-3.28139

> <CNNscore>
0.4647307992

> <CNNaffinity>
5.1777009964

> <CNN_VS>
2.4062371254

> <CNNaffinity_variance>
0.8026624918

$$$$
[H]c1nc([H])c(-c2c(O[C@@]3([H])C([H])([H])OC([H])([H])C3([H])[H])nc3sc(N([H])C(=O)N([H])C([H])([H])C([H])([H])[H])nc3c2[H])c([H])c1[H]


 29 32  0  0  0  0  0  0  0  0999 V2000
  153.6755  138.0538  184.6680 C   0  0  0  0  0  0  0  0  0  0  0  0
  154.1448  138.8467  183.7314 N   0  0  0  0  0  0  0  0  0  0  0  0
  155.2916  139.4298  183.8816 C   0  0  0  0  0  0  0  0  0  0  0  0
  155.9083  140.2986  182.9659 C   0  0  0  0  0  0  0  0  0  0  0  0
  157.1420  140.8405  183.2816 C   0  0  0  0  0  0  0  0  0  0  0  0
  157.8475  140.6066  184.4327 C   0  0  0  0  0  0  0  0  0  0  0  0
  157.1839  139.7400  185.2999 N   0  0  0  0  0  0  0  0  0  0  0  0
  155.9937  139.1984  185.0325 C   0  0  0  0  0  0  0  0  0  0  0  0
  154.9170  138.1174  185.8521 S   0  0  0  0  0  0  0  0  0  0  0  0
  150.4111  136.5644  185.8610 N   0  0  0  0  0  0  0  0  0  0  0  0
  151.6240  137.2847  185.8329 C   0  0  0  0  0  0  0  0  0  0  0  0
  151.9869  137.9226  186.8745 O   0  0  0  0  0  0  0  0  0  0  0  0
  152.4376  137.3184  184.6968 N   0  0  0  0  0  0  0  0  0  0  0  0
  150.1207  136.0458  185.0071 H   0  0  0  0  0  0  0  0  0  0  0  0
  152.1719  136.8133  183.8396 H   0  0  0  0  0  0  0  0  0  0  0  0
  148.2915  137.3376  186.8085 C   0  0  0  0  0  0  0  0  0  0  0  0
  149.5798  136.5404  187.0478 C   0  0  0  0  0  0  0  0  0  0  0  0
  157.6890  141.8086  182.3027 C   0  0  0  0  0  0  0  0  0  0  0  0
  158.4435  141.3751  181.2330 C   0  0  0  0  0  0  0  0  0  0  0  0
  158.9561  142.3066  180.3425 C   0  0  0  0  0  0  0  0  0  0  0  0
  158.7170  143.6507  180.5199 C   0  0  0  0  0  0  0  0  0  0  0  0
  157.9750  144.0570  181.5744 N   0  0  0  0  0  0  0  0  0  0  0  0
  157.4725  143.1589  182.4456 C   0  0  0  0  0  0  0  0  0  0  0  0
  159.0249  141.0514  184.8500 O   0  0  0  0  0  0  0  0  0  0  0  0
  159.6965  142.1118  185.2041 C   0  0  0  0  0  0  0  0  0  0  0  0
  161.1902  142.0471  184.7787 C   0  0  0  0  0  0  0  0  0  0  0  0
  161.7876  143.0359  185.7311 C   0  0  0  0  0  0  0  0  0  0  0  0
  160.8660  143.3142  186.7101 O   0  0  0  0  0  0  0  0  0  0  0  0
  159.9239  142.2866  186.7154 C   0  0  0  0  0  0  0  0  0  0  0  0
 16 17  1  0  0  0
 17 10  1  0  0  0
 10 11  1  0  0  0
 11 12  2  0  0  0
 11 13  1  0  0  0
 13  1  1  0  0  0
  1  2  2  0  0  0
  2  3  1  0  0  0
  3  4  2  0  0  0
  4  5  1  0  0  0
  5 18  1  0  0  0
 18 19  2  0  0  0
 19 20  1  0  0  0
 20 21  2  0  0  0
 21 22  1  0  0  0
 22 23  2  0  0  0
  5  6  2  0  0  0
  6 24  1  0  0  0
 24 25  1  0  0  0
 25 26  1  0  0  0
 26 27  1  0  0  0
 27 28  1  0  0  0
 28 29  1  0  0  0
  6  7  1  0  0  0
  7  8  2  0  0  0
  8  9  1  0  0  0
  9  1  1  0  0  0
  8  3  1  0  0  0
 23 18  1  0  0  0
 29 25  1  0  0  0
 10 14  1  0  0  0
 13 15  1  0  0  0
M  END
> <minimizedAffinity>
-7.41858

> <CNNscore>
0.4445148706

> <CNNaffinity>
6.0873403549

> <CNN_VS>
2.7059133053

> <CNNaffinity_variance>
0.0856735483

$$$$
[H]c1nc([H])c(-c2c(O[C@@]3([H])C([H])([H])OC([H])([H])C3([H])[H])nc3sc(N([H])C(=O)N([H])C([H])([H])C([H])([H])[H])nc3c2[H])c([H])c1[H]


 29 32  0  0  0  0  0  0  0  0999 V2000
  150.0615  135.6761  187.4052 C   0  0  0  0  0  0  0  0  0  0  0  0
  150.2784  134.9536  186.3294 N   0  0  0  0  0  0  0  0  0  0  0  0
  150.0058  135.4292  185.1558 C   0  0  0  0  0  0  0  0  0  0  0  0
  150.1859  134.7684  183.9292 C   0  0  0  0  0  0  0  0  0  0  0  0
  149.8418  135.4215  182.7585 C   0  0  0  0  0  0  0  0  0  0  0  0
  149.3288  136.6890  182.6708 C   0  0  0  0  0  0  0  0  0  0  0  0
  149.1721  137.2901  183.9188 N   0  0  0  0  0  0  0  0  0  0  0  0
  149.4906  136.6933  185.0693 C   0  0  0  0  0  0  0  0  0  0  0  0
  149.4305  137.1294  186.7444 S   0  0  0  0  0  0  0  0  0  0  0  0
  151.6206  135.4984  190.8454 N   0  0  0  0  0  0  0  0  0  0  0  0
  151.3940  135.8295  189.4928 C   0  0  0  0  0  0  0  0  0  0  0  0
  152.2184  136.5990  188.8996 O   0  0  0  0  0  0  0  0  0  0  0  0
  150.2929  135.3381  188.7859 N   0  0  0  0  0  0  0  0  0  0  0  0
  150.9436  134.8698  191.3238 H   0  0  0  0  0  0  0  0  0  0  0  0
  149.6090  134.7143  189.2372 H   0  0  0  0  0  0  0  0  0  0  0  0
  153.6784  134.8665  192.0094 C   0  0  0  0  0  0  0  0  0  0  0  0
  152.7678  136.0172  191.5631 C   0  0  0  0  0  0  0  0  0  0  0  0
  149.9852  134.6302  181.5144 C   0  0  0  0  0  0  0  0  0  0  0  0
  148.9466  134.5479  180.6110 C   0  0  0  0  0  0  0  0  0  0  0  0
  149.1049  133.7858  179.4631 C   0  0  0  0  0  0  0  0  0  0  0  0
  150.2839  133.1169  179.2233 C   0  0  0  0  0  0  0  0  0  0  0  0
  151.2911  133.2094  180.1203 N   0  0  0  0  0  0  0  0  0  0  0  0
  151.1467  133.9478  181.2393 C   0  0  0  0  0  0  0  0  0  0  0  0
  148.9676  137.4228  181.6271 O   0  0  0  0  0  0  0  0  0  0  0  0
  149.2254  138.5065  180.9486 C   0  0  0  0  0  0  0  0  0  0  0  0
  149.5079  138.2225  179.4468 C   0  0  0  0  0  0  0  0  0  0  0  0
  150.2677  139.4577  179.0743 C   0  0  0  0  0  0  0  0  0  0  0  0
  150.6322  140.1123  180.2249 O   0  0  0  0  0  0  0  0  0  0  0  0
  150.5580  139.2011  181.2774 C   0  0  0  0  0  0  0  0  0  0  0  0
 16 17  1  0  0  0
 17 10  1  0  0  0
 10 11  1  0  0  0
 11 12  2  0  0  0
 11 13  1  0  0  0
 13  1  1  0  0  0
  1  2  2  0  0  0
  2  3  1  0  0  0
  3  4  2  0  0  0
  4  5  1  0  0  0
  5 18  1  0  0  0
 18 19  2  0  0  0
 19 20  1  0  0  0
 20 21  2  0  0  0
 21 22  1  0  0  0
 22 23  2  0  0  0
  5  6  2  0  0  0
  6 24  1  0  0  0
 24 25  1  0  0  0
 25 26  1  0  0  0
 26 27  1  0  0  0
 27 28  1  0  0  0
 28 29  1  0  0  0
  6  7  1  0  0  0
  7  8  2  0  0  0
  8  9  1  0  0  0
  9  1  1  0  0  0
  8  3  1  0  0  0
 23 18  1  0  0  0
 29 25  1  0  0  0
 10 14  1  0  0  0
 13 15  1  0  0  0
M  END
> <minimizedAffinity>
-3.47930

> <CNNscore>
0.4438322783

> <CNNaffinity>
5.4280753136

> <CNN_VS>
2.4091551304

> <CNNaffinity_variance>
0.7669741511

$$$$
[H]c1nc([H])c(-c2c(O[C@@]3([H])C([H])([H])OC([H])([H])C3([H])[H])nc3sc(N([H])C(=O)N([H])C([H])([H])C([H])([H])[H])nc3c2[H])c([H])c1[H]


 29 32  0  0  0  0  0  0  0  0999 V2000
  154.4713  138.5149  184.6513 C   0  0  0  0  0  0  0  0  0  0  0  0
  154.9085  139.2179  183.6311 N   0  0  0  0  0  0  0  0  0  0  0  0
  156.0434  139.8381  183.7019 C   0  0  0  0  0  0  0  0  0  0  0  0
  156.6265  140.6218  182.6922 C   0  0  0  0  0  0  0  0  0  0  0  0
  157.8517  141.2199  182.9306 C   0  0  0  0  0  0  0  0  0  0  0  0
  158.5787  141.1205  184.0876 C   0  0  0  0  0  0  0  0  0  0  0  0
  157.9480  140.3329  185.0496 N   0  0  0  0  0  0  0  0  0  0  0  0
  156.7671  139.7410  184.8586 C   0  0  0  0  0  0  0  0  0  0  0  0
  155.7277  138.7264  185.8019 S   0  0  0  0  0  0  0  0  0  0  0  0
  151.9637  135.6903  184.4754 N   0  0  0  0  0  0  0  0  0  0  0  0
  153.1588  136.4302  184.3536 C   0  0  0  0  0  0  0  0  0  0  0  0
  154.1828  135.8688  183.8438 O   0  0  0  0  0  0  0  0  0  0  0  0
  153.2514  137.7596  184.7755 N   0  0  0  0  0  0  0  0  0  0  0  0
  151.1315  136.1547  184.8925 H   0  0  0  0  0  0  0  0  0  0  0  0
  152.4417  138.2411  185.1913 H   0  0  0  0  0  0  0  0  0  0  0  0
  151.3099  134.2440  182.6127 C   0  0  0  0  0  0  0  0  0  0  0  0
  151.8856  134.3125  184.0326 C   0  0  0  0  0  0  0  0  0  0  0  0
  158.3618  142.0944  181.8491 C   0  0  0  0  0  0  0  0  0  0  0  0
  158.5061  143.4506  182.0520 C   0  0  0  0  0  0  0  0  0  0  0  0
  158.9704  144.2461  181.0151 C   0  0  0  0  0  0  0  0  0  0  0  0
  159.2854  143.6927  179.7946 C   0  0  0  0  0  0  0  0  0  0  0  0
  159.1376  142.3610  179.6141 N   0  0  0  0  0  0  0  0  0  0  0  0
  158.6868  141.5795  180.6162 C   0  0  0  0  0  0  0  0  0  0  0  0
  159.7513  141.6311  184.4378 O   0  0  0  0  0  0  0  0  0  0  0  0
  160.3440  142.5133  185.1937 C   0  0  0  0  0  0  0  0  0  0  0  0
  161.8795  142.2906  185.2868 C   0  0  0  0  0  0  0  0  0  0  0  0
  162.1845  143.0237  186.5562 C   0  0  0  0  0  0  0  0  0  0  0  0
  161.0037  143.2859  187.2061 O   0  0  0  0  0  0  0  0  0  0  0  0
  160.0347  142.4220  186.6979 C   0  0  0  0  0  0  0  0  0  0  0  0
 16 17  1  0  0  0
 17 10  1  0  0  0
 10 11  1  0  0  0
 11 12  2  0  0  0
 11 13  1  0  0  0
 13  1  1  0  0  0
  1  2  2  0  0  0
  2  3  1  0  0  0
  3  4  2  0  0  0
  4  5  1  0  0  0
  5 18  1  0  0  0
 18 19  2  0  0  0
 19 20  1  0  0  0
 20 21  2  0  0  0
 21 22  1  0  0  0
 22 23  2  0  0  0
  5  6  2  0  0  0
  6 24  1  0  0  0
 24 25  1  0  0  0
 25 26  1  0  0  0
 26 27  1  0  0  0
 27 28  1  0  0  0
 28 29  1  0  0  0
  6  7  1  0  0  0
  7  8  2  0  0  0
  8  9  1  0  0  0
  9  1  1  0  0  0
  8  3  1  0  0  0
 23 18  1  0  0  0
 29 25  1  0  0  0
 10 14  1  0  0  0
 13 15  1  0  0  0
M  END
> <minimizedAffinity>
-7.26488

> <CNNscore>
0.4040699899

> <CNNaffinity>
6.3179750443

> <CNN_VS>
2.5529041290

> <CNNaffinity_variance>
0.0439922139

$$$$
[H]c1nc([H])c(-c2c(O[C@@]3([H])C([H])([H])OC([H])([H])C3([H])[H])nc3sc(N([H])C(=O)N([H])C([H])([H])C([H])([H])[H])nc3c2[H])c([H])c1[H]


 29 32  0  0  0  0  0  0  0  0999 V2000
  153.5730  134.7571  187.7878 C   0  0  0  0  0  0  0  0  0  0  0  0
  153.8378  134.1856  186.6347 N   0  0  0  0  0  0  0  0  0  0  0  0
  153.3489  134.6692  185.5371 C   0  0  0  0  0  0  0  0  0  0  0  0
  153.5490  134.1600  184.2431 C   0  0  0  0  0  0  0  0  0  0  0  0
  152.9511  134.7990  183.1709 C   0  0  0  0  0  0  0  0  0  0  0  0
  152.1600  135.9153  183.2447 C   0  0  0  0  0  0  0  0  0  0  0  0
  151.9982  136.3705  184.5524 N   0  0  0  0  0  0  0  0  0  0  0  0
  152.5566  135.7816  185.6120 C   0  0  0  0  0  0  0  0  0  0  0  0
  152.5682  136.0680  187.3201 S   0  0  0  0  0  0  0  0  0  0  0  0
  155.6961  134.3830  190.8943 N   0  0  0  0  0  0  0  0  0  0  0  0
  155.2663  134.7503  189.6016 C   0  0  0  0  0  0  0  0  0  0  0  0
  156.0459  135.4377  188.8645 O   0  0  0  0  0  0  0  0  0  0  0  0
  154.0118  134.3821  189.1073 N   0  0  0  0  0  0  0  0  0  0  0  0
  155.0547  133.8218  191.4910 H   0  0  0  0  0  0  0  0  0  0  0  0
  153.3593  133.8268  189.6785 H   0  0  0  0  0  0  0  0  0  0  0  0
  157.9902  133.6102  191.2526 C   0  0  0  0  0  0  0  0  0  0  0  0
  157.0004  134.7736  191.3908 C   0  0  0  0  0  0  0  0  0  0  0  0
  153.1433  134.1560  181.8502 C   0  0  0  0  0  0  0  0  0  0  0  0
  154.3757  134.1765  181.2319 C   0  0  0  0  0  0  0  0  0  0  0  0
  154.5206  133.5804  179.9880 C   0  0  0  0  0  0  0  0  0  0  0  0
  153.4491  132.9733  179.3730 C   0  0  0  0  0  0  0  0  0  0  0  0
  152.2484  132.9631  179.9944 N   0  0  0  0  0  0  0  0  0  0  0  0
  152.0977  133.5400  181.2038 C   0  0  0  0  0  0  0  0  0  0  0  0
  151.5402  136.6193  182.3075 O   0  0  0  0  0  0  0  0  0  0  0  0
  151.1200  137.8080  181.9737 C   0  0  0  0  0  0  0  0  0  0  0  0
  149.6862  138.1068  182.4943 C   0  0  0  0  0  0  0  0  0  0  0  0
  149.2807  139.2046  181.5604 C   0  0  0  0  0  0  0  0  0  0  0  0
  150.1745  139.2472  180.5190 O   0  0  0  0  0  0  0  0  0  0  0  0
  150.8405  138.0233  180.4763 C   0  0  0  0  0  0  0  0  0  0  0  0
 16 17  1  0  0  0
 17 10  1  0  0  0
 10 11  1  0  0  0
 11 12  2  0  0  0
 11 13  1  0  0  0
 13  1  1  0  0  0
  1  2  2  0  0  0
  2  3  1  0  0  0
  3  4  2  0  0  0
  4  5  1  0  0  0
  5 18  1  0  0  0
 18 19  2  0  0  0
 19 20  1  0  0  0
 20 21  2  0  0  0
 21 22  1  0  0  0
 22 23  2  0  0  0
  5  6  2  0  0  0
  6 24  1  0  0  0
 24 25  1  0  0  0
 25 26  1  0  0  0
 26 27  1  0  0  0
 27 28  1  0  0  0
 28 29  1  0  0  0
  6  7  1  0  0  0
  7  8  2  0  0  0
  8  9  1  0  0  0
  9  1  1  0  0  0
  8  3  1  0  0  0
 23 18  1  0  0  0
 29 25  1  0  0  0
 10 14  1  0  0  0
 13 15  1  0  0  0
M  END
> <minimizedAffinity>
-3.47703

> <CNNscore>
0.4004923105

> <CNNaffinity>
5.3890719414

> <CNN_VS>
2.1582818031

> <CNNaffinity_variance>
1.1462395191

$$$$
[H]c1nc([H])c(-c2c(O[C@@]3([H])C([H])([H])OC([H])([H])C3([H])[H])nc3sc(N([H])C(=O)N([H])C([H])([H])C([H])([H])[H])nc3c2[H])c([H])c1[H]


 29 32  0  0  0  0  0  0  0  0999 V2000
  153.8420  138.5257  184.2779 C   0  0  0  0  0  0  0  0  0  0  0  0
  154.3605  139.3320  183.3794 N   0  0  0  0  0  0  0  0  0  0  0  0
  155.5230  139.8686  183.5748 C   0  0  0  0  0  0  0  0  0  0  0  0
  156.1909  140.7447  182.7029 C   0  0  0  0  0  0  0  0  0  0  0  0
  157.4350  141.2317  183.0643 C   0  0  0  0  0  0  0  0  0  0  0  0
  158.1047  140.9350  184.2222 C   0  0  0  0  0  0  0  0  0  0  0  0
  157.3911  140.0643  185.0446 N   0  0  0  0  0  0  0  0  0  0  0  0
  156.1894  139.5745  184.7325 C   0  0  0  0  0  0  0  0  0  0  0  0
  155.0568  138.5061  185.4908 S   0  0  0  0  0  0  0  0  0  0  0  0
  151.1756  135.9431  183.5581 N   0  0  0  0  0  0  0  0  0  0  0  0
  152.4131  136.6205  183.5812 C   0  0  0  0  0  0  0  0  0  0  0  0
  153.4076  136.1095  182.9701 O   0  0  0  0  0  0  0  0  0  0  0  0
  152.5789  137.8343  184.2542 N   0  0  0  0  0  0  0  0  0  0  0  0
  150.3677  136.3658  184.0590 H   0  0  0  0  0  0  0  0  0  0  0  0
  151.7945  138.2727  184.7572 H   0  0  0  0  0  0  0  0  0  0  0  0
  150.4392  134.9272  181.4571 C   0  0  0  0  0  0  0  0  0  0  0  0
  151.0216  134.6852  182.8551 C   0  0  0  0  0  0  0  0  0  0  0  0
  158.0382  142.2115  182.1311 C   0  0  0  0  0  0  0  0  0  0  0  0
  158.6138  141.7936  180.9498 C   0  0  0  0  0  0  0  0  0  0  0  0
  159.1853  142.7327  180.1042 C   0  0  0  0  0  0  0  0  0  0  0  0
  159.1806  144.0688  180.4359 C   0  0  0  0  0  0  0  0  0  0  0  0
  158.6117  144.4598  181.5982 N   0  0  0  0  0  0  0  0  0  0  0  0
  158.0535  143.5542  182.4268 C   0  0  0  0  0  0  0  0  0  0  0  0
  159.2867  141.3235  184.6805 O   0  0  0  0  0  0  0  0  0  0  0  0
  159.9385  142.3001  185.2485 C   0  0  0  0  0  0  0  0  0  0  0  0
  161.4782  142.1754  185.0762 C   0  0  0  0  0  0  0  0  0  0  0  0
  161.9494  143.0309  186.2111 C   0  0  0  0  0  0  0  0  0  0  0  0
  160.8865  143.2790  187.0442 O   0  0  0  0  0  0  0  0  0  0  0  0
  159.9079  142.3202  186.7864 C   0  0  0  0  0  0  0  0  0  0  0  0
 16 17  1  0  0  0
 17 10  1  0  0  0
 10 11  1  0  0  0
 11 12  2  0  0  0
 11 13  1  0  0  0
 13  1  1  0  0  0
  1  2  2  0  0  0
  2  3  1  0  0  0
  3  4  2  0  0  0
  4  5  1  0  0  0
  5 18  1  0  0  0
 18 19  2  0  0  0
 19 20  1  0  0  0
 20 21  2  0  0  0
 21 22  1  0  0  0
 22 23  2  0  0  0
  5  6  2  0  0  0
  6 24  1  0  0  0
 24 25  1  0  0  0
 25 26  1  0  0  0
 26 27  1  0  0  0
 27 28  1  0  0  0
 28 29  1  0  0  0
  6  7  1  0  0  0
  7  8  2  0  0  0
  8  9  1  0  0  0
  9  1  1  0  0  0
  8  3  1  0  0  0
 23 18  1  0  0  0
 29 25  1  0  0  0
 10 14  1  0  0  0
 13 15  1  0  0  0
M  END
> <minimizedAffinity>
-7.47617

> <CNNscore>
0.3814963400

> <CNNaffinity>
6.1860256195

> <CNN_VS>
2.3599462509

> <CNNaffinity_variance>
0.0809736401

$$$$
[H]c1nc([H])c(-c2c(O[C@@]3([H])C([H])([H])OC([H])([H])C3([H])[H])nc3sc(N([H])C(=O)N([H])C([H])([H])C([H])([H])[H])nc3c2[H])c([H])c1[H]


 29 32  0  0  0  0  0  0  0  0999 V2000
  153.6046  139.1133  183.2961 C   0  0  0  0  0  0  0  0  0  0  0  0
  154.2310  139.9789  182.5315 N   0  0  0  0  0  0  0  0  0  0  0  0
  155.4021  140.4200  182.8657 C   0  0  0  0  0  0  0  0  0  0  0  0
  156.1791  141.3428  182.1457 C   0  0  0  0  0  0  0  0  0  0  0  0
  157.4162  141.7118  182.6446 C   0  0  0  0  0  0  0  0  0  0  0  0
  157.9799  141.2521  183.8058 C   0  0  0  0  0  0  0  0  0  0  0  0
  157.1615  140.3427  184.4742 N   0  0  0  0  0  0  0  0  0  0  0  0
  155.9628  139.9631  184.0267 C   0  0  0  0  0  0  0  0  0  0  0  0
  154.7215  138.8897  184.5805 S   0  0  0  0  0  0  0  0  0  0  0  0
  150.1627  138.3463  181.9312 N   0  0  0  0  0  0  0  0  0  0  0  0
  151.4287  138.9412  182.1158 C   0  0  0  0  0  0  0  0  0  0  0  0
  151.7751  139.9030  181.3553 O   0  0  0  0  0  0  0  0  0  0  0  0
  152.3123  138.5063  183.1077 N   0  0  0  0  0  0  0  0  0  0  0  0
  149.8861  137.5614  182.5555 H   0  0  0  0  0  0  0  0  0  0  0  0
  152.0615  137.7315  183.7380 H   0  0  0  0  0  0  0  0  0  0  0  0
  148.0795  139.5640  181.5238 C   0  0  0  0  0  0  0  0  0  0  0  0
  149.2591  138.8101  180.8974 C   0  0  0  0  0  0  0  0  0  0  0  0
  158.1388  142.7481  181.8709 C   0  0  0  0  0  0  0  0  0  0  0  0
  158.7182  142.4420  180.6577 C   0  0  0  0  0  0  0  0  0  0  0  0
  159.4024  143.4292  179.9643 C   0  0  0  0  0  0  0  0  0  0  0  0
  159.5048  144.7025  180.4772 C   0  0  0  0  0  0  0  0  0  0  0  0
  158.9304  144.9842  181.6682 N   0  0  0  0  0  0  0  0  0  0  0  0
  158.2631  144.0310  182.3498 C   0  0  0  0  0  0  0  0  0  0  0  0
  159.1427  141.5168  184.3855 O   0  0  0  0  0  0  0  0  0  0  0  0
  159.7999  142.3848  185.1036 C   0  0  0  0  0  0  0  0  0  0  0  0
  161.3407  142.2437  184.9558 C   0  0  0  0  0  0  0  0  0  0  0  0
  161.7976  142.9166  186.2129 C   0  0  0  0  0  0  0  0  0  0  0  0
  160.7164  143.0731  187.0446 O   0  0  0  0  0  0  0  0  0  0  0  0
  159.7238  142.1877  186.6273 C   0  0  0  0  0  0  0  0  0  0  0  0
 16 17  1  0  0  0
 17 10  1  0  0  0
 10 11  1  0  0  0
 11 12  2  0  0  0
 11 13  1  0  0  0
 13  1  1  0  0  0
  1  2  2  0  0  0
  2  3  1  0  0  0
  3  4  2  0  0  0
  4  5  1  0  0  0
  5 18  1  0  0  0
 18 19  2  0  0  0
 19 20  1  0  0  0
 20 21  2  0  0  0
 21 22  1  0  0  0
 22 23  2  0  0  0
  5  6  2  0  0  0
  6 24  1  0  0  0
 24 25  1  0  0  0
 25 26  1  0  0  0
 26 27  1  0  0  0
 27 28  1  0  0  0
 28 29  1  0  0  0
  6  7  1  0  0  0
  7  8  2  0  0  0
  8  9  1  0  0  0
  9  1  1  0  0  0
  8  3  1  0  0  0
 23 18  1  0  0  0
 29 25  1  0  0  0
 10 14  1  0  0  0
 13 15  1  0  0  0
M  END
> <minimizedAffinity>
-8.21553

> <CNNscore>
0.3693168163

> <CNNaffinity>
6.3484563828

> <CNN_VS>
2.3445916176

> <CNNaffinity_variance>
0.0657482594

$$$$
[H]c1nc([H])c(-c2c(O[C@@]3([H])C([H])([H])OC([H])([H])C3([H])[H])nc3sc(N([H])C(=O)N([H])C([H])([H])C([H])([H])[H])nc3c2[H])c([H])c1[H]


 29 32  0  0  0  0  0  0  0  0999 V2000
  149.8522  135.6255  187.2127 C   0  0  0  0  0  0  0  0  0  0  0  0
  150.6578  134.9144  186.4567 N   0  0  0  0  0  0  0  0  0  0  0  0
  151.1905  135.4352  185.3971 C   0  0  0  0  0  0  0  0  0  0  0  0
  152.0634  134.7918  184.5038 C   0  0  0  0  0  0  0  0  0  0  0  0
  152.5456  135.4947  183.4135 C   0  0  0  0  0  0  0  0  0  0  0  0
  152.2508  136.7974  183.1077 C   0  0  0  0  0  0  0  0  0  0  0  0
  151.3806  137.3792  184.0284 N   0  0  0  0  0  0  0  0  0  0  0  0
  150.8932  136.7347  185.0906 C   0  0  0  0  0  0  0  0  0  0  0  0
  149.8274  137.1352  186.3958 S   0  0  0  0  0  0  0  0  0  0  0  0
  149.0829  134.9862  190.8592 N   0  0  0  0  0  0  0  0  0  0  0  0
  149.7564  135.3638  189.6783 C   0  0  0  0  0  0  0  0  0  0  0  0
  150.9387  135.8309  189.7650 O   0  0  0  0  0  0  0  0  0  0  0  0
  149.1648  135.2400  188.4180 N   0  0  0  0  0  0  0  0  0  0  0  0
  148.1178  134.6055  190.7813 H   0  0  0  0  0  0  0  0  0  0  0  0
  148.2108  134.8660  188.3149 H   0  0  0  0  0  0  0  0  0  0  0  0
  149.6345  133.7954  192.9247 C   0  0  0  0  0  0  0  0  0  0  0  0
  149.7117  135.1214  192.1578 C   0  0  0  0  0  0  0  0  0  0  0  0
  153.3949  134.7241  182.4758 C   0  0  0  0  0  0  0  0  0  0  0  0
  152.8777  134.2474  181.2898 C   0  0  0  0  0  0  0  0  0  0  0  0
  153.6929  133.5149  180.4399 C   0  0  0  0  0  0  0  0  0  0  0  0
  155.0051  133.2638  180.7719 C   0  0  0  0  0  0  0  0  0  0  0  0
  155.4948  133.7392  181.9389 N   0  0  0  0  0  0  0  0  0  0  0  0
  154.7099  134.4523  182.7717 C   0  0  0  0  0  0  0  0  0  0  0  0
  152.6445  137.5791  182.1116 O   0  0  0  0  0  0  0  0  0  0  0  0
  152.2636  138.1867  181.0222 C   0  0  0  0  0  0  0  0  0  0  0  0
  152.2867  139.7350  181.1580 C   0  0  0  0  0  0  0  0  0  0  0  0
  151.3416  140.1186  180.0620 C   0  0  0  0  0  0  0  0  0  0  0  0
  150.6683  138.9951  179.6499 O   0  0  0  0  0  0  0  0  0  0  0  0
  150.7766  138.0378  180.6575 C   0  0  0  0  0  0  0  0  0  0  0  0
 16 17  1  0  0  0
 17 10  1  0  0  0
 10 11  1  0  0  0
 11 12  2  0  0  0
 11 13  1  0  0  0
 13  1  1  0  0  0
  1  2  2  0  0  0
  2  3  1  0  0  0
  3  4  2  0  0  0
  4  5  1  0  0  0
  5 18  1  0  0  0
 18 19  2  0  0  0
 19 20  1  0  0  0
 20 21  2  0  0  0
 21 22  1  0  0  0
 22 23  2  0  0  0
  5  6  2  0  0  0
  6 24  1  0  0  0
 24 25  1  0  0  0
 25 26  1  0  0  0
 26 27  1  0  0  0
 27 28  1  0  0  0
 28 29  1  0  0  0
  6  7  1  0  0  0
  7  8  2  0  0  0
  8  9  1  0  0  0
  9  1  1  0  0  0
  8  3  1  0  0  0
 23 18  1  0  0  0
 29 25  1  0  0  0
 10 14  1  0  0  0
 13 15  1  0  0  0
M  END
> <minimizedAffinity>
-4.11233

> <CNNscore>
0.3601907790

> <CNNaffinity>
5.1013064384

> <CNN_VS>
1.8374435902

> <CNNaffinity_variance>
0.3978586197

$$$$
[H]c1nc([H])c(-c2c(O[C@@]3([H])C([H])([H])OC([H])([H])C3([H])[H])nc3sc(N([H])C(=O)N([H])C([H])([H])C([H])([H])[H])nc3c2[H])c([H])c1[H]


 29 32  0  0  0  0  0  0  0  0999 V2000
  155.3259  139.0928  184.8477 C   0  0  0  0  0  0  0  0  0  0  0  0
  156.0057  138.5313  185.8217 N   0  0  0  0  0  0  0  0  0  0  0  0
  155.3891  138.0118  186.8354 C   0  0  0  0  0  0  0  0  0  0  0  0
  155.9887  137.3848  187.9405 C   0  0  0  0  0  0  0  0  0  0  0  0
  155.1813  136.8799  188.9449 C   0  0  0  0  0  0  0  0  0  0  0  0
  153.8123  136.9286  188.9712 C   0  0  0  0  0  0  0  0  0  0  0  0
  153.2781  137.5630  187.8507 N   0  0  0  0  0  0  0  0  0  0  0  0
  154.0226  138.0638  186.8625 C   0  0  0  0  0  0  0  0  0  0  0  0
  153.7043  138.8874  185.3726 S   0  0  0  0  0  0  0  0  0  0  0  0
  157.1543  141.4334  182.5077 N   0  0  0  0  0  0  0  0  0  0  0  0
  156.6768  140.8187  183.6845 C   0  0  0  0  0  0  0  0  0  0  0  0
  157.0445  141.2796  184.8140 O   0  0  0  0  0  0  0  0  0  0  0  0
  155.8132  139.7203  183.6466 N   0  0  0  0  0  0  0  0  0  0  0  0
  156.8502  141.0521  181.5887 H   0  0  0  0  0  0  0  0  0  0  0  0
  155.4980  139.3248  182.7495 H   0  0  0  0  0  0  0  0  0  0  0  0
  157.4121  143.7829  181.8737 C   0  0  0  0  0  0  0  0  0  0  0  0
  158.0495  142.5716  182.5656 C   0  0  0  0  0  0  0  0  0  0  0  0
  155.8900  136.3064  190.1126 C   0  0  0  0  0  0  0  0  0  0  0  0
  156.2975  134.9891  190.1092 C   0  0  0  0  0  0  0  0  0  0  0  0
  156.9439  134.4760  191.2238 C   0  0  0  0  0  0  0  0  0  0  0  0
  157.1788  135.2691  192.3242 C   0  0  0  0  0  0  0  0  0  0  0  0
  156.7721  136.5583  192.3095 N   0  0  0  0  0  0  0  0  0  0  0  0
  156.1428  137.0661  191.2305 C   0  0  0  0  0  0  0  0  0  0  0  0
  152.9319  136.4842  189.8576 O   0  0  0  0  0  0  0  0  0  0  0  0
  152.2392  136.7971  190.9174 C   0  0  0  0  0  0  0  0  0  0  0  0
  152.8512  136.2239  192.2263 C   0  0  0  0  0  0  0  0  0  0  0  0
  151.6509  136.2474  193.1211 C   0  0  0  0  0  0  0  0  0  0  0  0
  150.5334  136.4551  192.3508 O   0  0  0  0  0  0  0  0  0  0  0  0
  150.8561  136.1338  191.0332 C   0  0  0  0  0  0  0  0  0  0  0  0
 16 17  1  0  0  0
 17 10  1  0  0  0
 10 11  1  0  0  0
 11 12  2  0  0  0
 11 13  1  0  0  0
 13  1  1  0  0  0
  1  2  2  0  0  0
  2  3  1  0  0  0
  3  4  2  0  0  0
  4  5  1  0  0  0
  5 18  1  0  0  0
 18 19  2  0  0  0
 19 20  1  0  0  0
 20 21  2  0  0  0
 21 22  1  0  0  0
 22 23  2  0  0  0
  5  6  2  0  0  0
  6 24  1  0  0  0
 24 25  1  0  0  0
 25 26  1  0  0  0
 26 27  1  0  0  0
 27 28  1  0  0  0
 28 29  1  0  0  0
  6  7  1  0  0  0
  7  8  2  0  0  0
  8  9  1  0  0  0
  9  1  1  0  0  0
  8  3  1  0  0  0
 23 18  1  0  0  0
 29 25  1  0  0  0
 10 14  1  0  0  0
 13 15  1  0  0  0
M  END
> <minimizedAffinity>
-5.84181

> <CNNscore>
0.3523386121

> <CNNaffinity>
5.4532289505

> <CNN_VS>
1.9213831425

> <CNNaffinity_variance>
0.0844496042

$$$$
[H]OC(=O)[C@@]1([H])N(C(=O)[C@@]([H])(N([H])C(=O)[C@@]([H])(N([H])[H])C([H])([H])c2c([H])c([H])c(O[H])c([H])c2[H])C([H])([H])c2c([H])c([H])c(O[H])c([H])c2[H])C([H])([H])C([H])([H])C1([H])[H]


 38 40  0  0  0  0  0  0  0  0999 V2000
  152.8572  139.3563  182.4337 C   0  0  0  0  0  0  0  0  0  0  0  0
  152.9867  138.0567  183.1386 C   0  0  0  0  0  0  0  0  0  0  0  0
  152.7832  137.0246  182.3978 O   0  0  0  0  0  0  0  0  0  0  0  0
  153.3111  137.9101  184.5056 N   0  0  0  0  0  0  0  0  0  0  0  0
  153.5387  138.9744  185.4276 C   0  0  0  0  0  0  0  0  0  0  0  0
  154.6524  138.4326  186.3034 C   0  0  0  0  0  0  0  0  0  0  0  0
  154.8610  136.9907  185.8931 C   0  0  0  0  0  0  0  0  0  0  0  0
  153.5126  136.6882  185.2088 C   0  0  0  0  0  0  0  0  0  0  0  0
  152.5767  136.4145  186.3095 C   0  0  0  0  0  0  0  0  0  0  0  0
  152.8893  135.9240  187.5499 O   0  0  0  0  0  0  0  0  0  0  0  0
  151.3223  136.6465  186.1307 O   0  0  0  0  0  0  0  0  0  0  0  0
  152.4687  135.0741  187.9135 H   0  0  0  0  0  0  0  0  0  0  0  0
  154.4743  141.2969  182.3250 C   0  0  0  0  0  0  0  0  0  0  0  0
  153.4859  142.0562  182.4890 O   0  0  0  0  0  0  0  0  0  0  0  0
  154.2254  139.9206  182.2865 N   0  0  0  0  0  0  0  0  0  0  0  0
  154.9987  139.2446  182.1521 H   0  0  0  0  0  0  0  0  0  0  0  0
  155.8656  142.9470  183.2446 N   0  0  0  0  0  0  0  0  0  0  0  0
  155.8068  141.9135  182.1879 C   0  0  0  0  0  0  0  0  0  0  0  0
  156.7568  143.4703  183.0826 H   0  0  0  0  0  0  0  0  0  0  0  0
  155.9867  142.3842  184.1386 H   0  0  0  0  0  0  0  0  0  0  0  0
  156.9284  140.9907  182.4857 C   0  0  0  0  0  0  0  0  0  0  0  0
  157.9306  141.4376  183.4487 C   0  0  0  0  0  0  0  0  0  0  0  0
  157.8655  141.0300  184.7794 C   0  0  0  0  0  0  0  0  0  0  0  0
  158.8161  141.4344  185.6944 C   0  0  0  0  0  0  0  0  0  0  0  0
  159.8630  142.2523  185.3358 C   0  0  0  0  0  0  0  0  0  0  0  0
  160.7989  142.6351  186.2921 O   0  0  0  0  0  0  0  0  0  0  0  0
  159.9394  142.6633  184.0214 C   0  0  0  0  0  0  0  0  0  0  0  0
  158.9854  142.2556  183.1101 C   0  0  0  0  0  0  0  0  0  0  0  0
  161.5522  143.2378  185.9799 H   0  0  0  0  0  0  0  0  0  0  0  0
  152.3944  139.2167  181.0038 C   0  0  0  0  0  0  0  0  0  0  0  0
  150.9583  139.1453  180.7834 C   0  0  0  0  0  0  0  0  0  0  0  0
  150.4352  138.9255  179.5112 C   0  0  0  0  0  0  0  0  0  0  0  0
  149.0802  138.8173  179.2720 C   0  0  0  0  0  0  0  0  0  0  0  0
  148.1846  138.9248  180.3020 C   0  0  0  0  0  0  0  0  0  0  0  0
  146.8115  138.8158  180.0662 O   0  0  0  0  0  0  0  0  0  0  0  0
  148.6720  139.1428  181.5734 C   0  0  0  0  0  0  0  0  0  0  0  0
  150.0399  139.2505  181.8017 C   0  0  0  0  0  0  0  0  0  0  0  0
  146.3542  137.9109  180.1104 H   0  0  0  0  0  0  0  0  0  0  0  0
 17 18  1  0  0  0
 18 21  1  0  0  0
 21 22  1  0  0  0
 22 23  2  0  0  0
 23 24  1  0  0  0
 24 25  2  0  0  0
 25 26  1  0  0  0
 25 27  1  0  0  0
 27 28  2  0  0  0
 18 13  1  0  0  0
 13 14  2  0  0  0
 13 15  1  0  0  0
 15  1  1  0  0  0
  1 30  1  0  0  0
 30 31  1  0  0  0
 31 32  2  0  0  0
 32 33  1  0  0  0
 33 34  2  0  0  0
 34 35  1  0  0  0
 34 36  1  0  0  0
 36 37  2  0  0  0
  1  2  1  0  0  0
  2  3  2  0  0  0
  2  4  1  0  0  0
  4  5  1  0  0  0
  5  6  1  0  0  0
  6  7  1  0  0  0
  7  8  1  0  0  0
  8  9  1  0  0  0
  9 10  1  0  0  0
  9 11  2  0  0  0
 28 22  1  0  0  0
 37 31  1  0  0  0
  8  4  1  0  0  0
 17 19  1  0  0  0
 17 20  1  0  0  0
 26 29  1  0  0  0
 15 16  1  0  0  0
 35 38  1  0  0  0
 10 12  1  0  0  0
M  END
> <minimizedAffinity>
-7.59729

> <CNNscore>
0.3427368402

> <CNNaffinity>
5.8745393753

> <CNN_VS>
2.0134210587

> <CNNaffinity_variance>
0.0847875625

$$$$
[H]OC(=O)[C@@]1([H])N(C(=O)[C@@]([H])(N([H])C(=O)[C@@]([H])(N([H])[H])C([H])([H])c2c([H])c([H])c(O[H])c([H])c2[H])C([H])([H])c2c([H])c([H])c(O[H])c([H])c2[H])C([H])([H])C([H])([H])C1([H])[H]


 38 40  0  0  0  0  0  0  0  0999 V2000
  155.0966  137.8888  187.0247 C   0  0  0  0  0  0  0  0  0  0  0  0
  155.1521  136.4302  186.7563 C   0  0  0  0  0  0  0  0  0  0  0  0
  154.3771  136.0313  185.8099 O   0  0  0  0  0  0  0  0  0  0  0  0
  155.9749  135.5142  187.4486 N   0  0  0  0  0  0  0  0  0  0  0  0
  156.8568  135.8326  188.5235 C   0  0  0  0  0  0  0  0  0  0  0  0
  158.0415  134.9189  188.2726 C   0  0  0  0  0  0  0  0  0  0  0  0
  157.6501  134.0098  187.1276 C   0  0  0  0  0  0  0  0  0  0  0  0
  156.1131  134.1218  187.1835 C   0  0  0  0  0  0  0  0  0  0  0  0
  155.7015  133.2144  188.2651 C   0  0  0  0  0  0  0  0  0  0  0  0
  154.8416  133.4992  189.2928 O   0  0  0  0  0  0  0  0  0  0  0  0
  156.1758  132.0169  188.2856 O   0  0  0  0  0  0  0  0  0  0  0  0
  155.1161  133.4031  190.2658 H   0  0  0  0  0  0  0  0  0  0  0  0
  155.9881  139.2816  185.1122 C   0  0  0  0  0  0  0  0  0  0  0  0
  157.0852  139.3183  185.7249 O   0  0  0  0  0  0  0  0  0  0  0  0
  154.9409  138.5764  185.7151 N   0  0  0  0  0  0  0  0  0  0  0  0
  154.0127  138.5119  185.2599 H   0  0  0  0  0  0  0  0  0  0  0  0
  154.4682  140.3475  183.6776 N   0  0  0  0  0  0  0  0  0  0  0  0
  155.8942  139.9793  183.8164 C   0  0  0  0  0  0  0  0  0  0  0  0
  154.3668  140.7370  182.7120 H   0  0  0  0  0  0  0  0  0  0  0  0
  154.3511  141.1555  184.3589 H   0  0  0  0  0  0  0  0  0  0  0  0
  156.6324  141.2643  183.7720 C   0  0  0  0  0  0  0  0  0  0  0  0
  157.2418  141.6474  182.5018 C   0  0  0  0  0  0  0  0  0  0  0  0
  157.8583  140.6928  181.6958 C   0  0  0  0  0  0  0  0  0  0  0  0
  158.4241  141.0415  180.4863 C   0  0  0  0  0  0  0  0  0  0  0  0
  158.4046  142.3382  180.0261 C   0  0  0  0  0  0  0  0  0  0  0  0
  158.9877  142.6443  178.8000 O   0  0  0  0  0  0  0  0  0  0  0  0
  157.7974  143.2933  180.8144 C   0  0  0  0  0  0  0  0  0  0  0  0
  157.2329  142.9387  182.0236 C   0  0  0  0  0  0  0  0  0  0  0  0
  158.9478  143.6131  178.5032 H   0  0  0  0  0  0  0  0  0  0  0  0
  153.8576  138.3110  187.7765 C   0  0  0  0  0  0  0  0  0  0  0  0
  153.6766  137.7534  189.1078 C   0  0  0  0  0  0  0  0  0  0  0  0
  154.4902  138.1441  190.1689 C   0  0  0  0  0  0  0  0  0  0  0  0
  154.3237  137.6620  191.4513 C   0  0  0  0  0  0  0  0  0  0  0  0
  153.3295  136.7626  191.7292 C   0  0  0  0  0  0  0  0  0  0  0  0
  153.1558  136.2710  193.0257 O   0  0  0  0  0  0  0  0  0  0  0  0
  152.5075  136.3563  190.6993 C   0  0  0  0  0  0  0  0  0  0  0  0
  152.6856  136.8492  189.4107 C   0  0  0  0  0  0  0  0  0  0  0  0
  152.5441  136.7509  193.6780 H   0  0  0  0  0  0  0  0  0  0  0  0
 17 18  1  0  0  0
 18 21  1  0  0  0
 21 22  1  0  0  0
 22 23  2  0  0  0
 23 24  1  0  0  0
 24 25  2  0  0  0
 25 26  1  0  0  0
 25 27  1  0  0  0
 27 28  2  0  0  0
 18 13  1  0  0  0
 13 14  2  0  0  0
 13 15  1  0  0  0
 15  1  1  0  0  0
  1 30  1  0  0  0
 30 31  1  0  0  0
 31 32  2  0  0  0
 32 33  1  0  0  0
 33 34  2  0  0  0
 34 35  1  0  0  0
 34 36  1  0  0  0
 36 37  2  0  0  0
  1  2  1  0  0  0
  2  3  2  0  0  0
  2  4  1  0  0  0
  4  5  1  0  0  0
  5  6  1  0  0  0
  6  7  1  0  0  0
  7  8  1  0  0  0
  8  9  1  0  0  0
  9 10  1  0  0  0
  9 11  2  0  0  0
 28 22  1  0  0  0
 37 31  1  0  0  0
  8  4  1  0  0  0
 17 19  1  0  0  0
 17 20  1  0  0  0
 26 29  1  0  0  0
 15 16  1  0  0  0
 35 38  1  0  0  0
 10 12  1  0  0  0
M  END
> <minimizedAffinity>
-7.33386

> <CNNscore>
0.3126676381

> <CNNaffinity>
5.5432476997

> <CNN_VS>
1.7331941128

> <CNNaffinity_variance>
0.0307782236

$$$$
[H]OC(=O)[C@@]1([H])N(C(=O)[C@@]([H])(N([H])C(=O)[C@@]([H])(N([H])[H])C([H])([H])c2c([H])c([H])c(O[H])c([H])c2[H])C([H])([H])c2c([H])c([H])c(O[H])c([H])c2[H])C([H])([H])C([H])([H])C1([H])[H]


 38 40  0  0  0  0  0  0  0  0999 V2000
  154.5659  137.6650  185.5567 C   0  0  0  0  0  0  0  0  0  0  0  0
  153.7464  136.4743  185.2203 C   0  0  0  0  0  0  0  0  0  0  0  0
  154.3920  135.5308  184.6299 O   0  0  0  0  0  0  0  0  0  0  0  0
  152.3705  136.3354  185.5087 N   0  0  0  0  0  0  0  0  0  0  0  0
  151.5473  137.3151  186.1387 C   0  0  0  0  0  0  0  0  0  0  0  0
  150.6219  136.4775  187.0008 C   0  0  0  0  0  0  0  0  0  0  0  0
  150.8999  135.0310  186.6525 C   0  0  0  0  0  0  0  0  0  0  0  0
  151.5594  135.1899  185.2677 C   0  0  0  0  0  0  0  0  0  0  0  0
  150.4420  135.3754  184.3298 C   0  0  0  0  0  0  0  0  0  0  0  0
  150.4031  136.2272  183.2576 O   0  0  0  0  0  0  0  0  0  0  0  0
  149.3683  134.6837  184.4981 O   0  0  0  0  0  0  0  0  0  0  0  0
  149.6834  136.9371  183.1609 H   0  0  0  0  0  0  0  0  0  0  0  0
  155.4397  139.5082  184.0628 C   0  0  0  0  0  0  0  0  0  0  0  0
  156.5192  139.4379  184.7030 O   0  0  0  0  0  0  0  0  0  0  0  0
  154.4108  138.6403  184.4447 N   0  0  0  0  0  0  0  0  0  0  0  0
  153.4973  138.6522  183.9563 H   0  0  0  0  0  0  0  0  0  0  0  0
  153.8997  140.7675  182.8191 N   0  0  0  0  0  0  0  0  0  0  0  0
  155.3454  140.4924  182.9686 C   0  0  0  0  0  0  0  0  0  0  0  0
  153.8107  141.3723  181.9702 H   0  0  0  0  0  0  0  0  0  0  0  0
  153.6713  141.3717  183.6638 H   0  0  0  0  0  0  0  0  0  0  0  0
  155.9586  141.8041  183.2871 C   0  0  0  0  0  0  0  0  0  0  0  0
  156.9392  142.3356  182.3450 C   0  0  0  0  0  0  0  0  0  0  0  0
  157.4140  141.5486  181.2979 C   0  0  0  0  0  0  0  0  0  0  0  0
  158.3296  142.0461  180.3930 C   0  0  0  0  0  0  0  0  0  0  0  0
  158.8107  143.3321  180.4840 C   0  0  0  0  0  0  0  0  0  0  0  0
  159.7333  143.7918  179.5489 O   0  0  0  0  0  0  0  0  0  0  0  0
  158.3488  144.1219  181.5161 C   0  0  0  0  0  0  0  0  0  0  0  0
  157.4328  143.6190  182.4186 C   0  0  0  0  0  0  0  0  0  0  0  0
  160.0581  144.7463  179.6572 H   0  0  0  0  0  0  0  0  0  0  0  0
  154.0469  138.4294  186.7503 C   0  0  0  0  0  0  0  0  0  0  0  0
  154.7134  138.1921  188.0214 C   0  0  0  0  0  0  0  0  0  0  0  0
  155.9258  137.5089  188.0822 C   0  0  0  0  0  0  0  0  0  0  0  0
  156.6023  137.2970  189.2664 C   0  0  0  0  0  0  0  0  0  0  0  0
  156.0917  137.7629  190.4482 C   0  0  0  0  0  0  0  0  0  0  0  0
  156.7722  137.5518  191.6504 O   0  0  0  0  0  0  0  0  0  0  0  0
  154.8927  138.4432  190.4206 C   0  0  0  0  0  0  0  0  0  0  0  0
  154.2200  138.6499  189.2207 C   0  0  0  0  0  0  0  0  0  0  0  0
  157.4524  138.2290  191.9800 H   0  0  0  0  0  0  0  0  0  0  0  0
 17 18  1  0  0  0
 18 21  1  0  0  0
 21 22  1  0  0  0
 22 23  2  0  0  0
 23 24  1  0  0  0
 24 25  2  0  0  0
 25 26  1  0  0  0
 25 27  1  0  0  0
 27 28  2  0  0  0
 18 13  1  0  0  0
 13 14  2  0  0  0
 13 15  1  0  0  0
 15  1  1  0  0  0
  1 30  1  0  0  0
 30 31  1  0  0  0
 31 32  2  0  0  0
 32 33  1  0  0  0
 33 34  2  0  0  0
 34 35  1  0  0  0
 34 36  1  0  0  0
 36 37  2  0  0  0
  1  2  1  0  0  0
  2  3  2  0  0  0
  2  4  1  0  0  0
  4  5  1  0  0  0
  5  6  1  0  0  0
  6  7  1  0  0  0
  7  8  1  0  0  0
  8  9  1  0  0  0
  9 10  1  0  0  0
  9 11  2  0  0  0
 28 22  1  0  0  0
 37 31  1  0  0  0
  8  4  1  0  0  0
 17 19  1  0  0  0
 17 20  1  0  0  0
 26 29  1  0  0  0
 15 16  1  0  0  0
 35 38  1  0  0  0
 10 12  1  0  0  0
M  END
> <minimizedAffinity>
-7.32970

> <CNNscore>
0.2653484643

> <CNNaffinity>
5.5489029884

> <CNN_VS>
1.4723929167

> <CNNaffinity_variance>
0.0324624851

$$$$
[H]OC(=O)[C@@]1([H])N(C(=O)[C@@]([H])(N([H])C(=O)[C@@]([H])(N([H])[H])C([H])([H])c2c([H])c([H])c(O[H])c([H])c2[H])C([H])([H])c2c([H])c([H])c(O[H])c([H])c2[H])C([H])([H])C([H])([H])C1([H])[H]


 38 40  0  0  0  0  0  0  0  0999 V2000
  153.5372  138.2547  184.3805 C   0  0  0  0  0  0  0  0  0  0  0  0
  153.5622  137.1800  185.4038 C   0  0  0  0  0  0  0  0  0  0  0  0
  153.7552  135.9983  184.9328 O   0  0  0  0  0  0  0  0  0  0  0  0
  153.4000  137.3851  186.7919 N   0  0  0  0  0  0  0  0  0  0  0  0
  153.1620  138.6396  187.4275 C   0  0  0  0  0  0  0  0  0  0  0  0
  153.9520  138.5221  188.7172 C   0  0  0  0  0  0  0  0  0  0  0  0
  154.4594  137.0977  188.7838 C   0  0  0  0  0  0  0  0  0  0  0  0
  153.4834  136.3988  187.8159 C   0  0  0  0  0  0  0  0  0  0  0  0
  152.2592  136.1765  188.5998 C   0  0  0  0  0  0  0  0  0  0  0  0
  150.9722  136.1790  188.1304 O   0  0  0  0  0  0  0  0  0  0  0  0
  152.3632  135.9521  189.8640 O   0  0  0  0  0  0  0  0  0  0  0  0
  150.2632  136.7999  188.5089 H   0  0  0  0  0  0  0  0  0  0  0  0
  155.2130  140.1110  184.0078 C   0  0  0  0  0  0  0  0  0  0  0  0
  154.2372  140.9000  183.9330 O   0  0  0  0  0  0  0  0  0  0  0  0
  154.9283  138.7595  184.2315 N   0  0  0  0  0  0  0  0  0  0  0  0
  155.6898  138.0608  184.3009 H   0  0  0  0  0  0  0  0  0  0  0  0
  157.3747  140.0246  184.9153 N   0  0  0  0  0  0  0  0  0  0  0  0
  156.5692  140.6694  183.8552 C   0  0  0  0  0  0  0  0  0  0  0  0
  158.3069  140.4990  184.8936 H   0  0  0  0  0  0  0  0  0  0  0  0
  157.5150  139.0340  184.5553 H   0  0  0  0  0  0  0  0  0  0  0  0
  157.2325  140.2953  182.5831 C   0  0  0  0  0  0  0  0  0  0  0  0
  157.8986  141.3565  181.8335 C   0  0  0  0  0  0  0  0  0  0  0  0
  158.1976  141.1892  180.4831 C   0  0  0  0  0  0  0  0  0  0  0  0
  158.8136  142.1915  179.7616 C   0  0  0  0  0  0  0  0  0  0  0  0
  159.1571  143.3920  180.3398 C   0  0  0  0  0  0  0  0  0  0  0  0
  159.7769  144.3749  179.5736 O   0  0  0  0  0  0  0  0  0  0  0  0
  158.8668  143.5708  181.6762 C   0  0  0  0  0  0  0  0  0  0  0  0
  158.2504  142.5644  182.3932 C   0  0  0  0  0  0  0  0  0  0  0  0
  160.0104  145.2424  180.0438 H   0  0  0  0  0  0  0  0  0  0  0  0
  153.2105  137.7527  182.9950 C   0  0  0  0  0  0  0  0  0  0  0  0
  151.9563  138.2041  182.4128 C   0  0  0  0  0  0  0  0  0  0  0  0
  150.7326  137.7395  182.8895 C   0  0  0  0  0  0  0  0  0  0  0  0
  149.5237  138.1730  182.3840 C   0  0  0  0  0  0  0  0  0  0  0  0
  149.4868  139.0961  181.3735 C   0  0  0  0  0  0  0  0  0  0  0  0
  148.2659  139.5390  180.8578 O   0  0  0  0  0  0  0  0  0  0  0  0
  150.6821  139.5750  180.8802 C   0  0  0  0  0  0  0  0  0  0  0  0
  151.8942  139.1299  181.3976 C   0  0  0  0  0  0  0  0  0  0  0  0
  147.8031  140.3480  181.2596 H   0  0  0  0  0  0  0  0  0  0  0  0
 17 18  1  0  0  0
 18 21  1  0  0  0
 21 22  1  0  0  0
 22 23  2  0  0  0
 23 24  1  0  0  0
 24 25  2  0  0  0
 25 26  1  0  0  0
 25 27  1  0  0  0
 27 28  2  0  0  0
 18 13  1  0  0  0
 13 14  2  0  0  0
 13 15  1  0  0  0
 15  1  1  0  0  0
  1 30  1  0  0  0
 30 31  1  0  0  0
 31 32  2  0  0  0
 32 33  1  0  0  0
 33 34  2  0  0  0
 34 35  1  0  0  0
 34 36  1  0  0  0
 36 37  2  0  0  0
  1  2  1  0  0  0
  2  3  2  0  0  0
  2  4  1  0  0  0
  4  5  1  0  0  0
  5  6  1  0  0  0
  6  7  1  0  0  0
  7  8  1  0  0  0
  8  9  1  0  0  0
  9 10  1  0  0  0
  9 11  2  0  0  0
 28 22  1  0  0  0
 37 31  1  0  0  0
  8  4  1  0  0  0
 17 19  1  0  0  0
 17 20  1  0  0  0
 26 29  1  0  0  0
 15 16  1  0  0  0
 35 38  1  0  0  0
 10 12  1  0  0  0
M  END
> <minimizedAffinity>
-7.38052

> <CNNscore>
0.2547560334

> <CNNaffinity>
5.7300214767

> <CNN_VS>
1.4597575665

> <CNNaffinity_variance>
0.0694217086

$$$$
[H]OC(=O)[C@@]1([H])N(C(=O)[C@@]([H])(N([H])C(=O)[C@@]([H])(N([H])[H])C([H])([H])c2c([H])c([H])c(O[H])c([H])c2[H])C([H])([H])c2c([H])c([H])c(O[H])c([H])c2[H])C([H])([H])C([H])([H])C1([H])[H]


 38 40  0  0  0  0  0  0  0  0999 V2000
  154.4667  137.6056  186.3986 C   0  0  0  0  0  0  0  0  0  0  0  0
  153.3522  137.4738  187.3699 C   0  0  0  0  0  0  0  0  0  0  0  0
  152.8315  138.5906  187.7403 O   0  0  0  0  0  0  0  0  0  0  0  0
  152.8614  136.2480  187.8717 N   0  0  0  0  0  0  0  0  0  0  0  0
  153.3673  134.9533  187.5518 C   0  0  0  0  0  0  0  0  0  0  0  0
  152.1135  134.1005  187.5066 C   0  0  0  0  0  0  0  0  0  0  0  0
  150.9766  134.9799  187.9808 C   0  0  0  0  0  0  0  0  0  0  0  0
  151.7547  136.0669  188.7495 C   0  0  0  0  0  0  0  0  0  0  0  0
  152.0589  135.4681  190.0577 C   0  0  0  0  0  0  0  0  0  0  0  0
  153.2197  135.6038  190.7725 O   0  0  0  0  0  0  0  0  0  0  0  0
  151.1679  134.7318  190.6263 O   0  0  0  0  0  0  0  0  0  0  0  0
  153.7701  134.8007  191.0616 H   0  0  0  0  0  0  0  0  0  0  0  0
  153.6859  138.4787  184.1579 C   0  0  0  0  0  0  0  0  0  0  0  0
  153.6036  137.2813  183.7838 O   0  0  0  0  0  0  0  0  0  0  0  0
  154.1172  138.7121  185.4682 N   0  0  0  0  0  0  0  0  0  0  0  0
  154.2070  139.6772  185.8338 H   0  0  0  0  0  0  0  0  0  0  0  0
  154.5120  140.4100  183.1132 N   0  0  0  0  0  0  0  0  0  0  0  0
  153.3235  139.5330  183.1926 C   0  0  0  0  0  0  0  0  0  0  0  0
  154.2259  141.2256  182.5238 H   0  0  0  0  0  0  0  0  0  0  0  0
  155.2073  139.8385  182.5470 H   0  0  0  0  0  0  0  0  0  0  0  0
  153.1156  139.0360  181.8114 C   0  0  0  0  0  0  0  0  0  0  0  0
  151.7451  138.9952  181.3095 C   0  0  0  0  0  0  0  0  0  0  0  0
  151.4737  139.2610  179.9691 C   0  0  0  0  0  0  0  0  0  0  0  0
  150.1837  139.2104  179.4811 C   0  0  0  0  0  0  0  0  0  0  0  0
  149.1162  138.8973  180.2910 C   0  0  0  0  0  0  0  0  0  0  0  0
  147.8320  138.8578  179.7557 O   0  0  0  0  0  0  0  0  0  0  0  0
  149.3710  138.6319  181.6202 C   0  0  0  0  0  0  0  0  0  0  0  0
  150.6636  138.6841  182.1030 C   0  0  0  0  0  0  0  0  0  0  0  0
  147.0781  138.6219  180.3915 H   0  0  0  0  0  0  0  0  0  0  0  0
  155.7523  138.0865  187.0265 C   0  0  0  0  0  0  0  0  0  0  0  0
  156.0334  137.6285  188.3783 C   0  0  0  0  0  0  0  0  0  0  0  0
  155.7687  138.4363  189.4819 C   0  0  0  0  0  0  0  0  0  0  0  0
  155.9903  138.0203  190.7790 C   0  0  0  0  0  0  0  0  0  0  0  0
  156.4891  136.7701  191.0295 C   0  0  0  0  0  0  0  0  0  0  0  0
  156.7153  136.3432  192.3408 O   0  0  0  0  0  0  0  0  0  0  0  0
  156.7614  135.9469  189.9574 C   0  0  0  0  0  0  0  0  0  0  0  0
  156.5343  136.3778  188.6544 C   0  0  0  0  0  0  0  0  0  0  0  0
  155.9828  135.8685  192.8587 H   0  0  0  0  0  0  0  0  0  0  0  0
 17 18  1  0  0  0
 18 21  1  0  0  0
 21 22  1  0  0  0
 22 23  2  0  0  0
 23 24  1  0  0  0
 24 25  2  0  0  0
 25 26  1  0  0  0
 25 27  1  0  0  0
 27 28  2  0  0  0
 18 13  1  0  0  0
 13 14  2  0  0  0
 13 15  1  0  0  0
 15  1  1  0  0  0
  1 30  1  0  0  0
 30 31  1  0  0  0
 31 32  2  0  0  0
 32 33  1  0  0  0
 33 34  2  0  0  0
 34 35  1  0  0  0
 34 36  1  0  0  0
 36 37  2  0  0  0
  1  2  1  0  0  0
  2  3  2  0  0  0
  2  4  1  0  0  0
  4  5  1  0  0  0
  5  6  1  0  0  0
  6  7  1  0  0  0
  7  8  1  0  0  0
  8  9  1  0  0  0
  9 10  1  0  0  0
  9 11  2  0  0  0
 28 22  1  0  0  0
 37 31  1  0  0  0
  8  4  1  0  0  0
 17 19  1  0  0  0
 17 20  1  0  0  0
 26 29  1  0  0  0
 15 16  1  0  0  0
 35 38  1  0  0  0
 10 12  1  0  0  0
M  END
> <minimizedAffinity>
-6.42068

> <CNNscore>
0.2444764227

> <CNNaffinity>
5.1088776588

> <CNN_VS>
1.2490001917

> <CNNaffinity_variance>
0.0959515795

$$$$
[H]OC(=O)[C@@]1([H])N(C(=O)[C@@]([H])(N([H])C(=O)[C@@]([H])(N([H])[H])C([H])([H])c2c([H])c([H])c(O[H])c([H])c2[H])C([H])([H])c2c([H])c([H])c(O[H])c([H])c2[H])C([H])([H])C([H])([H])C1([H])[H]


 38 40  0  0  0  0  0  0  0  0999 V2000
  155.1638  139.3244  184.4389 C   0  0  0  0  0  0  0  0  0  0  0  0
  155.6222  138.7957  185.7478 C   0  0  0  0  0  0  0  0  0  0  0  0
  156.8815  138.9380  185.9700 O   0  0  0  0  0  0  0  0  0  0  0  0
  154.7854  138.1846  186.7078 N   0  0  0  0  0  0  0  0  0  0  0  0
  153.3847  137.9544  186.5676 C   0  0  0  0  0  0  0  0  0  0  0  0
  152.8587  138.1969  187.9696 C   0  0  0  0  0  0  0  0  0  0  0  0
  154.0694  138.3934  188.8564 C   0  0  0  0  0  0  0  0  0  0  0  0
  155.1644  137.7244  188.0011 C   0  0  0  0  0  0  0  0  0  0  0  0
  155.0126  136.2819  188.2436 C   0  0  0  0  0  0  0  0  0  0  0  0
  155.1358  135.2770  187.3206 O   0  0  0  0  0  0  0  0  0  0  0  0
  154.7347  135.8780  189.4348 O   0  0  0  0  0  0  0  0  0  0  0  0
  154.3866  134.6145  187.1440 H   0  0  0  0  0  0  0  0  0  0  0  0
  156.7160  141.0237  183.3922 C   0  0  0  0  0  0  0  0  0  0  0  0
  155.9498  141.9146  183.8387 O   0  0  0  0  0  0  0  0  0  0  0  0
  156.3755  139.6932  183.6592 N   0  0  0  0  0  0  0  0  0  0  0  0
  156.9664  138.9146  183.3163 H   0  0  0  0  0  0  0  0  0  0  0  0
  158.0213  142.9034  182.8754 N   0  0  0  0  0  0  0  0  0  0  0  0
  157.9037  141.4496  182.6288 C   0  0  0  0  0  0  0  0  0  0  0  0
  158.7874  143.2383  182.2468 H   0  0  0  0  0  0  0  0  0  0  0  0
  158.3834  142.9594  183.8736 H   0  0  0  0  0  0  0  0  0  0  0  0
  159.1749  140.8686  183.1235 C   0  0  0  0  0  0  0  0  0  0  0  0
  159.7899  141.4908  184.2923 C   0  0  0  0  0  0  0  0  0  0  0  0
  161.0827  142.0053  184.2226 C   0  0  0  0  0  0  0  0  0  0  0  0
  161.6678  142.6089  185.3171 C   0  0  0  0  0  0  0  0  0  0  0  0
  161.0051  142.7286  186.5171 C   0  0  0  0  0  0  0  0  0  0  0  0
  161.6342  143.3452  187.5947 O   0  0  0  0  0  0  0  0  0  0  0  0
  159.7243  142.2234  186.5997 C   0  0  0  0  0  0  0  0  0  0  0  0
  159.1439  141.6204  185.5015 C   0  0  0  0  0  0  0  0  0  0  0  0
  161.1055  143.4100  188.4576 H   0  0  0  0  0  0  0  0  0  0  0  0
  154.5083  138.2794  183.5692 C   0  0  0  0  0  0  0  0  0  0  0  0
  153.3123  138.6837  182.8466 C   0  0  0  0  0  0  0  0  0  0  0  0
  153.2807  139.8663  182.1110 C   0  0  0  0  0  0  0  0  0  0  0  0
  152.1754  140.2625  181.3858 C   0  0  0  0  0  0  0  0  0  0  0  0
  151.0468  139.4876  181.3651 C   0  0  0  0  0  0  0  0  0  0  0  0
  149.9245  139.8833  180.6325 O   0  0  0  0  0  0  0  0  0  0  0  0
  151.0472  138.3108  182.0838 C   0  0  0  0  0  0  0  0  0  0  0  0
  152.1675  137.9225  182.8113 C   0  0  0  0  0  0  0  0  0  0  0  0
  149.8194  139.6007  179.6634 H   0  0  0  0  0  0  0  0  0  0  0  0
 17 18  1  0  0  0
 18 21  1  0  0  0
 21 22  1  0  0  0
 22 23  2  0  0  0
 23 24  1  0  0  0
 24 25  2  0  0  0
 25 26  1  0  0  0
 25 27  1  0  0  0
 27 28  2  0  0  0
 18 13  1  0  0  0
 13 14  2  0  0  0
 13 15  1  0  0  0
 15  1  1  0  0  0
  1 30  1  0  0  0
 30 31  1  0  0  0
 31 32  2  0  0  0
 32 33  1  0  0  0
 33 34  2  0  0  0
 34 35  1  0  0  0
 34 36  1  0  0  0
 36 37  2  0  0  0
  1  2  1  0  0  0
  2  3  2  0  0  0
  2  4  1  0  0  0
  4  5  1  0  0  0
  5  6  1  0  0  0
  6  7  1  0  0  0
  7  8  1  0  0  0
  8  9  1  0  0  0
  9 10  1  0  0  0
  9 11  2  0  0  0
 28 22  1  0  0  0
 37 31  1  0  0  0
  8  4  1  0  0  0
 17 19  1  0  0  0
 17 20  1  0  0  0
 26 29  1  0  0  0
 15 16  1  0  0  0
 35 38  1  0  0  0
 10 12  1  0  0  0
M  END
> <minimizedAffinity>
-8.51365

> <CNNscore>
0.2388082296

> <CNNaffinity>
5.8965268135

> <CNN_VS>
1.4081391096

> <CNNaffinity_variance>
0.0093311463

$$$$
[H]OC(=O)[C@@]1([H])N(C(=O)[C@@]([H])(N([H])C(=O)[C@@]([H])(N([H])[H])C([H])([H])c2c([H])c([H])c(O[H])c([H])c2[H])C([H])([H])c2c([H])c([H])c(O[H])c([H])c2[H])C([H])([H])C([H])([H])C1([H])[H]


 38 40  0  0  0  0  0  0  0  0999 V2000
  154.6669  136.2365  189.5113 C   0  0  0  0  0  0  0  0  0  0  0  0
  154.0397  136.7574  190.7514 C   0  0  0  0  0  0  0  0  0  0  0  0
  154.6568  137.7524  191.2849 O   0  0  0  0  0  0  0  0  0  0  0  0
  152.8601  136.2440  191.3349 N   0  0  0  0  0  0  0  0  0  0  0  0
  152.1024  135.1376  190.8489 C   0  0  0  0  0  0  0  0  0  0  0  0
  150.6718  135.5555  191.1317 C   0  0  0  0  0  0  0  0  0  0  0  0
  150.7473  136.8389  191.9304 C   0  0  0  0  0  0  0  0  0  0  0  0
  152.1847  136.7508  192.4817 C   0  0  0  0  0  0  0  0  0  0  0  0
  152.0983  135.8420  193.6346 C   0  0  0  0  0  0  0  0  0  0  0  0
  153.0392  134.9292  194.0326 O   0  0  0  0  0  0  0  0  0  0  0  0
  151.0442  135.8752  194.3743 O   0  0  0  0  0  0  0  0  0  0  0  0
  152.8234  133.9415  194.1281 H   0  0  0  0  0  0  0  0  0  0  0  0
  153.9913  136.4710  187.0862 C   0  0  0  0  0  0  0  0  0  0  0  0
  154.3814  135.2873  186.9219 O   0  0  0  0  0  0  0  0  0  0  0  0
  154.1090  137.0117  188.3712 N   0  0  0  0  0  0  0  0  0  0  0  0
  153.8064  137.9825  188.5687 H   0  0  0  0  0  0  0  0  0  0  0  0
  151.9786  137.0126  186.0092 N   0  0  0  0  0  0  0  0  0  0  0  0
  153.4446  137.1889  185.9198 C   0  0  0  0  0  0  0  0  0  0  0  0
  151.5885  137.4152  185.1260 H   0  0  0  0  0  0  0  0  0  0  0  0
  151.6967  137.6602  186.8041 H   0  0  0  0  0  0  0  0  0  0  0  0
  153.6618  138.6550  185.9619 C   0  0  0  0  0  0  0  0  0  0  0  0
  154.4822  139.2447  184.9079 C   0  0  0  0  0  0  0  0  0  0  0  0
  153.8877  139.8662  183.8119 C   0  0  0  0  0  0  0  0  0  0  0  0
  154.6538  140.4399  182.8177 C   0  0  0  0  0  0  0  0  0  0  0  0
  156.0290  140.4238  182.8645 C   0  0  0  0  0  0  0  0  0  0  0  0
  156.7615  141.0152  181.8394 O   0  0  0  0  0  0  0  0  0  0  0  0
  156.6304  139.8116  183.9443 C   0  0  0  0  0  0  0  0  0  0  0  0
  155.8589  139.2392  184.9361 C   0  0  0  0  0  0  0  0  0  0  0  0
  157.7718  140.9783  181.9185 H   0  0  0  0  0  0  0  0  0  0  0  0
  156.1459  136.5248  189.4235 C   0  0  0  0  0  0  0  0  0  0  0  0
  157.0462  135.3988  189.6174 C   0  0  0  0  0  0  0  0  0  0  0  0
  158.0052  135.0707  188.6619 C   0  0  0  0  0  0  0  0  0  0  0  0
  158.8978  134.0315  188.8294 C   0  0  0  0  0  0  0  0  0  0  0  0
  158.8692  133.2710  189.9675 C   0  0  0  0  0  0  0  0  0  0  0  0
  159.7706  132.2175  190.1429 O   0  0  0  0  0  0  0  0  0  0  0  0
  157.9308  133.5711  190.9322 C   0  0  0  0  0  0  0  0  0  0  0  0
  157.0361  134.6209  190.7515 C   0  0  0  0  0  0  0  0  0  0  0  0
  160.6680  132.3798  190.5882 H   0  0  0  0  0  0  0  0  0  0  0  0
 17 18  1  0  0  0
 18 21  1  0  0  0
 21 22  1  0  0  0
 22 23  2  0  0  0
 23 24  1  0  0  0
 24 25  2  0  0  0
 25 26  1  0  0  0
 25 27  1  0  0  0
 27 28  2  0  0  0
 18 13  1  0  0  0
 13 14  2  0  0  0
 13 15  1  0  0  0
 15  1  1  0  0  0
  1 30  1  0  0  0
 30 31  1  0  0  0
 31 32  2  0  0  0
 32 33  1  0  0  0
 33 34  2  0  0  0
 34 35  1  0  0  0
 34 36  1  0  0  0
 36 37  2  0  0  0
  1  2  1  0  0  0
  2  3  2  0  0  0
  2  4  1  0  0  0
  4  5  1  0  0  0
  5  6  1  0  0  0
  6  7  1  0  0  0
  7  8  1  0  0  0
  8  9  1  0  0  0
  9 10  1  0  0  0
  9 11  2  0  0  0
 28 22  1  0  0  0
 37 31  1  0  0  0
  8  4  1  0  0  0
 17 19  1  0  0  0
 17 20  1  0  0  0
 26 29  1  0  0  0
 15 16  1  0  0  0
 35 38  1  0  0  0
 10 12  1  0  0  0
M  END
> <minimizedAffinity>
-6.85717

> <CNNscore>
0.2192060202

> <CNNaffinity>
5.1250939369

> <CNN_VS>
1.1234514713

> <CNNaffinity_variance>
0.0593634471

$$$$
[H]OC(=O)[C@@]1([H])N(C(=O)[C@@]([H])(N([H])C(=O)[C@@]([H])(N([H])[H])C([H])([H])c2c([H])c([H])c(O[H])c([H])c2[H])C([H])([H])c2c([H])c([H])c(O[H])c([H])c2[H])C([H])([H])C([H])([H])C1([H])[H]


 38 40  0  0  0  0  0  0  0  0999 V2000
  153.4871  138.4344  184.1881 C   0  0  0  0  0  0  0  0  0  0  0  0
  153.4505  137.3230  185.1711 C   0  0  0  0  0  0  0  0  0  0  0  0
  153.5937  136.1516  184.6585 O   0  0  0  0  0  0  0  0  0  0  0  0
  153.2822  137.4846  186.5642 N   0  0  0  0  0  0  0  0  0  0  0  0
  153.0955  138.7249  187.2435 C   0  0  0  0  0  0  0  0  0  0  0  0
  153.8644  138.5235  188.5356 C   0  0  0  0  0  0  0  0  0  0  0  0
  154.3043  137.0754  188.5543 C   0  0  0  0  0  0  0  0  0  0  0  0
  153.3080  136.4588  187.5517 C   0  0  0  0  0  0  0  0  0  0  0  0
  152.0660  136.2655  188.3150 C   0  0  0  0  0  0  0  0  0  0  0  0
  151.9501  136.1282  189.6731 O   0  0  0  0  0  0  0  0  0  0  0  0
  150.9472  136.2143  187.6785 O   0  0  0  0  0  0  0  0  0  0  0  0
  151.5096  135.3166  190.0957 H   0  0  0  0  0  0  0  0  0  0  0  0
  155.2359  140.2252  183.8312 C   0  0  0  0  0  0  0  0  0  0  0  0
  154.2899  141.0405  183.6867 O   0  0  0  0  0  0  0  0  0  0  0  0
  154.8987  138.8914  184.0858 N   0  0  0  0  0  0  0  0  0  0  0  0
  155.6338  138.1727  184.2122 H   0  0  0  0  0  0  0  0  0  0  0  0
  156.5102  142.1893  183.9819 N   0  0  0  0  0  0  0  0  0  0  0  0
  156.6146  140.7368  183.7219 C   0  0  0  0  0  0  0  0  0  0  0  0
  157.4607  142.5824  183.7911 H   0  0  0  0  0  0  0  0  0  0  0  0
  156.3494  142.2447  185.0315 H   0  0  0  0  0  0  0  0  0  0  0  0
  157.5305  140.2209  184.7675 C   0  0  0  0  0  0  0  0  0  0  0  0
  158.7221  141.0095  185.0676 C   0  0  0  0  0  0  0  0  0  0  0  0
  158.8519  141.6575  186.2941 C   0  0  0  0  0  0  0  0  0  0  0  0
  159.9806  142.3930  186.5938 C   0  0  0  0  0  0  0  0  0  0  0  0
  161.0203  142.5179  185.7012 C   0  0  0  0  0  0  0  0  0  0  0  0
  162.1397  143.2696  186.0461 O   0  0  0  0  0  0  0  0  0  0  0  0
  160.9046  141.8813  184.4831 C   0  0  0  0  0  0  0  0  0  0  0  0
  159.7730  141.1468  184.1885 C   0  0  0  0  0  0  0  0  0  0  0  0
  162.8798  143.3320  185.3557 H   0  0  0  0  0  0  0  0  0  0  0  0
  153.1717  137.9958  182.7787 C   0  0  0  0  0  0  0  0  0  0  0  0
  151.8590  138.3482  182.2604 C   0  0  0  0  0  0  0  0  0  0  0  0
  151.7173  139.2683  181.2241 C   0  0  0  0  0  0  0  0  0  0  0  0
  150.4906  139.5992  180.6851 C   0  0  0  0  0  0  0  0  0  0  0  0
  149.3456  139.0201  181.1627 C   0  0  0  0  0  0  0  0  0  0  0  0
  148.1007  139.3510  180.6209 O   0  0  0  0  0  0  0  0  0  0  0  0
  149.4533  138.1053  182.1888 C   0  0  0  0  0  0  0  0  0  0  0  0
  150.6955  137.7803  182.7241 C   0  0  0  0  0  0  0  0  0  0  0  0
  147.7270  138.8257  179.8371 H   0  0  0  0  0  0  0  0  0  0  0  0
 17 18  1  0  0  0
 18 21  1  0  0  0
 21 22  1  0  0  0
 22 23  2  0  0  0
 23 24  1  0  0  0
 24 25  2  0  0  0
 25 26  1  0  0  0
 25 27  1  0  0  0
 27 28  2  0  0  0
 18 13  1  0  0  0
 13 14  2  0  0  0
 13 15  1  0  0  0
 15  1  1  0  0  0
  1 30  1  0  0  0
 30 31  1  0  0  0
 31 32  2  0  0  0
 32 33  1  0  0  0
 33 34  2  0  0  0
 34 35  1  0  0  0
 34 36  1  0  0  0
 36 37  2  0  0  0
  1  2  1  0  0  0
  2  3  2  0  0  0
  2  4  1  0  0  0
  4  5  1  0  0  0
  5  6  1  0  0  0
  6  7  1  0  0  0
  7  8  1  0  0  0
  8  9  1  0  0  0
  9 10  1  0  0  0
  9 11  2  0  0  0
 28 22  1  0  0  0
 37 31  1  0  0  0
  8  4  1  0  0  0
 17 19  1  0  0  0
 17 20  1  0  0  0
 26 29  1  0  0  0
 15 16  1  0  0  0
 35 38  1  0  0  0
 10 12  1  0  0  0
M  END
> <minimizedAffinity>
-7.85591

> <CNNscore>
0.2146583200

> <CNNaffinity>
5.6383595467

> <CNN_VS>
1.2103208303

> <CNNaffinity_variance>
0.0496333316

$$$$
[H]OC(=O)[C@@]1([H])N(C(=O)[C@@]([H])(N([H])C(=O)[C@@]([H])(N([H])[H])C([H])([H])c2c([H])c([H])c(O[H])c([H])c2[H])C([H])([H])c2c([H])c([H])c(O[H])c([H])c2[H])C([H])([H])C([H])([H])C1([H])[H]


 38 40  0  0  0  0  0  0  0  0999 V2000
  154.6738  137.6816  185.2660 C   0  0  0  0  0  0  0  0  0  0  0  0
  153.9592  136.4793  184.7692 C   0  0  0  0  0  0  0  0  0  0  0  0
  154.4512  135.3609  185.1723 O   0  0  0  0  0  0  0  0  0  0  0  0
  152.8248  136.5064  183.9280 N   0  0  0  0  0  0  0  0  0  0  0  0
  152.2035  137.6781  183.4029 C   0  0  0  0  0  0  0  0  0  0  0  0
  150.7290  137.3230  183.4327 C   0  0  0  0  0  0  0  0  0  0  0  0
  150.6444  135.8664  183.8352 C   0  0  0  0  0  0  0  0  0  0  0  0
  152.0665  135.3867  183.4813 C   0  0  0  0  0  0  0  0  0  0  0  0
  152.0443  135.1598  182.0285 C   0  0  0  0  0  0  0  0  0  0  0  0
  150.9503  134.8566  181.2617 O   0  0  0  0  0  0  0  0  0  0  0  0
  153.1478  135.2455  181.3694 O   0  0  0  0  0  0  0  0  0  0  0  0
  150.9120  134.0207  180.6864 H   0  0  0  0  0  0  0  0  0  0  0  0
  155.6292  139.6365  183.9784 C   0  0  0  0  0  0  0  0  0  0  0  0
  156.6376  139.5626  184.7254 O   0  0  0  0  0  0  0  0  0  0  0  0
  154.5994  138.7155  184.1995 N   0  0  0  0  0  0  0  0  0  0  0  0
  153.7424  138.7274  183.6179 H   0  0  0  0  0  0  0  0  0  0  0  0
  154.2216  141.1817  182.9128 N   0  0  0  0  0  0  0  0  0  0  0  0
  155.6131  140.6802  182.9367 C   0  0  0  0  0  0  0  0  0  0  0  0
  154.1686  141.8371  182.0992 H   0  0  0  0  0  0  0  0  0  0  0  0
  154.1518  141.7681  183.7971 H   0  0  0  0  0  0  0  0  0  0  0  0
  156.4459  141.8634  183.2600 C   0  0  0  0  0  0  0  0  0  0  0  0
  157.3246  142.3750  182.2122 C   0  0  0  0  0  0  0  0  0  0  0  0
  157.9041  143.6367  182.3275 C   0  0  0  0  0  0  0  0  0  0  0  0
  158.7481  144.1236  181.3501 C   0  0  0  0  0  0  0  0  0  0  0  0
  159.0524  143.3899  180.2265 C   0  0  0  0  0  0  0  0  0  0  0  0
  159.9088  143.9210  179.2664 O   0  0  0  0  0  0  0  0  0  0  0  0
  158.4853  142.1391  180.0998 C   0  0  0  0  0  0  0  0  0  0  0  0
  157.6416  141.6569  181.0808 C   0  0  0  0  0  0  0  0  0  0  0  0
  160.1033  143.3427  178.4564 H   0  0  0  0  0  0  0  0  0  0  0  0
  153.9828  138.3482  186.4307 C   0  0  0  0  0  0  0  0  0  0  0  0
  154.6301  138.2366  187.7285 C   0  0  0  0  0  0  0  0  0  0  0  0
  155.9425  137.7835  187.8421 C   0  0  0  0  0  0  0  0  0  0  0  0
  156.5985  137.6986  189.0533 C   0  0  0  0  0  0  0  0  0  0  0  0
  155.9658  138.0659  190.2106 C   0  0  0  0  0  0  0  0  0  0  0  0
  156.6248  137.9824  191.4400 O   0  0  0  0  0  0  0  0  0  0  0  0
  154.6657  138.5186  190.1308 C   0  0  0  0  0  0  0  0  0  0  0  0
  154.0150  138.5992  188.9039 C   0  0  0  0  0  0  0  0  0  0  0  0
  157.1581  138.7717  191.7902 H   0  0  0  0  0  0  0  0  0  0  0  0
 17 18  1  0  0  0
 18 21  1  0  0  0
 21 22  1  0  0  0
 22 23  2  0  0  0
 23 24  1  0  0  0
 24 25  2  0  0  0
 25 26  1  0  0  0
 25 27  1  0  0  0
 27 28  2  0  0  0
 18 13  1  0  0  0
 13 14  2  0  0  0
 13 15  1  0  0  0
 15  1  1  0  0  0
  1 30  1  0  0  0
 30 31  1  0  0  0
 31 32  2  0  0  0
 32 33  1  0  0  0
 33 34  2  0  0  0
 34 35  1  0  0  0
 34 36  1  0  0  0
 36 37  2  0  0  0
  1  2  1  0  0  0
  2  3  2  0  0  0
  2  4  1  0  0  0
  4  5  1  0  0  0
  5  6  1  0  0  0
  6  7  1  0  0  0
  7  8  1  0  0  0
  8  9  1  0  0  0
  9 10  1  0  0  0
  9 11  2  0  0  0
 28 22  1  0  0  0
 37 31  1  0  0  0
  8  4  1  0  0  0
 17 19  1  0  0  0
 17 20  1  0  0  0
 26 29  1  0  0  0
 15 16  1  0  0  0
 35 38  1  0  0  0
 10 12  1  0  0  0
M  END
> <minimizedAffinity>
-7.75401

> <CNNscore>
0.2070780098

> <CNNaffinity>
5.7189049721

> <CNN_VS>
1.1842594147

> <CNNaffinity_variance>
0.0227412339

$$$$
[H]OC1(C([H])([H])N([H])S(=O)(=O)c2c([H])c([H])c(C([H])([H])[H])c(-c3c([H])nc(N([H])[H])c(-c4onc(C([H])([H])[H])c4[H])c3[H])c2[H])C([H])([H])C([H])([H])OC([H])([H])C1([H])[H]


 36 39  0  0  0  0  0  0  0  0999 V2000
  155.4294  140.5461  183.6152 C   0  0  0  0  0  0  0  0  0  0  0  0
  155.6114  139.7494  184.7403 C   0  0  0  0  0  0  0  0  0  0  0  0
  154.6826  138.7929  185.0918 C   0  0  0  0  0  0  0  0  0  0  0  0
  153.5354  138.5740  184.3587 C   0  0  0  0  0  0  0  0  0  0  0  0
  153.3492  139.3583  183.2447 C   0  0  0  0  0  0  0  0  0  0  0  0
  154.2881  140.3281  182.8852 C   0  0  0  0  0  0  0  0  0  0  0  0
  154.0105  141.1131  181.6664 C   0  0  0  0  0  0  0  0  0  0  0  0
  158.6187  142.4984  183.5719 C   0  0  0  0  0  0  0  0  0  0  0  0
  157.6616  141.5196  183.8802 C   0  0  0  0  0  0  0  0  0  0  0  0
  156.4377  141.5698  183.2756 C   0  0  0  0  0  0  0  0  0  0  0  0
  156.1959  142.5865  182.3839 C   0  0  0  0  0  0  0  0  0  0  0  0
  157.1059  143.5195  182.0888 N   0  0  0  0  0  0  0  0  0  0  0  0
  158.3447  143.4893  182.6848 C   0  0  0  0  0  0  0  0  0  0  0  0
  159.2912  144.4914  182.3536 N   0  0  0  0  0  0  0  0  0  0  0  0
  159.9669  144.4223  181.5605 H   0  0  0  0  0  0  0  0  0  0  0  0
  159.3367  145.3647  182.9233 H   0  0  0  0  0  0  0  0  0  0  0  0
  162.5329  142.7564  186.8407 C   0  0  0  0  0  0  0  0  0  0  0  0
  161.6885  142.4693  185.6455 C   0  0  0  0  0  0  0  0  0  0  0  0
  160.3482  142.8277  185.4721 C   0  0  0  0  0  0  0  0  0  0  0  0
  159.9208  142.3933  184.2549 C   0  0  0  0  0  0  0  0  0  0  0  0
  160.9845  141.7908  183.7191 O   0  0  0  0  0  0  0  0  0  0  0  0
  162.0028  141.8299  184.5100 N   0  0  0  0  0  0  0  0  0  0  0  0
  154.9369  137.7922  186.5271 S   0  0  0  0  0  0  0  0  0  0  0  0
  156.3616  137.7962  186.9478 O   0  0  0  0  0  0  0  0  0  0  0  0
  154.5638  136.3718  186.1978 O   0  0  0  0  0  0  0  0  0  0  0  0
  153.9566  138.3222  187.8201 N   0  0  0  0  0  0  0  0  0  0  0  0
  154.3719  139.0628  188.4073 H   0  0  0  0  0  0  0  0  0  0  0  0
  153.4862  137.2089  188.6290 C   0  0  0  0  0  0  0  0  0  0  0  0
  154.2957  137.0650  189.8959 C   0  0  0  0  0  0  0  0  0  0  0  0
  153.3950  136.8848  190.9437 O   0  0  0  0  0  0  0  0  0  0  0  0
  155.0524  138.3351  190.1673 C   0  0  0  0  0  0  0  0  0  0  0  0
  156.2468  138.1373  191.0597 C   0  0  0  0  0  0  0  0  0  0  0  0
  156.1116  136.9391  191.7226 O   0  0  0  0  0  0  0  0  0  0  0  0
  156.2938  135.8885  190.8181 C   0  0  0  0  0  0  0  0  0  0  0  0
  155.2228  135.8971  189.7518 C   0  0  0  0  0  0  0  0  0  0  0  0
  153.5203  136.0537  191.4297 H   0  0  0  0  0  0  0  0  0  0  0  0
 17 18  1  0  0  0
 18 19  1  0  0  0
 19 20  2  0  0  0
 20 21  1  0  0  0
 21 22  1  0  0  0
 20  8  1  0  0  0
  8  9  2  0  0  0
  9 10  1  0  0  0
 10 11  2  0  0  0
 11 12  1  0  0  0
 12 13  2  0  0  0
 13 14  1  0  0  0
 10  1  1  0  0  0
  1  2  2  0  0  0
  2  3  1  0  0  0
  3  4  2  0  0  0
  4  5  1  0  0  0
  5  6  2  0  0  0
  6  7  1  0  0  0
  3 23  1  0  0  0
 23 24  2  0  0  0
 23 25  2  0  0  0
 23 26  1  0  0  0
 26 28  1  0  0  0
 28 29  1  0  0  0
 29 30  1  0  0  0
 29 31  1  0  0  0
 31 32  1  0  0  0
 32 33  1  0  0  0
 33 34  1  0  0  0
 34 35  1  0  0  0
 22 18  2  0  0  0
 13  8  1  0  0  0
  6  1  1  0  0  0
 35 29  1  0  0  0
 14 15  1  0  0  0
 14 16  1  0  0  0
 26 27  1  0  0  0
 30 36  1  0  0  0
M  END
> <minimizedAffinity>
-9.43382

> <CNNscore>
0.3832540214

> <CNNaffinity>
6.6080002785

> <CNN_VS>
2.5325427055

> <CNNaffinity_variance>
0.1851243675

$$$$
[H]OC1(C([H])([H])N([H])S(=O)(=O)c2c([H])c([H])c(C([H])([H])[H])c(-c3c([H])nc(N([H])[H])c(-c4onc(C([H])([H])[H])c4[H])c3[H])c2[H])C([H])([H])C([H])([H])OC([H])([H])C1([H])[H]


 36 39  0  0  0  0  0  0  0  0999 V2000
  153.7210  138.9839  183.5738 C   0  0  0  0  0  0  0  0  0  0  0  0
  154.2933  140.2317  183.7963 C   0  0  0  0  0  0  0  0  0  0  0  0
  154.0417  141.2903  182.9495 C   0  0  0  0  0  0  0  0  0  0  0  0
  153.2197  141.1750  181.8484 C   0  0  0  0  0  0  0  0  0  0  0  0
  152.6503  139.9438  181.6226 C   0  0  0  0  0  0  0  0  0  0  0  0
  152.9026  138.8691  182.4785 C   0  0  0  0  0  0  0  0  0  0  0  0
  152.2371  137.5895  182.1646 C   0  0  0  0  0  0  0  0  0  0  0  0
  154.6978  137.0959  186.6505 C   0  0  0  0  0  0  0  0  0  0  0  0
  154.3959  138.1515  185.7766 C   0  0  0  0  0  0  0  0  0  0  0  0
  154.0228  137.8688  184.4933 C   0  0  0  0  0  0  0  0  0  0  0  0
  153.9592  136.5507  184.1116 C   0  0  0  0  0  0  0  0  0  0  0  0
  154.2460  135.5440  184.9423 N   0  0  0  0  0  0  0  0  0  0  0  0
  154.6239  135.8042  186.2386 C   0  0  0  0  0  0  0  0  0  0  0  0
  154.9226  134.7174  187.0984 N   0  0  0  0  0  0  0  0  0  0  0  0
  154.2161  134.2219  187.6864 H   0  0  0  0  0  0  0  0  0  0  0  0
  155.9045  134.3703  187.1670 H   0  0  0  0  0  0  0  0  0  0  0  0
  155.0172  139.0295  191.3656 C   0  0  0  0  0  0  0  0  0  0  0  0
  155.3001  138.2759  190.1102 C   0  0  0  0  0  0  0  0  0  0  0  0
  154.5117  138.2633  188.9555 C   0  0  0  0  0  0  0  0  0  0  0  0
  155.0944  137.4615  188.0225 C   0  0  0  0  0  0  0  0  0  0  0  0
  156.2034  137.0090  188.6115 O   0  0  0  0  0  0  0  0  0  0  0  0
  156.3291  137.4713  189.8092 N   0  0  0  0  0  0  0  0  0  0  0  0
  154.7813  142.8672  183.2538 S   0  0  0  0  0  0  0  0  0  0  0  0
  154.1352  143.5595  184.3984 O   0  0  0  0  0  0  0  0  0  0  0  0
  154.5949  143.7311  182.0356 O   0  0  0  0  0  0  0  0  0  0  0  0
  156.4545  142.7074  183.5518 N   0  0  0  0  0  0  0  0  0  0  0  0
  157.0066  143.5684  183.4120 H   0  0  0  0  0  0  0  0  0  0  0  0
  157.0262  141.5889  182.8190 C   0  0  0  0  0  0  0  0  0  0  0  0
  158.1102  142.0450  181.8713 C   0  0  0  0  0  0  0  0  0  0  0  0
  159.2880  141.4051  182.2519 O   0  0  0  0  0  0  0  0  0  0  0  0
  158.3334  143.5237  182.0219 C   0  0  0  0  0  0  0  0  0  0  0  0
  158.9761  144.1545  180.8173 C   0  0  0  0  0  0  0  0  0  0  0  0
  159.5612  143.1669  180.0586 O   0  0  0  0  0  0  0  0  0  0  0  0
  158.5627  142.4050  179.4439 C   0  0  0  0  0  0  0  0  0  0  0  0
  157.7130  141.6924  180.4705 C   0  0  0  0  0  0  0  0  0  0  0  0
  159.6797  140.8567  181.5531 H   0  0  0  0  0  0  0  0  0  0  0  0
 17 18  1  0  0  0
 18 19  1  0  0  0
 19 20  2  0  0  0
 20 21  1  0  0  0
 21 22  1  0  0  0
 20  8  1  0  0  0
  8  9  2  0  0  0
  9 10  1  0  0  0
 10 11  2  0  0  0
 11 12  1  0  0  0
 12 13  2  0  0  0
 13 14  1  0  0  0
 10  1  1  0  0  0
  1  2  2  0  0  0
  2  3  1  0  0  0
  3  4  2  0  0  0
  4  5  1  0  0  0
  5  6  2  0  0  0
  6  7  1  0  0  0
  3 23  1  0  0  0
 23 24  2  0  0  0
 23 25  2  0  0  0
 23 26  1  0  0  0
 26 28  1  0  0  0
 28 29  1  0  0  0
 29 30  1  0  0  0
 29 31  1  0  0  0
 31 32  1  0  0  0
 32 33  1  0  0  0
 33 34  1  0  0  0
 34 35  1  0  0  0
 22 18  2  0  0  0
 13  8  1  0  0  0
  6  1  1  0  0  0
 35 29  1  0  0  0
 14 15  1  0  0  0
 14 16  1  0  0  0
 26 27  1  0  0  0
 30 36  1  0  0  0
M  END
> <minimizedAffinity>
-8.83251

> <CNNscore>
0.2894821167

> <CNNaffinity>
6.1505088806

> <CNN_VS>
1.7804623842

> <CNNaffinity_variance>
0.2107942104

$$$$
[H]OC1(C([H])([H])N([H])S(=O)(=O)c2c([H])c([H])c(C([H])([H])[H])c(-c3c([H])nc(N([H])[H])c(-c4onc(C([H])([H])[H])c4[H])c3[H])c2[H])C([H])([H])C([H])([H])OC([H])([H])C1([H])[H]


 36 39  0  0  0  0  0  0  0  0999 V2000
  153.6437  139.7879  183.0554 C   0  0  0  0  0  0  0  0  0  0  0  0
  153.8257  139.0206  184.2008 C   0  0  0  0  0  0  0  0  0  0  0  0
  153.0690  137.8903  184.4269 C   0  0  0  0  0  0  0  0  0  0  0  0
  152.1016  137.4612  183.5430 C   0  0  0  0  0  0  0  0  0  0  0  0
  151.9165  138.2153  182.4081 C   0  0  0  0  0  0  0  0  0  0  0  0
  152.6813  139.3608  182.1755 C   0  0  0  0  0  0  0  0  0  0  0  0
  152.4219  140.0993  180.9241 C   0  0  0  0  0  0  0  0  0  0  0  0
  156.5990  142.0675  182.8217 C   0  0  0  0  0  0  0  0  0  0  0  0
  155.8176  140.9156  183.0000 C   0  0  0  0  0  0  0  0  0  0  0  0
  154.4622  140.9997  182.8517 C   0  0  0  0  0  0  0  0  0  0  0  0
  153.9192  142.2202  182.5316 C   0  0  0  0  0  0  0  0  0  0  0  0
  154.6615  143.3183  182.3612 N   0  0  0  0  0  0  0  0  0  0  0  0
  156.0276  143.2579  182.5053 C   0  0  0  0  0  0  0  0  0  0  0  0
  156.7910  144.4379  182.3190 N   0  0  0  0  0  0  0  0  0  0  0  0
  157.1702  144.7532  181.3985 H   0  0  0  0  0  0  0  0  0  0  0  0
  157.0021  145.0489  183.1383 H   0  0  0  0  0  0  0  0  0  0  0  0
  161.3922  141.9390  184.5771 C   0  0  0  0  0  0  0  0  0  0  0  0
  160.1905  141.8351  183.7002 C   0  0  0  0  0  0  0  0  0  0  0  0
  158.8729  142.1331  184.0609 C   0  0  0  0  0  0  0  0  0  0  0  0
  158.0552  141.9162  182.9945 C   0  0  0  0  0  0  0  0  0  0  0  0
  158.8704  141.4988  182.0235 O   0  0  0  0  0  0  0  0  0  0  0  0
  160.0969  141.4495  182.4198 N   0  0  0  0  0  0  0  0  0  0  0  0
  153.3194  136.9312  185.8910 S   0  0  0  0  0  0  0  0  0  0  0  0
  154.5237  136.0688  185.7773 O   0  0  0  0  0  0  0  0  0  0  0  0
  152.1307  136.0291  186.0865 O   0  0  0  0  0  0  0  0  0  0  0  0
  153.4640  137.9388  187.2613 N   0  0  0  0  0  0  0  0  0  0  0  0
  153.0054  138.8597  187.1760 H   0  0  0  0  0  0  0  0  0  0  0  0
  154.8488  138.0758  187.6836 C   0  0  0  0  0  0  0  0  0  0  0  0
  155.0945  137.3880  189.0056 C   0  0  0  0  0  0  0  0  0  0  0  0
  155.3040  136.0370  188.7361 O   0  0  0  0  0  0  0  0  0  0  0  0
  153.8695  137.4888  189.8708 C   0  0  0  0  0  0  0  0  0  0  0  0
  154.1604  137.3192  191.3367 C   0  0  0  0  0  0  0  0  0  0  0  0
  155.3898  136.7175  191.4781 O   0  0  0  0  0  0  0  0  0  0  0  0
  156.3916  137.6264  191.1240 C   0  0  0  0  0  0  0  0  0  0  0  0
  156.2836  138.0144  189.6674 C   0  0  0  0  0  0  0  0  0  0  0  0
  156.1658  135.7064  189.0368 H   0  0  0  0  0  0  0  0  0  0  0  0
 17 18  1  0  0  0
 18 19  1  0  0  0
 19 20  2  0  0  0
 20 21  1  0  0  0
 21 22  1  0  0  0
 20  8  1  0  0  0
  8  9  2  0  0  0
  9 10  1  0  0  0
 10 11  2  0  0  0
 11 12  1  0  0  0
 12 13  2  0  0  0
 13 14  1  0  0  0
 10  1  1  0  0  0
  1  2  2  0  0  0
  2  3  1  0  0  0
  3  4  2  0  0  0
  4  5  1  0  0  0
  5  6  2  0  0  0
  6  7  1  0  0  0
  3 23  1  0  0  0
 23 24  2  0  0  0
 23 25  2  0  0  0
 23 26  1  0  0  0
 26 28  1  0  0  0
 28 29  1  0  0  0
 29 30  1  0  0  0
 29 31  1  0  0  0
 31 32  1  0  0  0
 32 33  1  0  0  0
 33 34  1  0  0  0
 34 35  1  0  0  0
 22 18  2  0  0  0
 13  8  1  0  0  0
  6  1  1  0  0  0
 35 29  1  0  0  0
 14 15  1  0  0  0
 14 16  1  0  0  0
 26 27  1  0  0  0
 30 36  1  0  0  0
M  END
> <minimizedAffinity>
-8.76836

> <CNNscore>
0.2493671924

> <CNNaffinity>
6.3215932846

> <CNN_VS>
1.5763980150

> <CNNaffinity_variance>
0.0722622275

$$$$
[H]OC1(C([H])([H])N([H])S(=O)(=O)c2c([H])c([H])c(C([H])([H])[H])c(-c3c([H])nc(N([H])[H])c(-c4onc(C([H])([H])[H])c4[H])c3[H])c2[H])C([H])([H])C([H])([H])OC([H])([H])C1([H])[H]


 36 39  0  0  0  0  0  0  0  0999 V2000
  155.7555  139.2257  185.0663 C   0  0  0  0  0  0  0  0  0  0  0  0
  156.1865  138.5921  186.2267 C   0  0  0  0  0  0  0  0  0  0  0  0
  155.2903  137.9807  187.0776 C   0  0  0  0  0  0  0  0  0  0  0  0
  153.9337  137.9624  186.8310 C   0  0  0  0  0  0  0  0  0  0  0  0
  153.5007  138.5870  185.6850 C   0  0  0  0  0  0  0  0  0  0  0  0
  154.4057  139.2072  184.8205 C   0  0  0  0  0  0  0  0  0  0  0  0
  153.8508  139.8404  183.6081 C   0  0  0  0  0  0  0  0  0  0  0  0
  158.8165  141.0312  183.9019 C   0  0  0  0  0  0  0  0  0  0  0  0
  157.8828  140.3938  184.7332 C   0  0  0  0  0  0  0  0  0  0  0  0
  156.7413  139.8820  184.1846 C   0  0  0  0  0  0  0  0  0  0  0  0
  156.5563  140.0156  182.8299 C   0  0  0  0  0  0  0  0  0  0  0  0
  157.4442  140.6221  182.0364 N   0  0  0  0  0  0  0  0  0  0  0  0
  158.6004  141.1448  182.5662 C   0  0  0  0  0  0  0  0  0  0  0  0
  159.5250  141.7831  181.7017 N   0  0  0  0  0  0  0  0  0  0  0  0
  160.2956  141.2899  181.1982 H   0  0  0  0  0  0  0  0  0  0  0  0
  159.4534  142.8118  181.5406 H   0  0  0  0  0  0  0  0  0  0  0  0
  162.2071  143.2138  187.0344 C   0  0  0  0  0  0  0  0  0  0  0  0
  161.5780  142.5084  185.8809 C   0  0  0  0  0  0  0  0  0  0  0  0
  160.2195  142.2139  185.7304 C   0  0  0  0  0  0  0  0  0  0  0  0
  160.0289  141.5637  184.5497 C   0  0  0  0  0  0  0  0  0  0  0  0
  161.2476  141.4750  184.0128 O   0  0  0  0  0  0  0  0  0  0  0  0
  162.1420  142.0144  184.7698 N   0  0  0  0  0  0  0  0  0  0  0  0
  155.8631  137.1815  188.5471 S   0  0  0  0  0  0  0  0  0  0  0  0
  154.7377  136.8395  189.4545 O   0  0  0  0  0  0  0  0  0  0  0  0
  156.7730  138.1251  189.2866 O   0  0  0  0  0  0  0  0  0  0  0  0
  156.7428  135.7686  188.1681 N   0  0  0  0  0  0  0  0  0  0  0  0
  156.2600  135.1105  187.5361 H   0  0  0  0  0  0  0  0  0  0  0  0
  157.2206  135.0960  189.3657 C   0  0  0  0  0  0  0  0  0  0  0  0
  158.2664  134.0572  189.0364 C   0  0  0  0  0  0  0  0  0  0  0  0
  158.7539  133.5639  190.2450 O   0  0  0  0  0  0  0  0  0  0  0  0
  159.4183  134.7004  188.3162 C   0  0  0  0  0  0  0  0  0  0  0  0
  160.2305  133.7286  187.5051 C   0  0  0  0  0  0  0  0  0  0  0  0
  159.9648  132.4524  187.9456 O   0  0  0  0  0  0  0  0  0  0  0  0
  158.6718  132.0898  187.5559 C   0  0  0  0  0  0  0  0  0  0  0  0
  157.6380  132.9786  188.2081 C   0  0  0  0  0  0  0  0  0  0  0  0
  158.6369  132.6063  190.3533 H   0  0  0  0  0  0  0  0  0  0  0  0
 17 18  1  0  0  0
 18 19  1  0  0  0
 19 20  2  0  0  0
 20 21  1  0  0  0
 21 22  1  0  0  0
 20  8  1  0  0  0
  8  9  2  0  0  0
  9 10  1  0  0  0
 10 11  2  0  0  0
 11 12  1  0  0  0
 12 13  2  0  0  0
 13 14  1  0  0  0
 10  1  1  0  0  0
  1  2  2  0  0  0
  2  3  1  0  0  0
  3  4  2  0  0  0
  4  5  1  0  0  0
  5  6  2  0  0  0
  6  7  1  0  0  0
  3 23  1  0  0  0
 23 24  2  0  0  0
 23 25  2  0  0  0
 23 26  1  0  0  0
 26 28  1  0  0  0
 28 29  1  0  0  0
 29 30  1  0  0  0
 29 31  1  0  0  0
 31 32  1  0  0  0
 32 33  1  0  0  0
 33 34  1  0  0  0
 34 35  1  0  0  0
 22 18  2  0  0  0
 13  8  1  0  0  0
  6  1  1  0  0  0
 35 29  1  0  0  0
 14 15  1  0  0  0
 14 16  1  0  0  0
 26 27  1  0  0  0
 30 36  1  0  0  0
M  END
> <minimizedAffinity>
-9.04522

> <CNNscore>
0.2253235579

> <CNNaffinity>
6.3192009926

> <CNN_VS>
1.4238648415

> <CNNaffinity_variance>
0.0557751544

$$$$
[H]OC1(C([H])([H])N([H])S(=O)(=O)c2c([H])c([H])c(C([H])([H])[H])c(-c3c([H])nc(N([H])[H])c(-c4onc(C([H])([H])[H])c4[H])c3[H])c2[H])C([H])([H])C([H])([H])OC([H])([H])C1([H])[H]


 36 39  0  0  0  0  0  0  0  0999 V2000
  153.8719  139.7800  183.3196 C   0  0  0  0  0  0  0  0  0  0  0  0
  154.1042  139.0432  184.4758 C   0  0  0  0  0  0  0  0  0  0  0  0
  153.3672  137.9127  184.7584 C   0  0  0  0  0  0  0  0  0  0  0  0
  152.3709  137.4536  183.9229 C   0  0  0  0  0  0  0  0  0  0  0  0
  152.1361  138.1775  182.7775 C   0  0  0  0  0  0  0  0  0  0  0  0
  152.8810  139.3231  182.4877 C   0  0  0  0  0  0  0  0  0  0  0  0
  152.5676  140.0279  181.2292 C   0  0  0  0  0  0  0  0  0  0  0  0
  156.7879  142.0982  182.9906 C   0  0  0  0  0  0  0  0  0  0  0  0
  156.0253  140.9442  183.2267 C   0  0  0  0  0  0  0  0  0  0  0  0
  154.6710  140.9931  183.0550 C   0  0  0  0  0  0  0  0  0  0  0  0
  154.1104  142.1817  182.6549 C   0  0  0  0  0  0  0  0  0  0  0  0
  154.8348  143.2818  182.4293 N   0  0  0  0  0  0  0  0  0  0  0  0
  156.1995  143.2564  182.5955 C   0  0  0  0  0  0  0  0  0  0  0  0
  156.9436  144.4377  182.3494 N   0  0  0  0  0  0  0  0  0  0  0  0
  157.3306  144.7049  181.4171 H   0  0  0  0  0  0  0  0  0  0  0  0
  157.1312  145.1004  183.1336 H   0  0  0  0  0  0  0  0  0  0  0  0
  161.5673  142.2509  184.7814 C   0  0  0  0  0  0  0  0  0  0  0  0
  160.3739  142.0200  183.9175 C   0  0  0  0  0  0  0  0  0  0  0  0
  159.0507  142.3500  184.2262 C   0  0  0  0  0  0  0  0  0  0  0  0
  158.2439  141.9856  183.1922 C   0  0  0  0  0  0  0  0  0  0  0  0
  159.0708  141.4515  182.2908 O   0  0  0  0  0  0  0  0  0  0  0  0
  160.2944  141.4673  182.6988 N   0  0  0  0  0  0  0  0  0  0  0  0
  153.6816  136.9927  186.2352 S   0  0  0  0  0  0  0  0  0  0  0  0
  154.4543  137.7924  187.2203 O   0  0  0  0  0  0  0  0  0  0  0  0
  154.5059  135.7833  185.8844 O   0  0  0  0  0  0  0  0  0  0  0  0
  152.2222  136.4642  186.9455 N   0  0  0  0  0  0  0  0  0  0  0  0
  151.6853  137.1970  187.4359 H   0  0  0  0  0  0  0  0  0  0  0  0
  152.4283  135.3026  187.7958 C   0  0  0  0  0  0  0  0  0  0  0  0
  151.7818  135.4857  189.1484 C   0  0  0  0  0  0  0  0  0  0  0  0
  150.4523  135.8387  188.9267 O   0  0  0  0  0  0  0  0  0  0  0  0
  152.4341  136.6268  189.8776 C   0  0  0  0  0  0  0  0  0  0  0  0
  152.2478  136.5644  191.3687 C   0  0  0  0  0  0  0  0  0  0  0  0
  151.1999  135.7182  191.6498 O   0  0  0  0  0  0  0  0  0  0  0  0
  151.5877  134.4007  191.3871 C   0  0  0  0  0  0  0  0  0  0  0  0
  151.8968  134.2071  189.9206 C   0  0  0  0  0  0  0  0  0  0  0  0
  149.8125  135.2251  189.3225 H   0  0  0  0  0  0  0  0  0  0  0  0
 17 18  1  0  0  0
 18 19  1  0  0  0
 19 20  2  0  0  0
 20 21  1  0  0  0
 21 22  1  0  0  0
 20  8  1  0  0  0
  8  9  2  0  0  0
  9 10  1  0  0  0
 10 11  2  0  0  0
 11 12  1  0  0  0
 12 13  2  0  0  0
 13 14  1  0  0  0
 10  1  1  0  0  0
  1  2  2  0  0  0
  2  3  1  0  0  0
  3  4  2  0  0  0
  4  5  1  0  0  0
  5  6  2  0  0  0
  6  7  1  0  0  0
  3 23  1  0  0  0
 23 24  2  0  0  0
 23 25  2  0  0  0
 23 26  1  0  0  0
 26 28  1  0  0  0
 28 29  1  0  0  0
 29 30  1  0  0  0
 29 31  1  0  0  0
 31 32  1  0  0  0
 32 33  1  0  0  0
 33 34  1  0  0  0
 34 35  1  0  0  0
 22 18  2  0  0  0
 13  8  1  0  0  0
  6  1  1  0  0  0
 35 29  1  0  0  0
 14 15  1  0  0  0
 14 16  1  0  0  0
 26 27  1  0  0  0
 30 36  1  0  0  0
M  END
> <minimizedAffinity>
-7.81489

> <CNNscore>
0.1918809414

> <CNNaffinity>
5.8465456963

> <CNN_VS>
1.1218407154

> <CNNaffinity_variance>
0.0923936218

$$$$
[H]OC1(C([H])([H])N([H])S(=O)(=O)c2c([H])c([H])c(C([H])([H])[H])c(-c3c([H])nc(N([H])[H])c(-c4onc(C([H])([H])[H])c4[H])c3[H])c2[H])C([H])([H])C([H])([H])OC([H])([H])C1([H])[H]


 36 39  0  0  0  0  0  0  0  0999 V2000
  155.6618  140.6008  182.8173 C   0  0  0  0  0  0  0  0  0  0  0  0
  155.0957  139.4153  183.2731 C   0  0  0  0  0  0  0  0  0  0  0  0
  153.7286  139.2361  183.2776 C   0  0  0  0  0  0  0  0  0  0  0  0
  152.8557  140.2082  182.8367 C   0  0  0  0  0  0  0  0  0  0  0  0
  153.4089  141.3831  182.3844 C   0  0  0  0  0  0  0  0  0  0  0  0
  154.7934  141.5681  182.3781 C   0  0  0  0  0  0  0  0  0  0  0  0
  155.2969  142.8563  181.8623 C   0  0  0  0  0  0  0  0  0  0  0  0
  159.1157  141.4347  183.9839 C   0  0  0  0  0  0  0  0  0  0  0  0
  157.7230  141.2642  183.9630 C   0  0  0  0  0  0  0  0  0  0  0  0
  157.1292  140.7639  182.8391 C   0  0  0  0  0  0  0  0  0  0  0  0
  157.9298  140.4469  181.7688 C   0  0  0  0  0  0  0  0  0  0  0  0
  159.2562  140.6083  181.7867 N   0  0  0  0  0  0  0  0  0  0  0  0
  159.8761  141.1102  182.9068 C   0  0  0  0  0  0  0  0  0  0  0  0
  161.2845  141.2712  182.8986 N   0  0  0  0  0  0  0  0  0  0  0  0
  161.9624  140.5296  183.1829 H   0  0  0  0  0  0  0  0  0  0  0  0
  161.6967  142.1801  182.5932 H   0  0  0  0  0  0  0  0  0  0  0  0
  162.1495  143.4618  187.5560 C   0  0  0  0  0  0  0  0  0  0  0  0
  160.9804  142.8661  186.8472 C   0  0  0  0  0  0  0  0  0  0  0  0
  160.9349  142.4777  185.5048 C   0  0  0  0  0  0  0  0  0  0  0  0
  159.7003  141.9783  185.2232 C   0  0  0  0  0  0  0  0  0  0  0  0
  159.0292  142.0690  186.3734 O   0  0  0  0  0  0  0  0  0  0  0  0
  159.7561  142.5771  187.3102 N   0  0  0  0  0  0  0  0  0  0  0  0
  153.0328  137.7194  183.8621 S   0  0  0  0  0  0  0  0  0  0  0  0
  153.7260  136.5421  183.2785 O   0  0  0  0  0  0  0  0  0  0  0  0
  151.5904  137.6545  183.4375 O   0  0  0  0  0  0  0  0  0  0  0  0
  153.0987  137.6361  185.5658 N   0  0  0  0  0  0  0  0  0  0  0  0
  153.1152  138.5493  186.0469 H   0  0  0  0  0  0  0  0  0  0  0  0
  154.1833  136.7805  186.0202 C   0  0  0  0  0  0  0  0  0  0  0  0
  154.3172  136.8092  187.5244 C   0  0  0  0  0  0  0  0  0  0  0  0
  155.2180  135.8068  187.8784 O   0  0  0  0  0  0  0  0  0  0  0  0
  152.9982  136.4738  188.1624 C   0  0  0  0  0  0  0  0  0  0  0  0
  152.8780  136.9702  189.5771 C   0  0  0  0  0  0  0  0  0  0  0  0
  154.1373  137.2426  190.0601 O   0  0  0  0  0  0  0  0  0  0  0  0
  154.6349  138.3878  189.4306 C   0  0  0  0  0  0  0  0  0  0  0  0
  154.7986  138.1640  187.9450 C   0  0  0  0  0  0  0  0  0  0  0  0
  155.9965  136.1313  188.3592 H   0  0  0  0  0  0  0  0  0  0  0  0
 17 18  1  0  0  0
 18 19  1  0  0  0
 19 20  2  0  0  0
 20 21  1  0  0  0
 21 22  1  0  0  0
 20  8  1  0  0  0
  8  9  2  0  0  0
  9 10  1  0  0  0
 10 11  2  0  0  0
 11 12  1  0  0  0
 12 13  2  0  0  0
 13 14  1  0  0  0
 10  1  1  0  0  0
  1  2  2  0  0  0
  2  3  1  0  0  0
  3  4  2  0  0  0
  4  5  1  0  0  0
  5  6  2  0  0  0
  6  7  1  0  0  0
  3 23  1  0  0  0
 23 24  2  0  0  0
 23 25  2  0  0  0
 23 26  1  0  0  0
 26 28  1  0  0  0
 28 29  1  0  0  0
 29 30  1  0  0  0
 29 31  1  0  0  0
 31 32  1  0  0  0
 32 33  1  0  0  0
 33 34  1  0  0  0
 34 35  1  0  0  0
 22 18  2  0  0  0
 13  8  1  0  0  0
  6  1  1  0  0  0
 35 29  1  0  0  0
 14 15  1  0  0  0
 14 16  1  0  0  0
 26 27  1  0  0  0
 30 36  1  0  0  0
M  END
> <minimizedAffinity>
-7.70639

> <CNNscore>
0.1888336390

> <CNNaffinity>
6.2634391785

> <CNN_VS>
1.1827479601

> <CNNaffinity_variance>
0.1392649710

$$$$
[H]OC1(C([H])([H])N([H])S(=O)(=O)c2c([H])c([H])c(C([H])([H])[H])c(-c3c([H])nc(N([H])[H])c(-c4onc(C([H])([H])[H])c4[H])c3[H])c2[H])C([H])([H])C([H])([H])OC([H])([H])C1([H])[H]


 36 39  0  0  0  0  0  0  0  0999 V2000
  154.2198  138.1755  185.5020 C   0  0  0  0  0  0  0  0  0  0  0  0
  154.4623  139.3880  184.8657 C   0  0  0  0  0  0  0  0  0  0  0  0
  153.9810  139.6339  183.5973 C   0  0  0  0  0  0  0  0  0  0  0  0
  153.2418  138.7049  182.8958 C   0  0  0  0  0  0  0  0  0  0  0  0
  152.9982  137.5037  183.5192 C   0  0  0  0  0  0  0  0  0  0  0  0
  153.4839  137.2511  184.8043 C   0  0  0  0  0  0  0  0  0  0  0  0
  153.1614  135.9391  185.3988 C   0  0  0  0  0  0  0  0  0  0  0  0
  154.4054  137.4550  189.1669 C   0  0  0  0  0  0  0  0  0  0  0  0
  153.8969  137.6646  187.8759 C   0  0  0  0  0  0  0  0  0  0  0  0
  154.7618  137.9409  186.8553 C   0  0  0  0  0  0  0  0  0  0  0  0
  156.1040  138.0019  187.1409 C   0  0  0  0  0  0  0  0  0  0  0  0
  156.5904  137.8024  188.3696 N   0  0  0  0  0  0  0  0  0  0  0  0
  155.7391  137.5229  189.4126 C   0  0  0  0  0  0  0  0  0  0  0  0
  156.2818  137.3157  190.7058 N   0  0  0  0  0  0  0  0  0  0  0  0
  156.5996  136.3894  191.0682 H   0  0  0  0  0  0  0  0  0  0  0  0
  156.3810  138.1246  191.3578 H   0  0  0  0  0  0  0  0  0  0  0  0
  151.8831  136.9409  193.5768 C   0  0  0  0  0  0  0  0  0  0  0  0
  152.2561  136.9026  192.1333 C   0  0  0  0  0  0  0  0  0  0  0  0
  153.4502  137.3666  191.5732 C   0  0  0  0  0  0  0  0  0  0  0  0
  153.4251  137.1608  190.2278 C   0  0  0  0  0  0  0  0  0  0  0  0
  152.2422  136.5876  189.9962 O   0  0  0  0  0  0  0  0  0  0  0  0
  151.5653  136.4358  191.0837 N   0  0  0  0  0  0  0  0  0  0  0  0
  154.3026  141.1837  182.8094 S   0  0  0  0  0  0  0  0  0  0  0  0
  154.5218  142.2648  183.8045 O   0  0  0  0  0  0  0  0  0  0  0  0
  153.1038  141.5630  181.9824 O   0  0  0  0  0  0  0  0  0  0  0  0
  155.6576  141.0722  181.7773 N   0  0  0  0  0  0  0  0  0  0  0  0
  155.6236  140.2984  181.0947 H   0  0  0  0  0  0  0  0  0  0  0  0
  156.9040  141.0609  182.5264 C   0  0  0  0  0  0  0  0  0  0  0  0
  158.0224  141.7135  181.7488 C   0  0  0  0  0  0  0  0  0  0  0  0
  159.2019  141.0545  182.0895 O   0  0  0  0  0  0  0  0  0  0  0  0
  158.1710  143.1481  182.1718 C   0  0  0  0  0  0  0  0  0  0  0  0
  158.8573  144.0040  181.1429 C   0  0  0  0  0  0  0  0  0  0  0  0
  159.5299  143.1870  180.2635 O   0  0  0  0  0  0  0  0  0  0  0  0
  158.6048  142.5150  179.4586 C   0  0  0  0  0  0  0  0  0  0  0  0
  157.7265  141.6036  180.2843 C   0  0  0  0  0  0  0  0  0  0  0  0
  159.6588  140.6524  181.3331 H   0  0  0  0  0  0  0  0  0  0  0  0
 17 18  1  0  0  0
 18 19  1  0  0  0
 19 20  2  0  0  0
 20 21  1  0  0  0
 21 22  1  0  0  0
 20  8  1  0  0  0
  8  9  2  0  0  0
  9 10  1  0  0  0
 10 11  2  0  0  0
 11 12  1  0  0  0
 12 13  2  0  0  0
 13 14  1  0  0  0
 10  1  1  0  0  0
  1  2  2  0  0  0
  2  3  1  0  0  0
  3  4  2  0  0  0
  4  5  1  0  0  0
  5  6  2  0  0  0
  6  7  1  0  0  0
  3 23  1  0  0  0
 23 24  2  0  0  0
 23 25  2  0  0  0
 23 26  1  0  0  0
 26 28  1  0  0  0
 28 29  1  0  0  0
 29 30  1  0  0  0
 29 31  1  0  0  0
 31 32  1  0  0  0
 32 33  1  0  0  0
 33 34  1  0  0  0
 34 35  1  0  0  0
 22 18  2  0  0  0
 13  8  1  0  0  0
  6  1  1  0  0  0
 35 29  1  0  0  0
 14 15  1  0  0  0
 14 16  1  0  0  0
 26 27  1  0  0  0
 30 36  1  0  0  0
M  END
> <minimizedAffinity>
-8.36566

> <CNNscore>
0.1788162887

> <CNNaffinity>
5.7452793121

> <CNN_VS>
1.0273494720

> <CNNaffinity_variance>
0.1733186394

$$$$
[H]OC1(C([H])([H])N([H])S(=O)(=O)c2c([H])c([H])c(C([H])([H])[H])c(-c3c([H])nc(N([H])[H])c(-c4onc(C([H])([H])[H])c4[H])c3[H])c2[H])C([H])([H])C([H])([H])OC([H])([H])C1([H])[H]


 36 39  0  0  0  0  0  0  0  0999 V2000
  153.5592  138.9170  183.5663 C   0  0  0  0  0  0  0  0  0  0  0  0
  152.4738  138.7440  182.7143 C   0  0  0  0  0  0  0  0  0  0  0  0
  152.1377  139.7072  181.7868 C   0  0  0  0  0  0  0  0  0  0  0  0
  152.8480  140.8814  181.6520 C   0  0  0  0  0  0  0  0  0  0  0  0
  153.9227  141.0588  182.4913 C   0  0  0  0  0  0  0  0  0  0  0  0
  154.2664  140.0851  183.4321 C   0  0  0  0  0  0  0  0  0  0  0  0
  155.4433  140.3565  184.2807 C   0  0  0  0  0  0  0  0  0  0  0  0
  154.5687  137.2551  186.7607 C   0  0  0  0  0  0  0  0  0  0  0  0
  154.2462  138.2447  185.8195 C   0  0  0  0  0  0  0  0  0  0  0  0
  153.8827  137.8710  184.5569 C   0  0  0  0  0  0  0  0  0  0  0  0
  153.8488  136.5298  184.2618 C   0  0  0  0  0  0  0  0  0  0  0  0
  154.1553  135.5858  185.1567 N   0  0  0  0  0  0  0  0  0  0  0  0
  154.5239  135.9380  186.4337 C   0  0  0  0  0  0  0  0  0  0  0  0
  154.8439  134.9163  187.3629 N   0  0  0  0  0  0  0  0  0  0  0  0
  154.1468  134.4448  187.9811 H   0  0  0  0  0  0  0  0  0  0  0  0
  155.8330  134.5960  187.4552 H   0  0  0  0  0  0  0  0  0  0  0  0
  154.7197  139.2577  191.4554 C   0  0  0  0  0  0  0  0  0  0  0  0
  155.0925  138.5791  190.1808 C   0  0  0  0  0  0  0  0  0  0  0  0
  154.2582  138.3694  189.0786 C   0  0  0  0  0  0  0  0  0  0  0  0
  154.9535  137.7178  188.1064 C   0  0  0  0  0  0  0  0  0  0  0  0
  156.1727  137.5454  188.6215 O   0  0  0  0  0  0  0  0  0  0  0  0
  156.2611  138.0365  189.8110 N   0  0  0  0  0  0  0  0  0  0  0  0
  150.7530  139.4638  180.7146 S   0  0  0  0  0  0  0  0  0  0  0  0
  150.8387  138.1631  180.0019 O   0  0  0  0  0  0  0  0  0  0  0  0
  150.7497  140.5525  179.6754 O   0  0  0  0  0  0  0  0  0  0  0  0
  149.2872  139.5439  181.5856 N   0  0  0  0  0  0  0  0  0  0  0  0
  149.3466  140.0269  182.4960 H   0  0  0  0  0  0  0  0  0  0  0  0
  148.6712  138.2337  181.7223 C   0  0  0  0  0  0  0  0  0  0  0  0
  148.0474  138.0555  183.0862 C   0  0  0  0  0  0  0  0  0  0  0  0
  146.9737  137.1798  182.9384 O   0  0  0  0  0  0  0  0  0  0  0  0
  147.4947  139.3662  183.5718 C   0  0  0  0  0  0  0  0  0  0  0  0
  147.3362  139.4283  185.0662 C   0  0  0  0  0  0  0  0  0  0  0  0
  147.3508  138.1469  185.5674 O   0  0  0  0  0  0  0  0  0  0  0  0
  148.6460  137.6287  185.4708 C   0  0  0  0  0  0  0  0  0  0  0  0
  149.0802  137.5158  184.0277 C   0  0  0  0  0  0  0  0  0  0  0  0
  147.0452  136.3770  183.4797 H   0  0  0  0  0  0  0  0  0  0  0  0
 17 18  1  0  0  0
 18 19  1  0  0  0
 19 20  2  0  0  0
 20 21  1  0  0  0
 21 22  1  0  0  0
 20  8  1  0  0  0
  8  9  2  0  0  0
  9 10  1  0  0  0
 10 11  2  0  0  0
 11 12  1  0  0  0
 12 13  2  0  0  0
 13 14  1  0  0  0
 10  1  1  0  0  0
  1  2  2  0  0  0
  2  3  1  0  0  0
  3  4  2  0  0  0
  4  5  1  0  0  0
  5  6  2  0  0  0
  6  7  1  0  0  0
  3 23  1  0  0  0
 23 24  2  0  0  0
 23 25  2  0  0  0
 23 26  1  0  0  0
 26 28  1  0  0  0
 28 29  1  0  0  0
 29 30  1  0  0  0
 29 31  1  0  0  0
 31 32  1  0  0  0
 32 33  1  0  0  0
 33 34  1  0  0  0
 34 35  1  0  0  0
 22 18  2  0  0  0
 13  8  1  0  0  0
  6  1  1  0  0  0
 35 29  1  0  0  0
 14 15  1  0  0  0
 14 16  1  0  0  0
 26 27  1  0  0  0
 30 36  1  0  0  0
M  END
> <minimizedAffinity>
-7.39088

> <CNNscore>
0.1727949530

> <CNNaffinity>
5.6073064804

> <CNN_VS>
0.9689142704

> <CNNaffinity_variance>
0.1903143674

$$$$
[H]OC1(C([H])([H])N([H])S(=O)(=O)c2c([H])c([H])c(C([H])([H])[H])c(-c3c([H])nc(N([H])[H])c(-c4onc(C([H])([H])[H])c4[H])c3[H])c2[H])C([H])([H])C([H])([H])OC([H])([H])C1([H])[H]


 36 39  0  0  0  0  0  0  0  0999 V2000
  155.7621  139.2271  185.0068 C   0  0  0  0  0  0  0  0  0  0  0  0
  156.2206  138.5238  186.1154 C   0  0  0  0  0  0  0  0  0  0  0  0
  155.3443  137.8646  186.9513 C   0  0  0  0  0  0  0  0  0  0  0  0
  153.9818  137.8644  186.7397 C   0  0  0  0  0  0  0  0  0  0  0  0
  153.5216  138.5578  185.6450 C   0  0  0  0  0  0  0  0  0  0  0  0
  154.4063  139.2266  184.7958 C   0  0  0  0  0  0  0  0  0  0  0  0
  153.8226  139.9329  183.6385 C   0  0  0  0  0  0  0  0  0  0  0  0
  158.7938  141.1015  183.8752 C   0  0  0  0  0  0  0  0  0  0  0  0
  157.8796  140.4175  184.6910 C   0  0  0  0  0  0  0  0  0  0  0  0
  156.7273  139.9327  184.1405 C   0  0  0  0  0  0  0  0  0  0  0  0
  156.5125  140.1385  182.7994 C   0  0  0  0  0  0  0  0  0  0  0  0
  157.3818  140.7894  182.0206 N   0  0  0  0  0  0  0  0  0  0  0  0
  158.5484  141.2862  182.5525 C   0  0  0  0  0  0  0  0  0  0  0  0
  159.4528  141.9727  181.7038 N   0  0  0  0  0  0  0  0  0  0  0  0
  160.2130  141.5097  181.1578 H   0  0  0  0  0  0  0  0  0  0  0  0
  159.3758  143.0084  181.6000 H   0  0  0  0  0  0  0  0  0  0  0  0
  162.2387  143.1850  187.0159 C   0  0  0  0  0  0  0  0  0  0  0  0
  161.5916  142.5019  185.8589 C   0  0  0  0  0  0  0  0  0  0  0  0
  160.2265  142.2394  185.7090 C   0  0  0  0  0  0  0  0  0  0  0  0
  160.0191  141.6019  184.5243 C   0  0  0  0  0  0  0  0  0  0  0  0
  161.2345  141.4892  183.9844 O   0  0  0  0  0  0  0  0  0  0  0  0
  162.1423  142.0029  184.7433 N   0  0  0  0  0  0  0  0  0  0  0  0
  155.9520  136.9772  188.3547 S   0  0  0  0  0  0  0  0  0  0  0  0
  156.5052  137.8966  189.3821 O   0  0  0  0  0  0  0  0  0  0  0  0
  157.0673  136.0712  187.9073 O   0  0  0  0  0  0  0  0  0  0  0  0
  154.7218  136.0179  189.0476 N   0  0  0  0  0  0  0  0  0  0  0  0
  153.7603  136.3559  188.8833 H   0  0  0  0  0  0  0  0  0  0  0  0
  154.9616  135.7756  190.4613 C   0  0  0  0  0  0  0  0  0  0  0  0
  153.9048  136.4274  191.3212 C   0  0  0  0  0  0  0  0  0  0  0  0
  154.3024  137.7454  191.5366 O   0  0  0  0  0  0  0  0  0  0  0  0
  153.8465  135.7509  192.6621 C   0  0  0  0  0  0  0  0  0  0  0  0
  152.5361  135.9502  193.3730 C   0  0  0  0  0  0  0  0  0  0  0  0
  151.8840  137.0225  192.8086 O   0  0  0  0  0  0  0  0  0  0  0  0
  151.4303  136.6677  191.5345 C   0  0  0  0  0  0  0  0  0  0  0  0
  152.5864  136.3524  190.6137 C   0  0  0  0  0  0  0  0  0  0  0  0
  153.6620  138.4043  191.2231 H   0  0  0  0  0  0  0  0  0  0  0  0
 17 18  1  0  0  0
 18 19  1  0  0  0
 19 20  2  0  0  0
 20 21  1  0  0  0
 21 22  1  0  0  0
 20  8  1  0  0  0
  8  9  2  0  0  0
  9 10  1  0  0  0
 10 11  2  0  0  0
 11 12  1  0  0  0
 12 13  2  0  0  0
 13 14  1  0  0  0
 10  1  1  0  0  0
  1  2  2  0  0  0
  2  3  1  0  0  0
  3  4  2  0  0  0
  4  5  1  0  0  0
  5  6  2  0  0  0
  6  7  1  0  0  0
  3 23  1  0  0  0
 23 24  2  0  0  0
 23 25  2  0  0  0
 23 26  1  0  0  0
 26 28  1  0  0  0
 28 29  1  0  0  0
 29 30  1  0  0  0
 29 31  1  0  0  0
 31 32  1  0  0  0
 32 33  1  0  0  0
 33 34  1  0  0  0
 34 35  1  0  0  0
 22 18  2  0  0  0
 13  8  1  0  0  0
  6  1  1  0  0  0
 35 29  1  0  0  0
 14 15  1  0  0  0
 14 16  1  0  0  0
 26 27  1  0  0  0
 30 36  1  0  0  0
M  END
> <minimizedAffinity>
-9.38135

> <CNNscore>
0.1709157974

> <CNNaffinity>
5.9105901718

> <CNN_VS>
1.0102132559

> <CNNaffinity_variance>
0.1392450631

$$$$
[H]c1c(C(C([H])([H])[H])(C([H])([H])[H])C([H])([H])[H])noc1N([H])C(=O)[C@]1([H])N(C(=O)c2c([H])c([H])c([H])c(C(F)(F)F)c2[H])C([H])([H])c2c([H])c([H])c([H])c([H])c2C1([H])[H]


 35 38  0  0  0  0  0  0  0  0999 V2000
  152.6172  136.1581  187.3499 C   0  0  0  0  0  0  0  0  0  0  0  0
  151.4829  137.2151  187.1192 C   0  0  0  0  0  0  0  0  0  0  0  0
  150.3234  136.5352  186.4867 C   0  0  0  0  0  0  0  0  0  0  0  0
  149.3895  137.3459  185.8174 C   0  0  0  0  0  0  0  0  0  0  0  0
  148.3003  136.8356  185.1796 C   0  0  0  0  0  0  0  0  0  0  0  0
  148.1611  135.4423  185.2246 C   0  0  0  0  0  0  0  0  0  0  0  0
  149.0564  134.6083  185.8658 C   0  0  0  0  0  0  0  0  0  0  0  0
  150.1458  135.1940  186.5031 C   0  0  0  0  0  0  0  0  0  0  0  0
  151.0397  134.2336  187.2247 C   0  0  0  0  0  0  0  0  0  0  0  0
  151.9598  135.0642  188.0086 N   0  0  0  0  0  0  0  0  0  0  0  0
  152.0526  134.8526  189.3869 C   0  0  0  0  0  0  0  0  0  0  0  0
  151.4879  133.9339  189.9951 O   0  0  0  0  0  0  0  0  0  0  0  0
  152.8647  135.7857  190.1954 C   0  0  0  0  0  0  0  0  0  0  0  0
  152.1962  136.6000  191.1139 C   0  0  0  0  0  0  0  0  0  0  0  0
  152.9038  137.4374  191.9502 C   0  0  0  0  0  0  0  0  0  0  0  0
  154.2885  137.4943  191.9077 C   0  0  0  0  0  0  0  0  0  0  0  0
  154.9280  136.6738  191.0004 C   0  0  0  0  0  0  0  0  0  0  0  0
  154.2296  135.8531  190.1715 C   0  0  0  0  0  0  0  0  0  0  0  0
  156.4356  136.7048  190.9709 C   0  0  0  0  0  0  0  0  0  0  0  0
  156.9009  137.8350  190.3676 F   0  0  0  0  0  0  0  0  0  0  0  0
  156.9103  136.5957  192.2822 F   0  0  0  0  0  0  0  0  0  0  0  0
  156.8470  135.5623  190.2915 F   0  0  0  0  0  0  0  0  0  0  0  0
  153.2021  134.6226  185.4226 N   0  0  0  0  0  0  0  0  0  0  0  0
  153.1378  135.9109  186.0086 C   0  0  0  0  0  0  0  0  0  0  0  0
  153.5807  136.8656  185.2582 O   0  0  0  0  0  0  0  0  0  0  0  0
  152.8384  133.7736  185.9188 H   0  0  0  0  0  0  0  0  0  0  0  0
  155.0370  133.6268  182.4189 C   0  0  0  0  0  0  0  0  0  0  0  0
  154.7003  133.4758  183.7640 C   0  0  0  0  0  0  0  0  0  0  0  0
  153.7652  134.4660  184.1029 C   0  0  0  0  0  0  0  0  0  0  0  0
  153.5694  135.1513  182.9941 O   0  0  0  0  0  0  0  0  0  0  0  0
  154.2890  134.6804  182.0412 N   0  0  0  0  0  0  0  0  0  0  0  0
  155.2847  131.7098  180.9361 C   0  0  0  0  0  0  0  0  0  0  0  0
  156.0124  132.8102  181.6636 C   0  0  0  0  0  0  0  0  0  0  0  0
  157.0195  132.1787  182.5918 C   0  0  0  0  0  0  0  0  0  0  0  0
  156.7274  133.6723  180.6241 C   0  0  0  0  0  0  0  0  0  0  0  0
 32 33  1  0  0  0
 33 34  1  0  0  0
 33 35  1  0  0  0
 33 27  1  0  0  0
 27 28  1  0  0  0
 28 29  2  0  0  0
 29 23  1  0  0  0
 23 24  1  0  0  0
 24 25  2  0  0  0
 24  1  1  0  0  0
  1  2  1  0  0  0
  2  3  1  0  0  0
  3  4  2  0  0  0
  4  5  1  0  0  0
  5  6  2  0  0  0
  6  7  1  0  0  0
  7  8  2  0  0  0
  8  9  1  0  0  0
  9 10  1  0  0  0
 10 11  1  0  0  0
 11 12  2  0  0  0
 11 13  1  0  0  0
 13 14  2  0  0  0
 14 15  1  0  0  0
 15 16  2  0  0  0
 16 17  1  0  0  0
 17 18  2  0  0  0
 17 19  1  0  0  0
 19 20  1  0  0  0
 19 21  1  0  0  0
 19 22  1  0  0  0
 29 30  1  0  0  0
 30 31  1  0  0  0
 31 27  2  0  0  0
 10  1  1  0  0  0
 18 13  1  0  0  0
  8  3  1  0  0  0
 23 26  1  0  0  0
M  END
> <minimizedAffinity>
-5.57671

> <CNNscore>
0.5171539187

> <CNNaffinity>
5.9888486862

> <CNN_VS>
3.0971565247

> <CNNaffinity_variance>
0.6474481821

$$$$
[H]c1c(C(C([H])([H])[H])(C([H])([H])[H])C([H])([H])[H])noc1N([H])C(=O)[C@]1([H])N(C(=O)c2c([H])c([H])c([H])c(C(F)(F)F)c2[H])C([H])([H])c2c([H])c([H])c([H])c([H])c2C1([H])[H]


 35 38  0  0  0  0  0  0  0  0999 V2000
  154.0037  137.9729  186.9607 C   0  0  0  0  0  0  0  0  0  0  0  0
  152.4493  137.8295  186.8180 C   0  0  0  0  0  0  0  0  0  0  0  0
  152.1606  136.8861  185.7074 C   0  0  0  0  0  0  0  0  0  0  0  0
  150.8760  136.9376  185.1376 C   0  0  0  0  0  0  0  0  0  0  0  0
  150.5026  136.1401  184.0994 C   0  0  0  0  0  0  0  0  0  0  0  0
  151.4803  135.2574  183.6223 C   0  0  0  0  0  0  0  0  0  0  0  0
  152.7550  135.1771  184.1486 C   0  0  0  0  0  0  0  0  0  0  0  0
  153.0712  136.0163  185.2125 C   0  0  0  0  0  0  0  0  0  0  0  0
  154.4498  135.8318  185.7671 C   0  0  0  0  0  0  0  0  0  0  0  0
  154.4865  136.6209  187.0028 N   0  0  0  0  0  0  0  0  0  0  0  0
  154.8513  135.9908  188.1957 C   0  0  0  0  0  0  0  0  0  0  0  0
  155.2544  134.8231  188.2772 O   0  0  0  0  0  0  0  0  0  0  0  0
  154.7434  136.7476  189.4603 C   0  0  0  0  0  0  0  0  0  0  0  0
  155.6466  137.7934  189.6702 C   0  0  0  0  0  0  0  0  0  0  0  0
  155.5504  138.5850  190.7951 C   0  0  0  0  0  0  0  0  0  0  0  0
  154.5611  138.3711  191.7427 C   0  0  0  0  0  0  0  0  0  0  0  0
  153.6739  137.3398  191.5096 C   0  0  0  0  0  0  0  0  0  0  0  0
  153.7731  136.5554  190.4036 C   0  0  0  0  0  0  0  0  0  0  0  0
  152.5743  137.1215  192.5185 C   0  0  0  0  0  0  0  0  0  0  0  0
  152.7947  136.0021  193.2643 F   0  0  0  0  0  0  0  0  0  0  0  0
  152.4766  138.2597  193.3259 F   0  0  0  0  0  0  0  0  0  0  0  0
  151.3854  137.0263  191.8018 F   0  0  0  0  0  0  0  0  0  0  0  0
  155.7140  138.8760  185.3256 N   0  0  0  0  0  0  0  0  0  0  0  0
  154.3843  138.7795  185.8049 C   0  0  0  0  0  0  0  0  0  0  0  0
  153.5200  139.4683  185.1347 O   0  0  0  0  0  0  0  0  0  0  0  0
  156.4975  138.3340  185.7635 H   0  0  0  0  0  0  0  0  0  0  0  0
  157.0707  141.2686  182.9141 C   0  0  0  0  0  0  0  0  0  0  0  0
  157.1066  140.5944  184.1346 C   0  0  0  0  0  0  0  0  0  0  0  0
  156.0058  139.7260  184.1962 C   0  0  0  0  0  0  0  0  0  0  0  0
  155.3699  139.8914  183.0535 O   0  0  0  0  0  0  0  0  0  0  0  0
  155.9685  140.7648  182.3279 N   0  0  0  0  0  0  0  0  0  0  0  0
  159.0843  142.5042  183.5088 C   0  0  0  0  0  0  0  0  0  0  0  0
  158.0278  142.2989  182.4546 C   0  0  0  0  0  0  0  0  0  0  0  0
  157.3306  143.6156  182.2204 C   0  0  0  0  0  0  0  0  0  0  0  0
  158.7214  141.8388  181.1731 C   0  0  0  0  0  0  0  0  0  0  0  0
 32 33  1  0  0  0
 33 34  1  0  0  0
 33 35  1  0  0  0
 33 27  1  0  0  0
 27 28  1  0  0  0
 28 29  2  0  0  0
 29 23  1  0  0  0
 23 24  1  0  0  0
 24 25  2  0  0  0
 24  1  1  0  0  0
  1  2  1  0  0  0
  2  3  1  0  0  0
  3  4  2  0  0  0
  4  5  1  0  0  0
  5  6  2  0  0  0
  6  7  1  0  0  0
  7  8  2  0  0  0
  8  9  1  0  0  0
  9 10  1  0  0  0
 10 11  1  0  0  0
 11 12  2  0  0  0
 11 13  1  0  0  0
 13 14  2  0  0  0
 14 15  1  0  0  0
 15 16  2  0  0  0
 16 17  1  0  0  0
 17 18  2  0  0  0
 17 19  1  0  0  0
 19 20  1  0  0  0
 19 21  1  0  0  0
 19 22  1  0  0  0
 29 30  1  0  0  0
 30 31  1  0  0  0
 31 27  2  0  0  0
 10  1  1  0  0  0
 18 13  1  0  0  0
  8  3  1  0  0  0
 23 26  1  0  0  0
M  END
> <minimizedAffinity>
-8.22047

> <CNNscore>
0.4461870790

> <CNNaffinity>
6.2934498787

> <CNN_VS>
2.8080561161

> <CNNaffinity_variance>
0.1110844836

$$$$
[H]c1c(C(C([H])([H])[H])(C([H])([H])[H])C([H])([H])[H])noc1N([H])C(=O)[C@]1([H])N(C(=O)c2c([H])c([H])c([H])c(C(F)(F)F)c2[H])C([H])([H])c2c([H])c([H])c([H])c([H])c2C1([H])[H]


 35 38  0  0  0  0  0  0  0  0999 V2000
  151.8128  135.8081  187.9206 C   0  0  0  0  0  0  0  0  0  0  0  0
  150.3519  135.8659  188.4861 C   0  0  0  0  0  0  0  0  0  0  0  0
  149.4815  135.0119  187.6379 C   0  0  0  0  0  0  0  0  0  0  0  0
  148.0962  135.2465  187.6972 C   0  0  0  0  0  0  0  0  0  0  0  0
  147.2015  134.5446  186.9486 C   0  0  0  0  0  0  0  0  0  0  0  0
  147.7430  133.5668  186.1040 C   0  0  0  0  0  0  0  0  0  0  0  0
  149.0965  133.3066  186.0107 C   0  0  0  0  0  0  0  0  0  0  0  0
  149.9571  134.0559  186.8069 C   0  0  0  0  0  0  0  0  0  0  0  0
  151.4017  133.6782  186.6947 C   0  0  0  0  0  0  0  0  0  0  0  0
  152.0840  134.4058  187.7700 N   0  0  0  0  0  0  0  0  0  0  0  0
  152.8540  133.6872  188.6886 C   0  0  0  0  0  0  0  0  0  0  0  0
  153.0960  132.4759  188.6051 O   0  0  0  0  0  0  0  0  0  0  0  0
  153.4166  134.3997  189.8546 C   0  0  0  0  0  0  0  0  0  0  0  0
  152.6131  134.5197  190.9919 C   0  0  0  0  0  0  0  0  0  0  0  0
  153.1067  135.1071  192.1376 C   0  0  0  0  0  0  0  0  0  0  0  0
  154.4052  135.5896  192.1967 C   0  0  0  0  0  0  0  0  0  0  0  0
  155.1839  135.4507  191.0655 C   0  0  0  0  0  0  0  0  0  0  0  0
  154.6947  134.8776  189.9339 C   0  0  0  0  0  0  0  0  0  0  0  0
  156.6080  135.9425  191.1320 C   0  0  0  0  0  0  0  0  0  0  0  0
  156.9169  136.7271  190.0611 F   0  0  0  0  0  0  0  0  0  0  0  0
  156.7867  136.6319  192.3360 F   0  0  0  0  0  0  0  0  0  0  0  0
  157.4201  134.8138  191.1836 F   0  0  0  0  0  0  0  0  0  0  0  0
  152.5289  136.3444  185.5512 N   0  0  0  0  0  0  0  0  0  0  0  0
  151.7434  136.6070  186.7006 C   0  0  0  0  0  0  0  0  0  0  0  0
  150.9495  137.6208  186.5891 O   0  0  0  0  0  0  0  0  0  0  0  0
  153.1835  135.5264  185.5072 H   0  0  0  0  0  0  0  0  0  0  0  0
  151.5988  138.1016  182.4809 C   0  0  0  0  0  0  0  0  0  0  0  0
  151.3793  137.1352  183.4624 C   0  0  0  0  0  0  0  0  0  0  0  0
  152.4209  137.2084  184.4001 C   0  0  0  0  0  0  0  0  0  0  0  0
  153.2009  138.1826  183.9760 O   0  0  0  0  0  0  0  0  0  0  0  0
  152.7397  138.6876  182.8898 N   0  0  0  0  0  0  0  0  0  0  0  0
  149.6195  139.2615  181.6609 C   0  0  0  0  0  0  0  0  0  0  0  0
  150.7568  138.3460  181.2892 C   0  0  0  0  0  0  0  0  0  0  0  0
  150.1750  137.0563  180.7669 C   0  0  0  0  0  0  0  0  0  0  0  0
  151.5771  139.0304  180.1966 C   0  0  0  0  0  0  0  0  0  0  0  0
 32 33  1  0  0  0
 33 34  1  0  0  0
 33 35  1  0  0  0
 33 27  1  0  0  0
 27 28  1  0  0  0
 28 29  2  0  0  0
 29 23  1  0  0  0
 23 24  1  0  0  0
 24 25  2  0  0  0
 24  1  1  0  0  0
  1  2  1  0  0  0
  2  3  1  0  0  0
  3  4  2  0  0  0
  4  5  1  0  0  0
  5  6  2  0  0  0
  6  7  1  0  0  0
  7  8  2  0  0  0
  8  9  1  0  0  0
  9 10  1  0  0  0
 10 11  1  0  0  0
 11 12  2  0  0  0
 11 13  1  0  0  0
 13 14  2  0  0  0
 14 15  1  0  0  0
 15 16  2  0  0  0
 16 17  1  0  0  0
 17 18  2  0  0  0
 17 19  1  0  0  0
 19 20  1  0  0  0
 19 21  1  0  0  0
 19 22  1  0  0  0
 29 30  1  0  0  0
 30 31  1  0  0  0
 31 27  2  0  0  0
 10  1  1  0  0  0
 18 13  1  0  0  0
  8  3  1  0  0  0
 23 26  1  0  0  0
M  END
> <minimizedAffinity>
-5.12625

> <CNNscore>
0.4223970175

> <CNNaffinity>
5.7963471413

> <CNN_VS>
2.4483597279

> <CNNaffinity_variance>
0.5423658490

$$$$
[H]c1c(C(C([H])([H])[H])(C([H])([H])[H])C([H])([H])[H])noc1N([H])C(=O)[C@]1([H])N(C(=O)c2c([H])c([H])c([H])c(C(F)(F)F)c2[H])C([H])([H])c2c([H])c([H])c([H])c([H])c2C1([H])[H]


 35 38  0  0  0  0  0  0  0  0999 V2000
  153.5179  134.0941  183.5572 C   0  0  0  0  0  0  0  0  0  0  0  0
  152.5019  132.9026  183.4839 C   0  0  0  0  0  0  0  0  0  0  0  0
  152.1541  132.6637  182.0597 C   0  0  0  0  0  0  0  0  0  0  0  0
  150.9703  131.9512  181.7977 C   0  0  0  0  0  0  0  0  0  0  0  0
  150.5356  131.6921  180.5339 C   0  0  0  0  0  0  0  0  0  0  0  0
  151.3397  132.1823  179.4968 C   0  0  0  0  0  0  0  0  0  0  0  0
  152.5067  132.8906  179.7085 C   0  0  0  0  0  0  0  0  0  0  0  0
  152.8980  133.1169  181.0245 C   0  0  0  0  0  0  0  0  0  0  0  0
  154.2009  133.8395  181.1747 C   0  0  0  0  0  0  0  0  0  0  0  0
  154.5348  133.7579  182.6005 N   0  0  0  0  0  0  0  0  0  0  0  0
  155.7709  133.2238  182.9749 C   0  0  0  0  0  0  0  0  0  0  0  0
  156.6661  132.9044  182.1817 O   0  0  0  0  0  0  0  0  0  0  0  0
  156.0440  133.0044  184.4105 C   0  0  0  0  0  0  0  0  0  0  0  0
  156.8394  131.9097  184.7602 C   0  0  0  0  0  0  0  0  0  0  0  0
  157.1924  131.6940  186.0756 C   0  0  0  0  0  0  0  0  0  0  0  0
  156.7749  132.5511  187.0823 C   0  0  0  0  0  0  0  0  0  0  0  0
  155.9992  133.6312  186.7125 C   0  0  0  0  0  0  0  0  0  0  0  0
  155.6459  133.8399  185.4164 C   0  0  0  0  0  0  0  0  0  0  0  0
  155.5687  134.5871  187.7967 C   0  0  0  0  0  0  0  0  0  0  0  0
  156.5171  135.5376  188.0311 F   0  0  0  0  0  0  0  0  0  0  0  0
  154.3503  135.1649  187.4249 F   0  0  0  0  0  0  0  0  0  0  0  0
  155.3274  133.8218  188.9335 F   0  0  0  0  0  0  0  0  0  0  0  0
  151.2905  135.2938  183.4398 N   0  0  0  0  0  0  0  0  0  0  0  0
  152.6969  135.2669  183.2711 C   0  0  0  0  0  0  0  0  0  0  0  0
  153.2077  136.3726  182.8385 O   0  0  0  0  0  0  0  0  0  0  0  0
  150.7661  134.4693  183.8201 H   0  0  0  0  0  0  0  0  0  0  0  0
  149.5124  138.0524  181.8247 C   0  0  0  0  0  0  0  0  0  0  0  0
  150.2004  136.8397  181.7869 C   0  0  0  0  0  0  0  0  0  0  0  0
  150.5534  136.4868  183.0986 C   0  0  0  0  0  0  0  0  0  0  0  0
  150.0796  137.4552  183.8570 O   0  0  0  0  0  0  0  0  0  0  0  0
  149.4929  138.3428  183.1390 N   0  0  0  0  0  0  0  0  0  0  0  0
  149.9202  139.9352  180.3334 C   0  0  0  0  0  0  0  0  0  0  0  0
  148.9875  138.7978  180.6595 C   0  0  0  0  0  0  0  0  0  0  0  0
  147.6254  139.3730  180.9571 C   0  0  0  0  0  0  0  0  0  0  0  0
  148.9135  137.8819  179.4387 C   0  0  0  0  0  0  0  0  0  0  0  0
 32 33  1  0  0  0
 33 34  1  0  0  0
 33 35  1  0  0  0
 33 27  1  0  0  0
 27 28  1  0  0  0
 28 29  2  0  0  0
 29 23  1  0  0  0
 23 24  1  0  0  0
 24 25  2  0  0  0
 24  1  1  0  0  0
  1  2  1  0  0  0
  2  3  1  0  0  0
  3  4  2  0  0  0
  4  5  1  0  0  0
  5  6  2  0  0  0
  6  7  1  0  0  0
  7  8  2  0  0  0
  8  9  1  0  0  0
  9 10  1  0  0  0
 10 11  1  0  0  0
 11 12  2  0  0  0
 11 13  1  0  0  0
 13 14  2  0  0  0
 14 15  1  0  0  0
 15 16  2  0  0  0
 16 17  1  0  0  0
 17 18  2  0  0  0
 17 19  1  0  0  0
 19 20  1  0  0  0
 19 21  1  0  0  0
 19 22  1  0  0  0
 29 30  1  0  0  0
 30 31  1  0  0  0
 31 27  2  0  0  0
 10  1  1  0  0  0
 18 13  1  0  0  0
  8  3  1  0  0  0
 23 26  1  0  0  0
M  END
> <minimizedAffinity>
-4.31039

> <CNNscore>
0.4008062780

> <CNNaffinity>
5.6812219620

> <CNN_VS>
2.2770693302

> <CNNaffinity_variance>
0.6075561643

$$$$
[H]c1c(C(C([H])([H])[H])(C([H])([H])[H])C([H])([H])[H])noc1N([H])C(=O)[C@]1([H])N(C(=O)c2c([H])c([H])c([H])c(C(F)(F)F)c2[H])C([H])([H])c2c([H])c([H])c([H])c([H])c2C1([H])[H]


 35 38  0  0  0  0  0  0  0  0999 V2000
  151.8593  135.7560  183.7246 C   0  0  0  0  0  0  0  0  0  0  0  0
  153.2388  135.7565  182.9803 C   0  0  0  0  0  0  0  0  0  0  0  0
  153.6823  134.3499  182.8039 C   0  0  0  0  0  0  0  0  0  0  0  0
  155.0494  134.1331  182.5554 C   0  0  0  0  0  0  0  0  0  0  0  0
  155.5775  132.8879  182.4007 C   0  0  0  0  0  0  0  0  0  0  0  0
  154.6747  131.8219  182.5070 C   0  0  0  0  0  0  0  0  0  0  0  0
  153.3260  131.9888  182.7549 C   0  0  0  0  0  0  0  0  0  0  0  0
  152.8490  133.2881  182.8977 C   0  0  0  0  0  0  0  0  0  0  0  0
  151.3699  133.3926  183.1061 C   0  0  0  0  0  0  0  0  0  0  0  0
  151.0552  134.8203  182.9894 N   0  0  0  0  0  0  0  0  0  0  0  0
  150.0877  135.2251  182.0657 C   0  0  0  0  0  0  0  0  0  0  0  0
  149.3872  134.4518  181.3994 O   0  0  0  0  0  0  0  0  0  0  0  0
  149.8793  136.6711  181.8435 C   0  0  0  0  0  0  0  0  0  0  0  0
  148.7841  137.2730  182.4693 C   0  0  0  0  0  0  0  0  0  0  0  0
  148.5779  138.6322  182.3625 C   0  0  0  0  0  0  0  0  0  0  0  0
  149.4453  139.4367  181.6395 C   0  0  0  0  0  0  0  0  0  0  0  0
  150.5257  138.8225  181.0388 C   0  0  0  0  0  0  0  0  0  0  0  0
  150.7249  137.4814  181.1389 C   0  0  0  0  0  0  0  0  0  0  0  0
  151.4926  139.6952  180.2784 C   0  0  0  0  0  0  0  0  0  0  0  0
  152.4863  138.9592  179.7050 F   0  0  0  0  0  0  0  0  0  0  0  0
  150.7792  140.4215  179.3191 F   0  0  0  0  0  0  0  0  0  0  0  0
  152.0045  140.6145  181.1889 F   0  0  0  0  0  0  0  0  0  0  0  0
  153.4224  135.7809  185.7172 N   0  0  0  0  0  0  0  0  0  0  0  0
  152.2068  135.4000  185.0972 C   0  0  0  0  0  0  0  0  0  0  0  0
  151.4165  134.7036  185.8461 O   0  0  0  0  0  0  0  0  0  0  0  0
  154.1281  136.3790  185.2235 H   0  0  0  0  0  0  0  0  0  0  0  0
  153.7216  135.3643  189.3389 C   0  0  0  0  0  0  0  0  0  0  0  0
  153.2658  136.0454  188.2103 C   0  0  0  0  0  0  0  0  0  0  0  0
  153.6989  135.3546  187.0681 C   0  0  0  0  0  0  0  0  0  0  0  0
  154.3693  134.3158  187.5251 O   0  0  0  0  0  0  0  0  0  0  0  0
  154.3857  134.3203  188.8086 N   0  0  0  0  0  0  0  0  0  0  0  0
  152.3611  136.7324  190.8263 C   0  0  0  0  0  0  0  0  0  0  0  0
  153.5150  135.7671  190.7474 C   0  0  0  0  0  0  0  0  0  0  0  0
  154.7420  136.4498  191.2980 C   0  0  0  0  0  0  0  0  0  0  0  0
  153.1693  134.5460  191.5986 C   0  0  0  0  0  0  0  0  0  0  0  0
 32 33  1  0  0  0
 33 34  1  0  0  0
 33 35  1  0  0  0
 33 27  1  0  0  0
 27 28  1  0  0  0
 28 29  2  0  0  0
 29 23  1  0  0  0
 23 24  1  0  0  0
 24 25  2  0  0  0
 24  1  1  0  0  0
  1  2  1  0  0  0
  2  3  1  0  0  0
  3  4  2  0  0  0
  4  5  1  0  0  0
  5  6  2  0  0  0
  6  7  1  0  0  0
  7  8  2  0  0  0
  8  9  1  0  0  0
  9 10  1  0  0  0
 10 11  1  0  0  0
 11 12  2  0  0  0
 11 13  1  0  0  0
 13 14  2  0  0  0
 14 15  1  0  0  0
 15 16  2  0  0  0
 16 17  1  0  0  0
 17 18  2  0  0  0
 17 19  1  0  0  0
 19 20  1  0  0  0
 19 21  1  0  0  0
 19 22  1  0  0  0
 29 30  1  0  0  0
 30 31  1  0  0  0
 31 27  2  0  0  0
 10  1  1  0  0  0
 18 13  1  0  0  0
  8  3  1  0  0  0
 23 26  1  0  0  0
M  END
> <minimizedAffinity>
-5.48446

> <CNNscore>
0.3912490010

> <CNNaffinity>
5.7060704231

> <CNN_VS>
2.2324943542

> <CNNaffinity_variance>
0.2317971736

$$$$
[H]c1c(C(C([H])([H])[H])(C([H])([H])[H])C([H])([H])[H])noc1N([H])C(=O)[C@]1([H])N(C(=O)c2c([H])c([H])c([H])c(C(F)(F)F)c2[H])C([H])([H])c2c([H])c([H])c([H])c([H])c2C1([H])[H]


 35 38  0  0  0  0  0  0  0  0999 V2000
  151.2021  136.5136  185.5006 C   0  0  0  0  0  0  0  0  0  0  0  0
  152.7135  136.4870  185.0859 C   0  0  0  0  0  0  0  0  0  0  0  0
  153.2627  135.1393  185.3835 C   0  0  0  0  0  0  0  0  0  0  0  0
  154.6601  135.0237  185.4906 C   0  0  0  0  0  0  0  0  0  0  0  0
  155.2776  133.8463  185.7836 C   0  0  0  0  0  0  0  0  0  0  0  0
  154.4348  132.7442  185.9778 C   0  0  0  0  0  0  0  0  0  0  0  0
  153.0581  132.8137  185.8871 C   0  0  0  0  0  0  0  0  0  0  0  0
  152.4901  134.0460  185.5793 C   0  0  0  0  0  0  0  0  0  0  0  0
  150.9991  134.0310  185.4409 C   0  0  0  0  0  0  0  0  0  0  0  0
  150.6413  135.3417  184.8884 N   0  0  0  0  0  0  0  0  0  0  0  0
  149.8911  135.3958  183.7106 C   0  0  0  0  0  0  0  0  0  0  0  0
  149.4062  134.4089  183.1418 O   0  0  0  0  0  0  0  0  0  0  0  0
  149.6597  136.7102  183.0759 C   0  0  0  0  0  0  0  0  0  0  0  0
  148.4405  137.3462  183.3257 C   0  0  0  0  0  0  0  0  0  0  0  0
  148.1941  138.6069  182.8243 C   0  0  0  0  0  0  0  0  0  0  0  0
  149.1416  139.2773  182.0660 C   0  0  0  0  0  0  0  0  0  0  0  0
  150.3423  138.6345  181.8409 C   0  0  0  0  0  0  0  0  0  0  0  0
  150.5823  137.3889  182.3299 C   0  0  0  0  0  0  0  0  0  0  0  0
  151.3912  139.3703  181.0453 C   0  0  0  0  0  0  0  0  0  0  0  0
  152.2173  138.5078  180.3885 F   0  0  0  0  0  0  0  0  0  0  0  0
  150.7495  140.2377  180.1551 F   0  0  0  0  0  0  0  0  0  0  0  0
  152.0977  140.1602  181.9471 F   0  0  0  0  0  0  0  0  0  0  0  0
  150.4410  135.7179  187.7814 N   0  0  0  0  0  0  0  0  0  0  0  0
  151.2441  136.5466  186.9596 C   0  0  0  0  0  0  0  0  0  0  0  0
  152.0280  137.3462  187.6051 O   0  0  0  0  0  0  0  0  0  0  0  0
  149.7923  135.0019  187.3741 H   0  0  0  0  0  0  0  0  0  0  0  0
  151.4336  136.0966  191.2816 C   0  0  0  0  0  0  0  0  0  0  0  0
  151.7225  136.0363  189.9184 C   0  0  0  0  0  0  0  0  0  0  0  0
  150.5224  135.8424  189.2170 C   0  0  0  0  0  0  0  0  0  0  0  0
  149.5838  135.8010  190.1416 O   0  0  0  0  0  0  0  0  0  0  0  0
  150.0966  135.9420  191.3098 N   0  0  0  0  0  0  0  0  0  0  0  0
  153.7778  136.5187  191.7931 C   0  0  0  0  0  0  0  0  0  0  0  0
  152.4135  136.2606  192.3778 C   0  0  0  0  0  0  0  0  0  0  0  0
  152.4891  135.0143  193.2238 C   0  0  0  0  0  0  0  0  0  0  0  0
  152.0362  137.4603  193.2458 C   0  0  0  0  0  0  0  0  0  0  0  0
 32 33  1  0  0  0
 33 34  1  0  0  0
 33 35  1  0  0  0
 33 27  1  0  0  0
 27 28  1  0  0  0
 28 29  2  0  0  0
 29 23  1  0  0  0
 23 24  1  0  0  0
 24 25  2  0  0  0
 24  1  1  0  0  0
  1  2  1  0  0  0
  2  3  1  0  0  0
  3  4  2  0  0  0
  4  5  1  0  0  0
  5  6  2  0  0  0
  6  7  1  0  0  0
  7  8  2  0  0  0
  8  9  1  0  0  0
  9 10  1  0  0  0
 10 11  1  0  0  0
 11 12  2  0  0  0
 11 13  1  0  0  0
 13 14  2  0  0  0
 14 15  1  0  0  0
 15 16  2  0  0  0
 16 17  1  0  0  0
 17 18  2  0  0  0
 17 19  1  0  0  0
 19 20  1  0  0  0
 19 21  1  0  0  0
 19 22  1  0  0  0
 29 30  1  0  0  0
 30 31  1  0  0  0
 31 27  2  0  0  0
 10  1  1  0  0  0
 18 13  1  0  0  0
  8  3  1  0  0  0
 23 26  1  0  0  0
M  END
> <minimizedAffinity>
-5.92226

> <CNNscore>
0.3888488114

> <CNNaffinity>
5.7746763229

> <CNN_VS>
2.2454760075

> <CNNaffinity_variance>
0.1476364285

$$$$
[H]c1c(C(C([H])([H])[H])(C([H])([H])[H])C([H])([H])[H])noc1N([H])C(=O)[C@]1([H])N(C(=O)c2c([H])c([H])c([H])c(C(F)(F)F)c2[H])C([H])([H])c2c([H])c([H])c([H])c([H])c2C1([H])[H]


 35 38  0  0  0  0  0  0  0  0999 V2000
  155.3161  140.9576  182.9911 C   0  0  0  0  0  0  0  0  0  0  0  0
  154.9209  141.0220  184.5066 C   0  0  0  0  0  0  0  0  0  0  0  0
  154.4895  139.6688  184.9416 C   0  0  0  0  0  0  0  0  0  0  0  0
  153.7074  139.5871  186.1075 C   0  0  0  0  0  0  0  0  0  0  0  0
  153.2333  138.4058  186.5904 C   0  0  0  0  0  0  0  0  0  0  0  0
  153.5683  137.2634  185.8520 C   0  0  0  0  0  0  0  0  0  0  0  0
  154.3292  137.2982  184.6996 C   0  0  0  0  0  0  0  0  0  0  0  0
  154.7875  138.5372  184.2625 C   0  0  0  0  0  0  0  0  0  0  0  0
  155.6529  138.4894  183.0414 C   0  0  0  0  0  0  0  0  0  0  0  0
  156.2114  139.8383  182.9011 N   0  0  0  0  0  0  0  0  0  0  0  0
  157.5989  139.9904  182.8296 C   0  0  0  0  0  0  0  0  0  0  0  0
  158.4050  139.0528  182.7690 O   0  0  0  0  0  0  0  0  0  0  0  0
  158.1648  141.3555  182.8390 C   0  0  0  0  0  0  0  0  0  0  0  0
  157.5990  142.2989  181.9769 C   0  0  0  0  0  0  0  0  0  0  0  0
  158.0320  143.6080  181.9921 C   0  0  0  0  0  0  0  0  0  0  0  0
  159.0314  144.0251  182.8579 C   0  0  0  0  0  0  0  0  0  0  0  0
  159.5682  143.0789  183.7075 C   0  0  0  0  0  0  0  0  0  0  0  0
  159.1456  141.7869  183.6876 C   0  0  0  0  0  0  0  0  0  0  0  0
  160.6322  143.5316  184.6758 C   0  0  0  0  0  0  0  0  0  0  0  0
  160.9782  144.8332  184.4662 F   0  0  0  0  0  0  0  0  0  0  0  0
  160.1639  143.3332  185.9788 F   0  0  0  0  0  0  0  0  0  0  0  0
  161.7214  142.6837  184.5000 F   0  0  0  0  0  0  0  0  0  0  0  0
  153.6084  139.6620  181.6422 N   0  0  0  0  0  0  0  0  0  0  0  0
  154.0335  140.8405  182.3037 C   0  0  0  0  0  0  0  0  0  0  0  0
  153.1907  141.8192  182.2531 O   0  0  0  0  0  0  0  0  0  0  0  0
  154.1893  138.7891  181.6456 H   0  0  0  0  0  0  0  0  0  0  0  0
  150.1482  139.2064  180.5471 C   0  0  0  0  0  0  0  0  0  0  0  0
  151.1788  139.0469  181.4734 C   0  0  0  0  0  0  0  0  0  0  0  0
  152.3380  139.6466  180.9574 C   0  0  0  0  0  0  0  0  0  0  0  0
  151.9828  140.1359  179.7862 O   0  0  0  0  0  0  0  0  0  0  0  0
  150.7459  139.8862  179.5507 N   0  0  0  0  0  0  0  0  0  0  0  0
  147.9118  139.7407  181.3521 C   0  0  0  0  0  0  0  0  0  0  0  0
  148.7654  138.6973  180.6796 C   0  0  0  0  0  0  0  0  0  0  0  0
  148.7307  137.4445  181.5186 C   0  0  0  0  0  0  0  0  0  0  0  0
  148.1726  138.4190  179.2990 C   0  0  0  0  0  0  0  0  0  0  0  0
 32 33  1  0  0  0
 33 34  1  0  0  0
 33 35  1  0  0  0
 33 27  1  0  0  0
 27 28  1  0  0  0
 28 29  2  0  0  0
 29 23  1  0  0  0
 23 24  1  0  0  0
 24 25  2  0  0  0
 24  1  1  0  0  0
  1  2  1  0  0  0
  2  3  1  0  0  0
  3  4  2  0  0  0
  4  5  1  0  0  0
  5  6  2  0  0  0
  6  7  1  0  0  0
  7  8  2  0  0  0
  8  9  1  0  0  0
  9 10  1  0  0  0
 10 11  1  0  0  0
 11 12  2  0  0  0
 11 13  1  0  0  0
 13 14  2  0  0  0
 14 15  1  0  0  0
 15 16  2  0  0  0
 16 17  1  0  0  0
 17 18  2  0  0  0
 17 19  1  0  0  0
 19 20  1  0  0  0
 19 21  1  0  0  0
 19 22  1  0  0  0
 29 30  1  0  0  0
 30 31  1  0  0  0
 31 27  2  0  0  0
 10  1  1  0  0  0
 18 13  1  0  0  0
  8  3  1  0  0  0
 23 26  1  0  0  0
M  END
> <minimizedAffinity>
-7.65048

> <CNNscore>
0.3557878733

> <CNNaffinity>
6.4031190872

> <CNN_VS>
2.2781522274

> <CNNaffinity_variance>
0.1639136076

$$$$
[H]c1c(C(C([H])([H])[H])(C([H])([H])[H])C([H])([H])[H])noc1N([H])C(=O)[C@]1([H])N(C(=O)c2c([H])c([H])c([H])c(C(F)(F)F)c2[H])C([H])([H])c2c([H])c([H])c([H])c([H])c2C1([H])[H]


 35 38  0  0  0  0  0  0  0  0999 V2000
  153.2426  136.9433  186.9284 C   0  0  0  0  0  0  0  0  0  0  0  0
  151.7606  137.4518  186.8826 C   0  0  0  0  0  0  0  0  0  0  0  0
  151.0632  136.7782  185.7572 C   0  0  0  0  0  0  0  0  0  0  0  0
  149.8879  137.3817  185.2755 C   0  0  0  0  0  0  0  0  0  0  0  0
  149.1761  136.8710  184.2336 C   0  0  0  0  0  0  0  0  0  0  0  0
  149.6860  135.6995  183.6589 C   0  0  0  0  0  0  0  0  0  0  0  0
  150.8386  135.0764  184.0966 C   0  0  0  0  0  0  0  0  0  0  0  0
  151.5164  135.6468  185.1696 C   0  0  0  0  0  0  0  0  0  0  0  0
  152.7224  134.8848  185.6247 C   0  0  0  0  0  0  0  0  0  0  0  0
  153.1325  135.5120  186.8854 N   0  0  0  0  0  0  0  0  0  0  0  0
  153.2602  134.7146  188.0260 C   0  0  0  0  0  0  0  0  0  0  0  0
  153.1545  133.4811  188.0348 O   0  0  0  0  0  0  0  0  0  0  0  0
  153.5266  135.3692  189.3238 C   0  0  0  0  0  0  0  0  0  0  0  0
  152.4330  135.6407  190.1507 C   0  0  0  0  0  0  0  0  0  0  0  0
  152.6222  136.1812  191.4050 C   0  0  0  0  0  0  0  0  0  0  0  0
  153.8927  136.4667  191.8811 C   0  0  0  0  0  0  0  0  0  0  0  0
  154.9584  136.1806  191.0517 C   0  0  0  0  0  0  0  0  0  0  0  0
  154.7709  135.6537  189.8126 C   0  0  0  0  0  0  0  0  0  0  0  0
  156.3457  136.4568  191.5749 C   0  0  0  0  0  0  0  0  0  0  0  0
  156.4390  136.1926  192.9088 F   0  0  0  0  0  0  0  0  0  0  0  0
  157.2600  135.6946  190.8401 F   0  0  0  0  0  0  0  0  0  0  0  0
  156.6178  137.7941  191.3035 F   0  0  0  0  0  0  0  0  0  0  0  0
  153.7917  138.9914  185.5434 N   0  0  0  0  0  0  0  0  0  0  0  0
  153.8682  137.5971  185.7827 C   0  0  0  0  0  0  0  0  0  0  0  0
  154.5416  136.9362  184.8994 O   0  0  0  0  0  0  0  0  0  0  0  0
  153.3042  139.6381  186.2094 H   0  0  0  0  0  0  0  0  0  0  0  0
  156.0090  140.4506  183.0265 C   0  0  0  0  0  0  0  0  0  0  0  0
  155.7553  139.9481  184.3027 C   0  0  0  0  0  0  0  0  0  0  0  0
  154.4114  139.5484  184.3649 C   0  0  0  0  0  0  0  0  0  0  0  0
  153.9182  139.8052  183.1698 O   0  0  0  0  0  0  0  0  0  0  0  0
  154.8186  140.3176  182.4121 N   0  0  0  0  0  0  0  0  0  0  0  0
  158.2333  139.8799  182.2130 C   0  0  0  0  0  0  0  0  0  0  0  0
  157.2916  141.0083  182.5442 C   0  0  0  0  0  0  0  0  0  0  0  0
  157.9368  141.8683  183.6020 C   0  0  0  0  0  0  0  0  0  0  0  0
  157.0655  141.8245  181.2724 C   0  0  0  0  0  0  0  0  0  0  0  0
 32 33  1  0  0  0
 33 34  1  0  0  0
 33 35  1  0  0  0
 33 27  1  0  0  0
 27 28  1  0  0  0
 28 29  2  0  0  0
 29 23  1  0  0  0
 23 24  1  0  0  0
 24 25  2  0  0  0
 24  1  1  0  0  0
  1  2  1  0  0  0
  2  3  1  0  0  0
  3  4  2  0  0  0
  4  5  1  0  0  0
  5  6  2  0  0  0
  6  7  1  0  0  0
  7  8  2  0  0  0
  8  9  1  0  0  0
  9 10  1  0  0  0
 10 11  1  0  0  0
 11 12  2  0  0  0
 11 13  1  0  0  0
 13 14  2  0  0  0
 14 15  1  0  0  0
 15 16  2  0  0  0
 16 17  1  0  0  0
 17 18  2  0  0  0
 17 19  1  0  0  0
 19 20  1  0  0  0
 19 21  1  0  0  0
 19 22  1  0  0  0
 29 30  1  0  0  0
 30 31  1  0  0  0
 31 27  2  0  0  0
 10  1  1  0  0  0
 18 13  1  0  0  0
  8  3  1  0  0  0
 23 26  1  0  0  0
M  END
> <minimizedAffinity>
-7.00365

> <CNNscore>
0.3504064083

> <CNNaffinity>
6.0874242783

> <CNN_VS>
2.1330723763

> <CNNaffinity_variance>
0.2709186673

$$$$
[H]c1c(C(C([H])([H])[H])(C([H])([H])[H])C([H])([H])[H])noc1N([H])C(=O)[C@]1([H])N(C(=O)c2c([H])c([H])c([H])c(C(F)(F)F)c2[H])C([H])([H])c2c([H])c([H])c([H])c([H])c2C1([H])[H]


 35 38  0  0  0  0  0  0  0  0999 V2000
  154.3331  137.5788  186.2446 C   0  0  0  0  0  0  0  0  0  0  0  0
  152.7990  137.5959  186.5662 C   0  0  0  0  0  0  0  0  0  0  0  0
  152.0667  137.0129  185.4128 C   0  0  0  0  0  0  0  0  0  0  0  0
  150.6971  137.3126  185.3028 C   0  0  0  0  0  0  0  0  0  0  0  0
  149.9274  136.8562  184.2768 C   0  0  0  0  0  0  0  0  0  0  0  0
  150.5826  136.0653  183.3241 C   0  0  0  0  0  0  0  0  0  0  0  0
  151.9261  135.7505  183.3903 C   0  0  0  0  0  0  0  0  0  0  0  0
  152.6552  136.2442  184.4677 C   0  0  0  0  0  0  0  0  0  0  0  0
  154.0891  135.8139  184.5029 C   0  0  0  0  0  0  0  0  0  0  0  0
  154.5945  136.2338  185.8141 N   0  0  0  0  0  0  0  0  0  0  0  0
  155.1806  135.2787  186.6492 C   0  0  0  0  0  0  0  0  0  0  0  0
  155.4061  134.1059  186.3233 O   0  0  0  0  0  0  0  0  0  0  0  0
  155.5525  135.6707  188.0247 C   0  0  0  0  0  0  0  0  0  0  0  0
  156.5455  134.9251  188.6662 C   0  0  0  0  0  0  0  0  0  0  0  0
  156.9898  135.2860  189.9207 C   0  0  0  0  0  0  0  0  0  0  0  0
  156.4714  136.3919  190.5769 C   0  0  0  0  0  0  0  0  0  0  0  0
  155.4994  137.1194  189.9200 C   0  0  0  0  0  0  0  0  0  0  0  0
  155.0570  136.7594  188.6860 C   0  0  0  0  0  0  0  0  0  0  0  0
  154.9541  138.3432  190.6125 C   0  0  0  0  0  0  0  0  0  0  0  0
  155.9278  139.0047  191.2996 F   0  0  0  0  0  0  0  0  0  0  0  0
  154.3566  139.1692  189.6548 F   0  0  0  0  0  0  0  0  0  0  0  0
  153.9428  137.9059  191.4624 F   0  0  0  0  0  0  0  0  0  0  0  0
  155.6012  138.7272  184.3772 N   0  0  0  0  0  0  0  0  0  0  0  0
  154.4903  138.6375  185.2518 C   0  0  0  0  0  0  0  0  0  0  0  0
  153.6133  139.5756  185.1049 O   0  0  0  0  0  0  0  0  0  0  0  0
  156.3601  138.0036  184.3756 H   0  0  0  0  0  0  0  0  0  0  0  0
  156.5034  141.6878  182.4276 C   0  0  0  0  0  0  0  0  0  0  0  0
  156.7449  140.7569  183.4378 C   0  0  0  0  0  0  0  0  0  0  0  0
  155.6921  139.8289  183.4493 C   0  0  0  0  0  0  0  0  0  0  0  0
  154.8846  140.2095  182.4795 O   0  0  0  0  0  0  0  0  0  0  0  0
  155.3397  141.2616  181.9020 N   0  0  0  0  0  0  0  0  0  0  0  0
  157.8519  142.7163  180.6786 C   0  0  0  0  0  0  0  0  0  0  0  0
  157.3487  142.8546  182.0919 C   0  0  0  0  0  0  0  0  0  0  0  0
  158.5403  142.9392  183.0126 C   0  0  0  0  0  0  0  0  0  0  0  0
  156.5284  144.1409  182.1782 C   0  0  0  0  0  0  0  0  0  0  0  0
 32 33  1  0  0  0
 33 34  1  0  0  0
 33 35  1  0  0  0
 33 27  1  0  0  0
 27 28  1  0  0  0
 28 29  2  0  0  0
 29 23  1  0  0  0
 23 24  1  0  0  0
 24 25  2  0  0  0
 24  1  1  0  0  0
  1  2  1  0  0  0
  2  3  1  0  0  0
  3  4  2  0  0  0
  4  5  1  0  0  0
  5  6  2  0  0  0
  6  7  1  0  0  0
  7  8  2  0  0  0
  8  9  1  0  0  0
  9 10  1  0  0  0
 10 11  1  0  0  0
 11 12  2  0  0  0
 11 13  1  0  0  0
 13 14  2  0  0  0
 14 15  1  0  0  0
 15 16  2  0  0  0
 16 17  1  0  0  0
 17 18  2  0  0  0
 17 19  1  0  0  0
 19 20  1  0  0  0
 19 21  1  0  0  0
 19 22  1  0  0  0
 29 30  1  0  0  0
 30 31  1  0  0  0
 31 27  2  0  0  0
 10  1  1  0  0  0
 18 13  1  0  0  0
  8  3  1  0  0  0
 23 26  1  0  0  0
M  END
> <minimizedAffinity>
-7.88615

> <CNNscore>
0.3357711732

> <CNNaffinity>
6.2256684303

> <CNN_VS>
2.0903999805

> <CNNaffinity_variance>
0.2005086839

$$$$
[H]c1c([H])c([H])c(N2C([H])([H])C([H])([H])N(C([H])([H])C([H])([H])N3C(=O)C([H])([H])C4(C([H])([H])C3=O)C([H])([H])C([H])([H])C([H])([H])C4([H])[H])C([H])([H])C2([H])[H])c(OC([H])([H])[H])c1[H]


 28 31  0  0  0  0  0  0  0  0999 V2000
  156.3727  141.0663  183.8695 N   0  0  0  0  0  0  0  0  0  0  0  0
  155.7137  139.7832  183.9473 C   0  0  0  0  0  0  0  0  0  0  0  0
  154.2564  139.9141  183.4907 C   0  0  0  0  0  0  0  0  0  0  0  0
  154.2207  140.7996  182.3842 N   0  0  0  0  0  0  0  0  0  0  0  0
  154.4264  142.1413  182.8105 C   0  0  0  0  0  0  0  0  0  0  0  0
  155.5448  142.2681  183.7968 C   0  0  0  0  0  0  0  0  0  0  0  0
  158.4848  141.0854  182.6891 C   0  0  0  0  0  0  0  0  0  0  0  0
  159.8550  141.2163  182.6471 C   0  0  0  0  0  0  0  0  0  0  0  0
  160.5672  141.4777  183.8179 C   0  0  0  0  0  0  0  0  0  0  0  0
  159.8665  141.5996  185.0028 C   0  0  0  0  0  0  0  0  0  0  0  0
  158.4955  141.4636  185.0124 C   0  0  0  0  0  0  0  0  0  0  0  0
  157.7609  141.2029  183.8616 C   0  0  0  0  0  0  0  0  0  0  0  0
  158.0416  141.5034  180.3046 C   0  0  0  0  0  0  0  0  0  0  0  0
  157.7983  140.8260  181.5128 O   0  0  0  0  0  0  0  0  0  0  0  0
  153.2210  140.5988  181.4072 C   0  0  0  0  0  0  0  0  0  0  0  0
  152.7804  139.1623  181.2440 C   0  0  0  0  0  0  0  0  0  0  0  0
  151.3605  139.0566  181.2092 N   0  0  0  0  0  0  0  0  0  0  0  0
  150.5883  139.7228  180.2270 C   0  0  0  0  0  0  0  0  0  0  0  0
  151.0841  140.2612  179.2341 O   0  0  0  0  0  0  0  0  0  0  0  0
  149.0984  139.7492  180.4480 C   0  0  0  0  0  0  0  0  0  0  0  0
  148.6592  138.3448  180.7334 C   0  0  0  0  0  0  0  0  0  0  0  0
  149.1524  137.4802  179.5866 C   0  0  0  0  0  0  0  0  0  0  0  0
  148.0250  137.7106  178.5716 C   0  0  0  0  0  0  0  0  0  0  0  0
  146.8121  137.4458  179.4399 C   0  0  0  0  0  0  0  0  0  0  0  0
  147.1789  138.1473  180.7250 C   0  0  0  0  0  0  0  0  0  0  0  0
  149.2389  137.9225  182.0626 C   0  0  0  0  0  0  0  0  0  0  0  0
  150.6803  138.2690  182.1702 C   0  0  0  0  0  0  0  0  0  0  0  0
  151.3127  137.8464  183.1485 O   0  0  0  0  0  0  0  0  0  0  0  0
 13 14  1  0  0  0
 14  7  1  0  0  0
  7  8  2  0  0  0
  8  9  1  0  0  0
  9 10  2  0  0  0
 10 11  1  0  0  0
 11 12  2  0  0  0
 12  1  1  0  0  0
  1  2  1  0  0  0
  2  3  1  0  0  0
  3  4  1  0  0  0
  4 15  1  0  0  0
 15 16  1  0  0  0
 16 17  1  0  0  0
 17 18  1  0  0  0
 18 19  2  0  0  0
 18 20  1  0  0  0
 20 21  1  0  0  0
 21 22  1  0  0  0
 22 23  1  0  0  0
 23 24  1  0  0  0
 24 25  1  0  0  0
 21 26  1  0  0  0
 26 27  1  0  0  0
 27 28  2  0  0  0
  4  5  1  0  0  0
  5  6  1  0  0  0
 12  7  1  0  0  0
  6  1  1  0  0  0
 27 17  1  0  0  0
 25 21  1  0  0  0
M  END
> <minimizedAffinity>
-7.64316

> <CNNscore>
0.5337018967

> <CNNaffinity>
6.0825548172

> <CNN_VS>
3.2462711334

> <CNNaffinity_variance>
0.1035010591

$$$$
[H]c1c([H])c([H])c(N2C([H])([H])C([H])([H])N(C([H])([H])C([H])([H])N3C(=O)C([H])([H])C4(C([H])([H])C3=O)C([H])([H])C([H])([H])C([H])([H])C4([H])[H])C([H])([H])C2([H])[H])c(OC([H])([H])[H])c1[H]


 28 31  0  0  0  0  0  0  0  0999 V2000
  154.8371  136.7028  188.6856 N   0  0  0  0  0  0  0  0  0  0  0  0
  155.7894  137.7474  188.3874 C   0  0  0  0  0  0  0  0  0  0  0  0
  155.7802  138.0517  186.8852 C   0  0  0  0  0  0  0  0  0  0  0  0
  154.4370  138.0001  186.4348 N   0  0  0  0  0  0  0  0  0  0  0  0
  153.9801  136.6539  186.3772 C   0  0  0  0  0  0  0  0  0  0  0  0
  154.3632  135.8624  187.5883 C   0  0  0  0  0  0  0  0  0  0  0  0
  155.0677  135.6944  190.8730 C   0  0  0  0  0  0  0  0  0  0  0  0
  154.6205  135.4427  192.1509 C   0  0  0  0  0  0  0  0  0  0  0  0
  153.4042  135.9730  192.5817 C   0  0  0  0  0  0  0  0  0  0  0  0
  152.6732  136.7471  191.7006 C   0  0  0  0  0  0  0  0  0  0  0  0
  153.1475  136.9813  190.4284 C   0  0  0  0  0  0  0  0  0  0  0  0
  154.3550  136.4655  189.9728 C   0  0  0  0  0  0  0  0  0  0  0  0
  157.1113  134.3929  191.3051 C   0  0  0  0  0  0  0  0  0  0  0  0
  156.2796  135.1570  190.4671 O   0  0  0  0  0  0  0  0  0  0  0  0
  154.0673  138.8340  185.3568 C   0  0  0  0  0  0  0  0  0  0  0  0
  154.9813  138.7518  184.1559 C   0  0  0  0  0  0  0  0  0  0  0  0
  155.3822  140.0472  183.7203 N   0  0  0  0  0  0  0  0  0  0  0  0
  156.5777  140.6504  184.1804 C   0  0  0  0  0  0  0  0  0  0  0  0
  157.4398  140.0357  184.8133 O   0  0  0  0  0  0  0  0  0  0  0  0
  156.7602  142.1107  183.8585 C   0  0  0  0  0  0  0  0  0  0  0  0
  156.5030  142.2856  182.3923 C   0  0  0  0  0  0  0  0  0  0  0  0
  157.4152  141.3176  181.6596 C   0  0  0  0  0  0  0  0  0  0  0  0
  158.7054  142.1468  181.6127 C   0  0  0  0  0  0  0  0  0  0  0  0
  158.1717  143.4596  181.0769 C   0  0  0  0  0  0  0  0  0  0  0  0
  156.8879  143.6242  181.8535 C   0  0  0  0  0  0  0  0  0  0  0  0
  155.0416  142.0118  182.1265 C   0  0  0  0  0  0  0  0  0  0  0  0
  154.5820  140.7700  182.8017 C   0  0  0  0  0  0  0  0  0  0  0  0
  153.4442  140.3509  182.5456 O   0  0  0  0  0  0  0  0  0  0  0  0
 13 14  1  0  0  0
 14  7  1  0  0  0
  7  8  2  0  0  0
  8  9  1  0  0  0
  9 10  2  0  0  0
 10 11  1  0  0  0
 11 12  2  0  0  0
 12  1  1  0  0  0
  1  2  1  0  0  0
  2  3  1  0  0  0
  3  4  1  0  0  0
  4 15  1  0  0  0
 15 16  1  0  0  0
 16 17  1  0  0  0
 17 18  1  0  0  0
 18 19  2  0  0  0
 18 20  1  0  0  0
 20 21  1  0  0  0
 21 22  1  0  0  0
 22 23  1  0  0  0
 23 24  1  0  0  0
 24 25  1  0  0  0
 21 26  1  0  0  0
 26 27  1  0  0  0
 27 28  2  0  0  0
  4  5  1  0  0  0
  5  6  1  0  0  0
 12  7  1  0  0  0
  6  1  1  0  0  0
 27 17  1  0  0  0
 25 21  1  0  0  0
M  END
> <minimizedAffinity>
-7.24234

> <CNNscore>
0.4415518641

> <CNNaffinity>
5.7483186722

> <CNN_VS>
2.5381808281

> <CNNaffinity_variance>
0.0380777903

$$$$
[H]c1c([H])c([H])c(N2C([H])([H])C([H])([H])N(C([H])([H])C([H])([H])N3C(=O)C([H])([H])C4(C([H])([H])C3=O)C([H])([H])C([H])([H])C([H])([H])C4([H])[H])C([H])([H])C2([H])[H])c(OC([H])([H])[H])c1[H]


 28 31  0  0  0  0  0  0  0  0999 V2000
  149.8311  137.3793  182.4587 N   0  0  0  0  0  0  0  0  0  0  0  0
  148.8277  137.7338  183.4357 C   0  0  0  0  0  0  0  0  0  0  0  0
  148.9788  136.8570  184.6838 C   0  0  0  0  0  0  0  0  0  0  0  0
  150.3634  136.6910  184.9390 N   0  0  0  0  0  0  0  0  0  0  0  0
  150.9440  135.8040  183.9902 C   0  0  0  0  0  0  0  0  0  0  0  0
  150.5001  136.0869  182.5891 C   0  0  0  0  0  0  0  0  0  0  0  0
  151.2365  139.1077  181.5143 C   0  0  0  0  0  0  0  0  0  0  0  0
  151.6114  139.9470  180.4888 C   0  0  0  0  0  0  0  0  0  0  0  0
  150.9208  139.9199  179.2770 C   0  0  0  0  0  0  0  0  0  0  0  0
  149.8654  139.0384  179.1390 C   0  0  0  0  0  0  0  0  0  0  0  0
  149.5144  138.2111  180.1833 C   0  0  0  0  0  0  0  0  0  0  0  0
  150.1844  138.2172  181.4010 C   0  0  0  0  0  0  0  0  0  0  0  0
  153.3416  139.1854  182.7868 C   0  0  0  0  0  0  0  0  0  0  0  0
  151.9378  139.1522  182.7095 O   0  0  0  0  0  0  0  0  0  0  0  0
  150.7751  136.5309  186.2803 C   0  0  0  0  0  0  0  0  0  0  0  0
  152.2288  136.1544  186.4514 C   0  0  0  0  0  0  0  0  0  0  0  0
  152.7878  136.7606  187.6127 N   0  0  0  0  0  0  0  0  0  0  0  0
  152.7544  136.1212  188.8755 C   0  0  0  0  0  0  0  0  0  0  0  0
  152.4332  134.9393  189.0217 O   0  0  0  0  0  0  0  0  0  0  0  0
  153.1361  136.9633  190.0649 C   0  0  0  0  0  0  0  0  0  0  0  0
  154.4379  137.6336  189.7446 C   0  0  0  0  0  0  0  0  0  0  0  0
  155.4182  136.5424  189.3524 C   0  0  0  0  0  0  0  0  0  0  0  0
  155.8975  136.0992  190.7410 C   0  0  0  0  0  0  0  0  0  0  0  0
  156.2435  137.4400  191.3556 C   0  0  0  0  0  0  0  0  0  0  0  0
  155.0895  138.3044  190.9089 C   0  0  0  0  0  0  0  0  0  0  0  0
  154.2043  138.6250  188.6293 C   0  0  0  0  0  0  0  0  0  0  0  0
  153.4003  138.0350  187.5271 C   0  0  0  0  0  0  0  0  0  0  0  0
  153.2624  138.6928  186.4859 O   0  0  0  0  0  0  0  0  0  0  0  0
 13 14  1  0  0  0
 14  7  1  0  0  0
  7  8  2  0  0  0
  8  9  1  0  0  0
  9 10  2  0  0  0
 10 11  1  0  0  0
 11 12  2  0  0  0
 12  1  1  0  0  0
  1  2  1  0  0  0
  2  3  1  0  0  0
  3  4  1  0  0  0
  4 15  1  0  0  0
 15 16  1  0  0  0
 16 17  1  0  0  0
 17 18  1  0  0  0
 18 19  2  0  0  0
 18 20  1  0  0  0
 20 21  1  0  0  0
 21 22  1  0  0  0
 22 23  1  0  0  0
 23 24  1  0  0  0
 24 25  1  0  0  0
 21 26  1  0  0  0
 26 27  1  0  0  0
 27 28  2  0  0  0
  4  5  1  0  0  0
  5  6  1  0  0  0
 12  7  1  0  0  0
  6  1  1  0  0  0
 27 17  1  0  0  0
 25 21  1  0  0  0
M  END
> <minimizedAffinity>
-6.54415

> <CNNscore>
0.4364290833

> <CNNaffinity>
5.1583213806

> <CNN_VS>
2.2512414455

> <CNNaffinity_variance>
0.0886850208

$$$$
[H]c1c([H])c([H])c(N2C([H])([H])C([H])([H])N(C([H])([H])C([H])([H])N3C(=O)C([H])([H])C4(C([H])([H])C3=O)C([H])([H])C([H])([H])C([H])([H])C4([H])[H])C([H])([H])C2([H])[H])c(OC([H])([H])[H])c1[H]


 28 31  0  0  0  0  0  0  0  0999 V2000
  150.9208  136.9138  182.1433 N   0  0  0  0  0  0  0  0  0  0  0  0
  150.4983  137.1512  183.5042 C   0  0  0  0  0  0  0  0  0  0  0  0
  150.9863  136.0153  184.4101 C   0  0  0  0  0  0  0  0  0  0  0  0
  152.2942  135.6558  183.9980 N   0  0  0  0  0  0  0  0  0  0  0  0
  152.2523  134.9389  182.7697 C   0  0  0  0  0  0  0  0  0  0  0  0
  151.3292  135.5615  181.7697 C   0  0  0  0  0  0  0  0  0  0  0  0
  149.8809  138.1329  180.3303 C   0  0  0  0  0  0  0  0  0  0  0  0
  149.8811  139.1171  179.3670 C   0  0  0  0  0  0  0  0  0  0  0  0
  150.9934  139.9455  179.2160 C   0  0  0  0  0  0  0  0  0  0  0  0
  152.0783  139.7515  180.0499 C   0  0  0  0  0  0  0  0  0  0  0  0
  152.0478  138.7583  181.0043 C   0  0  0  0  0  0  0  0  0  0  0  0
  150.9536  137.9188  181.1765 C   0  0  0  0  0  0  0  0  0  0  0  0
  147.5213  137.7803  180.9344 C   0  0  0  0  0  0  0  0  0  0  0  0
  148.7641  137.3219  180.4620 O   0  0  0  0  0  0  0  0  0  0  0  0
  153.1870  135.1687  184.9778 C   0  0  0  0  0  0  0  0  0  0  0  0
  154.3257  136.1044  185.3121 C   0  0  0  0  0  0  0  0  0  0  0  0
  154.2184  136.5959  186.6445 N   0  0  0  0  0  0  0  0  0  0  0  0
  154.6649  135.8397  187.7551 C   0  0  0  0  0  0  0  0  0  0  0  0
  155.3475  134.8185  187.6417 O   0  0  0  0  0  0  0  0  0  0  0  0
  154.2629  136.3442  189.1165 C   0  0  0  0  0  0  0  0  0  0  0  0
  154.6106  137.8009  189.1791 C   0  0  0  0  0  0  0  0  0  0  0  0
  156.0819  137.9251  188.8248 C   0  0  0  0  0  0  0  0  0  0  0  0
  156.7136  137.6345  190.1926 C   0  0  0  0  0  0  0  0  0  0  0  0
  155.9178  138.5777  191.0714 C   0  0  0  0  0  0  0  0  0  0  0  0
  154.5149  138.4001  190.5437 C   0  0  0  0  0  0  0  0  0  0  0  0
  153.7213  138.5474  188.2131 C   0  0  0  0  0  0  0  0  0  0  0  0
  153.6556  137.8724  186.8905 C   0  0  0  0  0  0  0  0  0  0  0  0
  153.0804  138.4580  185.9621 O   0  0  0  0  0  0  0  0  0  0  0  0
 13 14  1  0  0  0
 14  7  1  0  0  0
  7  8  2  0  0  0
  8  9  1  0  0  0
  9 10  2  0  0  0
 10 11  1  0  0  0
 11 12  2  0  0  0
 12  1  1  0  0  0
  1  2  1  0  0  0
  2  3  1  0  0  0
  3  4  1  0  0  0
  4 15  1  0  0  0
 15 16  1  0  0  0
 16 17  1  0  0  0
 17 18  1  0  0  0
 18 19  2  0  0  0
 18 20  1  0  0  0
 20 21  1  0  0  0
 21 22  1  0  0  0
 22 23  1  0  0  0
 23 24  1  0  0  0
 24 25  1  0  0  0
 21 26  1  0  0  0
 26 27  1  0  0  0
 27 28  2  0  0  0
  4  5  1  0  0  0
  5  6  1  0  0  0
 12  7  1  0  0  0
  6  1  1  0  0  0
 27 17  1  0  0  0
 25 21  1  0  0  0
M  END
> <minimizedAffinity>
-6.67158

> <CNNscore>
0.3622233272

> <CNNaffinity>
5.1141748428

> <CNN_VS>
1.8524733782

> <CNNaffinity_variance>
0.0839955658

$$$$
[H]c1c([H])c([H])c(N2C([H])([H])C([H])([H])N(C([H])([H])C([H])([H])N3C(=O)C([H])([H])C4(C([H])([H])C3=O)C([H])([H])C([H])([H])C([H])([H])C4([H])[H])C([H])([H])C2([H])[H])c(OC([H])([H])[H])c1[H]


 28 31  0  0  0  0  0  0  0  0999 V2000
  156.6182  141.3629  182.7685 N   0  0  0  0  0  0  0  0  0  0  0  0
  156.7617  140.0226  183.2881 C   0  0  0  0  0  0  0  0  0  0  0  0
  155.4524  139.5726  183.9458 C   0  0  0  0  0  0  0  0  0  0  0  0
  154.3771  140.0439  183.1513 N   0  0  0  0  0  0  0  0  0  0  0  0
  154.2169  141.4488  183.3090 C   0  0  0  0  0  0  0  0  0  0  0  0
  155.5187  142.1860  183.2670 C   0  0  0  0  0  0  0  0  0  0  0  0
  158.5426  142.7085  182.1851 C   0  0  0  0  0  0  0  0  0  0  0  0
  159.4153  143.2527  181.2692 C   0  0  0  0  0  0  0  0  0  0  0  0
  159.2486  142.9954  179.9082 C   0  0  0  0  0  0  0  0  0  0  0  0
  158.1974  142.1899  179.5132 C   0  0  0  0  0  0  0  0  0  0  0  0
  157.3412  141.6599  180.4536 C   0  0  0  0  0  0  0  0  0  0  0  0
  157.4834  141.8998  181.8152 C   0  0  0  0  0  0  0  0  0  0  0  0
  159.9416  142.7602  184.2092 C   0  0  0  0  0  0  0  0  0  0  0  0
  158.7282  142.9779  183.5323 O   0  0  0  0  0  0  0  0  0  0  0  0
  153.1913  139.2776  183.1199 C   0  0  0  0  0  0  0  0  0  0  0  0
  153.1789  138.1801  182.0809 C   0  0  0  0  0  0  0  0  0  0  0  0
  151.9510  138.1632  181.3595 N   0  0  0  0  0  0  0  0  0  0  0  0
  150.8880  137.2999  181.7193 C   0  0  0  0  0  0  0  0  0  0  0  0
  150.8673  136.6644  182.7764 O   0  0  0  0  0  0  0  0  0  0  0  0
  149.7538  137.1845  180.7346 C   0  0  0  0  0  0  0  0  0  0  0  0
  149.3267  138.5749  180.3727 C   0  0  0  0  0  0  0  0  0  0  0  0
  149.0177  139.2999  181.6707 C   0  0  0  0  0  0  0  0  0  0  0  0
  147.5748  138.8324  181.9032 C   0  0  0  0  0  0  0  0  0  0  0  0
  146.9678  139.1213  180.5455 C   0  0  0  0  0  0  0  0  0  0  0  0
  148.0483  138.6475  179.6041 C   0  0  0  0  0  0  0  0  0  0  0  0
  150.4443  139.2329  179.5984 C   0  0  0  0  0  0  0  0  0  0  0  0
  151.7635  139.0247  180.2508 C   0  0  0  0  0  0  0  0  0  0  0  0
  152.7427  139.6360  179.7999 O   0  0  0  0  0  0  0  0  0  0  0  0
 13 14  1  0  0  0
 14  7  1  0  0  0
  7  8  2  0  0  0
  8  9  1  0  0  0
  9 10  2  0  0  0
 10 11  1  0  0  0
 11 12  2  0  0  0
 12  1  1  0  0  0
  1  2  1  0  0  0
  2  3  1  0  0  0
  3  4  1  0  0  0
  4 15  1  0  0  0
 15 16  1  0  0  0
 16 17  1  0  0  0
 17 18  1  0  0  0
 18 19  2  0  0  0
 18 20  1  0  0  0
 20 21  1  0  0  0
 21 22  1  0  0  0
 22 23  1  0  0  0
 23 24  1  0  0  0
 24 25  1  0  0  0
 21 26  1  0  0  0
 26 27  1  0  0  0
 27 28  2  0  0  0
  4  5  1  0  0  0
  5  6  1  0  0  0
 12  7  1  0  0  0
  6  1  1  0  0  0
 27 17  1  0  0  0
 25 21  1  0  0  0
M  END
> <minimizedAffinity>
-8.12699

> <CNNscore>
0.3584107757

> <CNNaffinity>
5.9520058632

> <CNN_VS>
2.1332631111

> <CNNaffinity_variance>
0.0691641048

$$$$
[H]c1c([H])c([H])c(N2C([H])([H])C([H])([H])N(C([H])([H])C([H])([H])N3C(=O)C([H])([H])C4(C([H])([H])C3=O)C([H])([H])C([H])([H])C([H])([H])C4([H])[H])C([H])([H])C2([H])[H])c(OC([H])([H])[H])c1[H]


 28 31  0  0  0  0  0  0  0  0999 V2000
  150.4987  137.1331  182.9363 N   0  0  0  0  0  0  0  0  0  0  0  0
  150.7401  137.0546  184.3584 C   0  0  0  0  0  0  0  0  0  0  0  0
  152.2193  136.7523  184.6229 C   0  0  0  0  0  0  0  0  0  0  0  0
  152.9918  137.4883  183.6895 N   0  0  0  0  0  0  0  0  0  0  0  0
  152.8906  136.9128  182.3923 C   0  0  0  0  0  0  0  0  0  0  0  0
  151.4850  136.5464  182.0319 C   0  0  0  0  0  0  0  0  0  0  0  0
  149.4604  138.9351  181.6996 C   0  0  0  0  0  0  0  0  0  0  0  0
  148.3633  139.5619  181.1519 C   0  0  0  0  0  0  0  0  0  0  0  0
  147.0956  138.9957  181.2885 C   0  0  0  0  0  0  0  0  0  0  0  0
  146.9763  137.8047  181.9793 C   0  0  0  0  0  0  0  0  0  0  0  0
  148.0929  137.2016  182.5156 C   0  0  0  0  0  0  0  0  0  0  0  0
  149.3671  137.7433  182.3950 C   0  0  0  0  0  0  0  0  0  0  0  0
  151.2476  139.8984  180.3085 C   0  0  0  0  0  0  0  0  0  0  0  0
  150.7102  139.5164  181.5508 O   0  0  0  0  0  0  0  0  0  0  0  0
  154.2774  137.9177  184.0860 C   0  0  0  0  0  0  0  0  0  0  0  0
  154.3533  139.3656  184.5125 C   0  0  0  0  0  0  0  0  0  0  0  0
  155.4055  140.0497  183.8391 N   0  0  0  0  0  0  0  0  0  0  0  0
  155.2160  140.6363  182.5645 C   0  0  0  0  0  0  0  0  0  0  0  0
  154.1047  140.7747  182.0472 O   0  0  0  0  0  0  0  0  0  0  0  0
  156.4574  141.0967  181.8458 C   0  0  0  0  0  0  0  0  0  0  0  0
  157.2479  141.9369  182.8028 C   0  0  0  0  0  0  0  0  0  0  0  0
  156.3220  143.0284  183.3098 C   0  0  0  0  0  0  0  0  0  0  0  0
  156.4626  144.0500  182.1736 C   0  0  0  0  0  0  0  0  0  0  0  0
  157.9711  144.1318  182.0597 C   0  0  0  0  0  0  0  0  0  0  0  0
  158.3803  142.6838  182.1782 C   0  0  0  0  0  0  0  0  0  0  0  0
  157.7532  141.0487  183.9151 C   0  0  0  0  0  0  0  0  0  0  0  0
  156.6832  140.1609  184.4405 C   0  0  0  0  0  0  0  0  0  0  0  0
  156.9249  139.4884  185.4529 O   0  0  0  0  0  0  0  0  0  0  0  0
 13 14  1  0  0  0
 14  7  1  0  0  0
  7  8  2  0  0  0
  8  9  1  0  0  0
  9 10  2  0  0  0
 10 11  1  0  0  0
 11 12  2  0  0  0
 12  1  1  0  0  0
  1  2  1  0  0  0
  2  3  1  0  0  0
  3  4  1  0  0  0
  4 15  1  0  0  0
 15 16  1  0  0  0
 16 17  1  0  0  0
 17 18  1  0  0  0
 18 19  2  0  0  0
 18 20  1  0  0  0
 20 21  1  0  0  0
 21 22  1  0  0  0
 22 23  1  0  0  0
 23 24  1  0  0  0
 24 25  1  0  0  0
 21 26  1  0  0  0
 26 27  1  0  0  0
 27 28  2  0  0  0
  4  5  1  0  0  0
  5  6  1  0  0  0
 12  7  1  0  0  0
  6  1  1  0  0  0
 27 17  1  0  0  0
 25 21  1  0  0  0
M  END
> <minimizedAffinity>
-6.49514

> <CNNscore>
0.3246460557

> <CNNaffinity>
5.8441162109

> <CNN_VS>
1.8972692490

> <CNNaffinity_variance>
0.0410398170

$$$$
[H]c1c([H])c([H])c(N2C([H])([H])C([H])([H])N(C([H])([H])C([H])([H])N3C(=O)C([H])([H])C4(C([H])([H])C3=O)C([H])([H])C([H])([H])C([H])([H])C4([H])[H])C([H])([H])C2([H])[H])c(OC([H])([H])[H])c1[H]


 28 31  0  0  0  0  0  0  0  0999 V2000
  150.8171  136.9081  182.0050 N   0  0  0  0  0  0  0  0  0  0  0  0
  150.6748  137.4718  183.3275 C   0  0  0  0  0  0  0  0  0  0  0  0
  151.9680  137.2701  184.1250 C   0  0  0  0  0  0  0  0  0  0  0  0
  153.0621  137.4780  183.2477 N   0  0  0  0  0  0  0  0  0  0  0  0
  153.1983  136.3826  182.3499 C   0  0  0  0  0  0  0  0  0  0  0  0
  151.8889  135.9423  181.7743 C   0  0  0  0  0  0  0  0  0  0  0  0
  150.1348  138.4369  180.2580 C   0  0  0  0  0  0  0  0  0  0  0  0
  149.3227  138.8003  179.2068 C   0  0  0  0  0  0  0  0  0  0  0  0
  148.2912  137.9551  178.7973 C   0  0  0  0  0  0  0  0  0  0  0  0
  148.1120  136.7602  179.4682 C   0  0  0  0  0  0  0  0  0  0  0  0
  148.9411  136.4246  180.5161 C   0  0  0  0  0  0  0  0  0  0  0  0
  149.9759  137.2472  180.9451 C   0  0  0  0  0  0  0  0  0  0  0  0
  152.2967  139.5465  179.8677 C   0  0  0  0  0  0  0  0  0  0  0  0
  151.1537  139.2928  180.6470 O   0  0  0  0  0  0  0  0  0  0  0  0
  154.2583  137.9949  183.7916 C   0  0  0  0  0  0  0  0  0  0  0  0
  154.1057  139.3214  184.4997 C   0  0  0  0  0  0  0  0  0  0  0  0
  155.0262  140.2855  183.9980 N   0  0  0  0  0  0  0  0  0  0  0  0
  156.3404  140.3982  184.5127 C   0  0  0  0  0  0  0  0  0  0  0  0
  156.8401  139.5606  185.2679 O   0  0  0  0  0  0  0  0  0  0  0  0
  157.1249  141.6132  184.0911 C   0  0  0  0  0  0  0  0  0  0  0  0
  157.0338  141.7140  182.5984 C   0  0  0  0  0  0  0  0  0  0  0  0
  157.4989  140.3845  182.0311 C   0  0  0  0  0  0  0  0  0  0  0  0
  159.0171  140.6077  182.0325 C   0  0  0  0  0  0  0  0  0  0  0  0
  159.0995  141.9559  181.3466 C   0  0  0  0  0  0  0  0  0  0  0  0
  157.9625  142.7124  181.9894 C   0  0  0  0  0  0  0  0  0  0  0  0
  155.6044  142.0296  182.2261 C   0  0  0  0  0  0  0  0  0  0  0  0
  154.6410  141.1644  182.9561 C   0  0  0  0  0  0  0  0  0  0  0  0
  153.4456  141.2179  182.6341 O   0  0  0  0  0  0  0  0  0  0  0  0
 13 14  1  0  0  0
 14  7  1  0  0  0
  7  8  2  0  0  0
  8  9  1  0  0  0
  9 10  2  0  0  0
 10 11  1  0  0  0
 11 12  2  0  0  0
 12  1  1  0  0  0
  1  2  1  0  0  0
  2  3  1  0  0  0
  3  4  1  0  0  0
  4 15  1  0  0  0
 15 16  1  0  0  0
 16 17  1  0  0  0
 17 18  1  0  0  0
 18 19  2  0  0  0
 18 20  1  0  0  0
 20 21  1  0  0  0
 21 22  1  0  0  0
 22 23  1  0  0  0
 23 24  1  0  0  0
 24 25  1  0  0  0
 21 26  1  0  0  0
 26 27  1  0  0  0
 27 28  2  0  0  0
  4  5  1  0  0  0
  5  6  1  0  0  0
 12  7  1  0  0  0
  6  1  1  0  0  0
 27 17  1  0  0  0
 25 21  1  0  0  0
M  END
> <minimizedAffinity>
-6.64957

> <CNNscore>
0.3128832281

> <CNNaffinity>
5.7220077515

> <CNN_VS>
1.7903202772

> <CNNaffinity_variance>
0.0645331889

$$$$
[H]c1c([H])c([H])c(N2C([H])([H])C([H])([H])N(C([H])([H])C([H])([H])N3C(=O)C([H])([H])C4(C([H])([H])C3=O)C([H])([H])C([H])([H])C([H])([H])C4([H])[H])C([H])([H])C2([H])[H])c(OC([H])([H])[H])c1[H]


 28 31  0  0  0  0  0  0  0  0999 V2000
  151.3811  137.0708  182.2746 N   0  0  0  0  0  0  0  0  0  0  0  0
  150.7837  137.1268  183.5887 C   0  0  0  0  0  0  0  0  0  0  0  0
  151.4894  136.1420  184.5275 C   0  0  0  0  0  0  0  0  0  0  0  0
  152.8779  136.1838  184.2448 N   0  0  0  0  0  0  0  0  0  0  0  0
  153.1571  135.5318  183.0114 C   0  0  0  0  0  0  0  0  0  0  0  0
  152.1917  135.9050  181.9303 C   0  0  0  0  0  0  0  0  0  0  0  0
  152.0149  139.2084  181.3347 C   0  0  0  0  0  0  0  0  0  0  0  0
  151.8779  140.2216  180.4120 C   0  0  0  0  0  0  0  0  0  0  0  0
  150.9025  140.1334  179.4185 C   0  0  0  0  0  0  0  0  0  0  0  0
  150.0906  139.0155  179.3888 C   0  0  0  0  0  0  0  0  0  0  0  0
  150.2524  138.0184  180.3258 C   0  0  0  0  0  0  0  0  0  0  0  0
  151.2152  138.0801  181.3262 C   0  0  0  0  0  0  0  0  0  0  0  0
  153.7737  140.4707  182.5054 C   0  0  0  0  0  0  0  0  0  0  0  0
  152.9915  139.3179  182.3127 O   0  0  0  0  0  0  0  0  0  0  0  0
  153.7775  135.9326  185.3040 C   0  0  0  0  0  0  0  0  0  0  0  0
  153.2579  134.9827  186.3585 C   0  0  0  0  0  0  0  0  0  0  0  0
  153.4931  135.4856  187.6701 N   0  0  0  0  0  0  0  0  0  0  0  0
  154.7225  135.2730  188.3395 C   0  0  0  0  0  0  0  0  0  0  0  0
  155.7258  134.8281  187.7764 O   0  0  0  0  0  0  0  0  0  0  0  0
  154.7580  135.6201  189.8050 C   0  0  0  0  0  0  0  0  0  0  0  0
  154.2027  137.0043  189.9549 C   0  0  0  0  0  0  0  0  0  0  0  0
  154.9999  137.9084  189.0314 C   0  0  0  0  0  0  0  0  0  0  0  0
  156.2080  138.2108  189.9277 C   0  0  0  0  0  0  0  0  0  0  0  0
  155.5079  138.6240  191.2061 C   0  0  0  0  0  0  0  0  0  0  0  0
  154.3992  137.6049  191.3080 C   0  0  0  0  0  0  0  0  0  0  0  0
  152.7345  136.9720  189.6016 C   0  0  0  0  0  0  0  0  0  0  0  0
  152.4871  136.2224  188.3422 C   0  0  0  0  0  0  0  0  0  0  0  0
  151.3453  136.2462  187.8613 O   0  0  0  0  0  0  0  0  0  0  0  0
 13 14  1  0  0  0
 14  7  1  0  0  0
  7  8  2  0  0  0
  8  9  1  0  0  0
  9 10  2  0  0  0
 10 11  1  0  0  0
 11 12  2  0  0  0
 12  1  1  0  0  0
  1  2  1  0  0  0
  2  3  1  0  0  0
  3  4  1  0  0  0
  4 15  1  0  0  0
 15 16  1  0  0  0
 16 17  1  0  0  0
 17 18  1  0  0  0
 18 19  2  0  0  0
 18 20  1  0  0  0
 20 21  1  0  0  0
 21 22  1  0  0  0
 22 23  1  0  0  0
 23 24  1  0  0  0
 24 25  1  0  0  0
 21 26  1  0  0  0
 26 27  1  0  0  0
 27 28  2  0  0  0
  4  5  1  0  0  0
  5  6  1  0  0  0
 12  7  1  0  0  0
  6  1  1  0  0  0
 27 17  1  0  0  0
 25 21  1  0  0  0
M  END
> <minimizedAffinity>
-6.41688

> <CNNscore>
0.2858410776

> <CNNaffinity>
5.1387972832

> <CNN_VS>
1.4688793421

> <CNNaffinity_variance>
0.0376303717

$$$$
[H]c1c([H])c([H])c(N2C([H])([H])C([H])([H])N(C([H])([H])C([H])([H])N3C(=O)C([H])([H])C4(C([H])([H])C3=O)C([H])([H])C([H])([H])C([H])([H])C4([H])[H])C([H])([H])C2([H])[H])c(OC([H])([H])[H])c1[H]


 28 31  0  0  0  0  0  0  0  0999 V2000
  157.4152  141.4927  183.8905 N   0  0  0  0  0  0  0  0  0  0  0  0
  156.1723  142.2256  183.8203 C   0  0  0  0  0  0  0  0  0  0  0  0
  155.0240  141.2764  183.4601 C   0  0  0  0  0  0  0  0  0  0  0  0
  155.2297  140.0559  184.1514 N   0  0  0  0  0  0  0  0  0  0  0  0
  156.2979  139.3223  183.5639 C   0  0  0  0  0  0  0  0  0  0  0  0
  157.4837  140.1804  183.2517 C   0  0  0  0  0  0  0  0  0  0  0  0
  159.4654  142.7775  183.8754 C   0  0  0  0  0  0  0  0  0  0  0  0
  160.5913  143.2810  184.4881 C   0  0  0  0  0  0  0  0  0  0  0  0
  160.8409  142.9975  185.8310 C   0  0  0  0  0  0  0  0  0  0  0  0
  159.9376  142.2083  186.5174 C   0  0  0  0  0  0  0  0  0  0  0  0
  158.8201  141.7195  185.8766 C   0  0  0  0  0  0  0  0  0  0  0  0
  158.5468  141.9857  184.5402 C   0  0  0  0  0  0  0  0  0  0  0  0
  158.8415  144.3415  182.0805 C   0  0  0  0  0  0  0  0  0  0  0  0
  159.2382  143.0729  182.5400 O   0  0  0  0  0  0  0  0  0  0  0  0
  154.0923  139.3104  184.5319 C   0  0  0  0  0  0  0  0  0  0  0  0
  154.4001  137.9986  185.2164 C   0  0  0  0  0  0  0  0  0  0  0  0
  154.5222  138.1656  186.6255 N   0  0  0  0  0  0  0  0  0  0  0  0
  153.3944  138.4052  187.4473 C   0  0  0  0  0  0  0  0  0  0  0  0
  152.2339  138.2862  187.0465 O   0  0  0  0  0  0  0  0  0  0  0  0
  153.6746  138.8227  188.8673 C   0  0  0  0  0  0  0  0  0  0  0  0
  154.6608  137.8488  189.4381 C   0  0  0  0  0  0  0  0  0  0  0  0
  154.0778  136.4595  189.2495 C   0  0  0  0  0  0  0  0  0  0  0  0
  153.1668  136.3803  190.4817 C   0  0  0  0  0  0  0  0  0  0  0  0
  154.1316  136.8105  191.5676 C   0  0  0  0  0  0  0  0  0  0  0  0
  154.8563  137.9622  190.9143 C   0  0  0  0  0  0  0  0  0  0  0  0
  155.9771  138.0228  188.7181 C   0  0  0  0  0  0  0  0  0  0  0  0
  155.7942  138.0923  187.2447 C   0  0  0  0  0  0  0  0  0  0  0  0
  156.8052  138.0853  186.5281 O   0  0  0  0  0  0  0  0  0  0  0  0
 13 14  1  0  0  0
 14  7  1  0  0  0
  7  8  2  0  0  0
  8  9  1  0  0  0
  9 10  2  0  0  0
 10 11  1  0  0  0
 11 12  2  0  0  0
 12  1  1  0  0  0
  1  2  1  0  0  0
  2  3  1  0  0  0
  3  4  1  0  0  0
  4 15  1  0  0  0
 15 16  1  0  0  0
 16 17  1  0  0  0
 17 18  1  0  0  0
 18 19  2  0  0  0
 18 20  1  0  0  0
 20 21  1  0  0  0
 21 22  1  0  0  0
 22 23  1  0  0  0
 23 24  1  0  0  0
 24 25  1  0  0  0
 21 26  1  0  0  0
 26 27  1  0  0  0
 27 28  2  0  0  0
  4  5  1  0  0  0
  5  6  1  0  0  0
 12  7  1  0  0  0
  6  1  1  0  0  0
 27 17  1  0  0  0
 25 21  1  0  0  0
M  END
> <minimizedAffinity>
-7.95806

> <CNNscore>
0.2780109942

> <CNNaffinity>
6.0293135643

> <CNN_VS>
1.6762154102

> <CNNaffinity_variance>
0.0571065843

$$$$
[H]c1nc2c([H])c([H])c([H])c([H])n2c1C#Cc1c([H])c(C(=O)N([H])c2c([H])c([H])c(C([H])([H])N3C([H])([H])C([H])([H])N(C([H])([H])[H])C([H])([H])C3([H])[H])c(C(F)(F)F)c2[H])c([H])c([H])c1C([H])([H])[H]


 40 44  0  0  0  0  0  0  0  0999 V2000
  152.8718  137.8488  186.8652 N   0  0  0  0  0  0  0  0  0  0  0  0
  152.7942  137.1821  185.6477 C   0  0  0  0  0  0  0  0  0  0  0  0
  152.8015  135.9366  185.5825 O   0  0  0  0  0  0  0  0  0  0  0  0
  152.8531  138.9203  186.8068 H   0  0  0  0  0  0  0  0  0  0  0  0
  152.6983  137.8773  184.3629 C   0  0  0  0  0  0  0  0  0  0  0  0
  151.7759  137.5259  183.4049 C   0  0  0  0  0  0  0  0  0  0  0  0
  151.6646  138.1636  182.1704 C   0  0  0  0  0  0  0  0  0  0  0  0
  152.5377  139.2002  181.9194 C   0  0  0  0  0  0  0  0  0  0  0  0
  152.5060  139.9530  180.6283 C   0  0  0  0  0  0  0  0  0  0  0  0
  153.4875  139.5938  182.8540 C   0  0  0  0  0  0  0  0  0  0  0  0
  153.5432  138.9219  184.0517 C   0  0  0  0  0  0  0  0  0  0  0  0
  154.4012  140.6766  182.5949 C   0  0  0  0  0  0  0  0  0  0  0  0
  155.1807  141.5812  182.3868 C   0  0  0  0  0  0  0  0  0  0  0  0
  156.1276  142.6491  182.1531 C   0  0  0  0  0  0  0  0  0  0  0  0
  156.0857  143.8635  182.7744 C   0  0  0  0  0  0  0  0  0  0  0  0
  157.1203  144.5665  182.2942 N   0  0  0  0  0  0  0  0  0  0  0  0
  157.7948  143.8269  181.4011 C   0  0  0  0  0  0  0  0  0  0  0  0
  158.9133  144.0399  180.6173 C   0  0  0  0  0  0  0  0  0  0  0  0
  159.4132  143.1016  179.7664 C   0  0  0  0  0  0  0  0  0  0  0  0
  158.7666  141.8911  179.6931 C   0  0  0  0  0  0  0  0  0  0  0  0
  157.6581  141.6797  180.4699 C   0  0  0  0  0  0  0  0  0  0  0  0
  157.1777  142.6405  181.3160 N   0  0  0  0  0  0  0  0  0  0  0  0
  153.2880  136.3580  190.8537 C   0  0  0  0  0  0  0  0  0  0  0  0
  152.3511  135.8328  189.9883 C   0  0  0  0  0  0  0  0  0  0  0  0
  152.1964  136.2985  188.6724 C   0  0  0  0  0  0  0  0  0  0  0  0
  152.9724  137.3086  188.1717 C   0  0  0  0  0  0  0  0  0  0  0  0
  153.9103  137.8262  189.0572 C   0  0  0  0  0  0  0  0  0  0  0  0
  154.0727  137.3759  190.3556 C   0  0  0  0  0  0  0  0  0  0  0  0
  155.1002  138.0112  191.2135 C   0  0  0  0  0  0  0  0  0  0  0  0
  155.9294  137.1611  191.8675 F   0  0  0  0  0  0  0  0  0  0  0  0
  154.5581  139.0094  192.0385 F   0  0  0  0  0  0  0  0  0  0  0  0
  155.9610  138.7605  190.3756 F   0  0  0  0  0  0  0  0  0  0  0  0
  153.4750  135.9150  192.2313 C   0  0  0  0  0  0  0  0  0  0  0  0
  150.0686  133.7159  192.1081 C   0  0  0  0  0  0  0  0  0  0  0  0
  150.4644  134.4788  193.2540 N   0  0  0  0  0  0  0  0  0  0  0  0
  150.1689  135.8671  193.2108 C   0  0  0  0  0  0  0  0  0  0  0  0
  151.2740  136.7568  192.7206 C   0  0  0  0  0  0  0  0  0  0  0  0
  152.5731  136.4360  193.2171 N   0  0  0  0  0  0  0  0  0  0  0  0
  152.4229  135.4287  194.2493 C   0  0  0  0  0  0  0  0  0  0  0  0
  151.7610  134.1815  193.7650 C   0  0  0  0  0  0  0  0  0  0  0  0
 34 35  1  0  0  0
 35 36  1  0  0  0
 36 37  1  0  0  0
 37 38  1  0  0  0
 38 33  1  0  0  0
 33 23  1  0  0  0
 23 24  2  0  0  0
 24 25  1  0  0  0
 25 26  2  0  0  0
 26  1  1  0  0  0
  1  2  1  0  0  0
  2  3  2  0  0  0
  2  5  1  0  0  0
  5  6  2  0  0  0
  6  7  1  0  0  0
  7  8  2  0  0  0
  8  9  1  0  0  0
  8 10  1  0  0  0
 10 11  2  0  0  0
 10 12  1  0  0  0
 12 13  3  0  0  0
 13 14  1  0  0  0
 14 15  2  0  0  0
 15 16  1  0  0  0
 16 17  2  0  0  0
 17 18  1  0  0  0
 18 19  2  0  0  0
 19 20  1  0  0  0
 20 21  2  0  0  0
 21 22  1  0  0  0
 26 27  1  0  0  0
 27 28  2  0  0  0
 28 29  1  0  0  0
 29 30  1  0  0  0
 29 31  1  0  0  0
 29 32  1  0  0  0
 38 39  1  0  0  0
 39 40  1  0  0  0
 40 35  1  0  0  0
 28 23  1  0  0  0
 11  5  1  0  0  0
 22 14  1  0  0  0
 22 17  1  0  0  0
  1  4  1  0  0  0
M  END
> <minimizedAffinity>
-10.14095

> <CNNscore>
0.4136961997

> <CNNaffinity>
6.3871355057

> <CNN_VS>
2.6423337460

> <CNNaffinity_variance>
0.0836499855

$$$$
[H]c1nc2c([H])c([H])c([H])c([H])n2c1C#Cc1c([H])c(C(=O)N([H])c2c([H])c([H])c(C([H])([H])N3C([H])([H])C([H])([H])N(C([H])([H])[H])C([H])([H])C3([H])[H])c(C(F)(F)F)c2[H])c([H])c([H])c1C([H])([H])[H]


 40 44  0  0  0  0  0  0  0  0999 V2000
  152.0478  137.4377  186.6780 N   0  0  0  0  0  0  0  0  0  0  0  0
  152.4572  136.8844  185.4701 C   0  0  0  0  0  0  0  0  0  0  0  0
  152.8980  135.7197  185.4004 O   0  0  0  0  0  0  0  0  0  0  0  0
  151.6813  138.4450  186.6236 H   0  0  0  0  0  0  0  0  0  0  0  0
  152.4043  137.6124  184.2012 C   0  0  0  0  0  0  0  0  0  0  0  0
  151.4999  137.3006  183.2128 C   0  0  0  0  0  0  0  0  0  0  0  0
  151.4294  137.9702  181.9922 C   0  0  0  0  0  0  0  0  0  0  0  0
  152.3255  138.9975  181.7883 C   0  0  0  0  0  0  0  0  0  0  0  0
  152.3378  139.7822  180.5160 C   0  0  0  0  0  0  0  0  0  0  0  0
  153.2586  139.3515  182.7550 C   0  0  0  0  0  0  0  0  0  0  0  0
  153.2738  138.6496  183.9365 C   0  0  0  0  0  0  0  0  0  0  0  0
  154.1963  140.4245  182.5449 C   0  0  0  0  0  0  0  0  0  0  0  0
  154.9759  141.3372  182.3767 C   0  0  0  0  0  0  0  0  0  0  0  0
  155.8919  142.4408  182.1906 C   0  0  0  0  0  0  0  0  0  0  0  0
  155.7612  143.6586  182.7925 C   0  0  0  0  0  0  0  0  0  0  0  0
  156.7953  144.3987  182.3706 N   0  0  0  0  0  0  0  0  0  0  0  0
  157.5551  143.6786  181.5318 C   0  0  0  0  0  0  0  0  0  0  0  0
  158.7122  143.9296  180.8185 C   0  0  0  0  0  0  0  0  0  0  0  0
  159.3034  143.0042  180.0132 C   0  0  0  0  0  0  0  0  0  0  0  0
  158.7122  141.7674  179.9139 C   0  0  0  0  0  0  0  0  0  0  0  0
  157.5655  141.5184  180.6209 C   0  0  0  0  0  0  0  0  0  0  0  0
  156.9932  142.4670  181.4224 N   0  0  0  0  0  0  0  0  0  0  0  0
  152.1642  135.8130  190.6340 C   0  0  0  0  0  0  0  0  0  0  0  0
  151.2592  135.3549  189.6994 C   0  0  0  0  0  0  0  0  0  0  0  0
  151.2023  135.8656  188.3924 C   0  0  0  0  0  0  0  0  0  0  0  0
  152.0481  136.8553  187.9701 C   0  0  0  0  0  0  0  0  0  0  0  0
  152.9527  137.3052  188.9246 C   0  0  0  0  0  0  0  0  0  0  0  0
  153.0189  136.8101  190.2152 C   0  0  0  0  0  0  0  0  0  0  0  0
  154.0193  137.3744  191.1511 C   0  0  0  0  0  0  0  0  0  0  0  0
  153.5178  137.9678  192.2621 F   0  0  0  0  0  0  0  0  0  0  0  0
  154.9848  138.1501  190.4900 F   0  0  0  0  0  0  0  0  0  0  0  0
  154.7980  136.3027  191.6508 F   0  0  0  0  0  0  0  0  0  0  0  0
  152.2506  135.3218  192.0052 C   0  0  0  0  0  0  0  0  0  0  0  0
  151.6561  132.3874  194.7422 C   0  0  0  0  0  0  0  0  0  0  0  0
  151.3266  133.7601  194.9852 N   0  0  0  0  0  0  0  0  0  0  0  0
  150.0895  134.2081  194.4508 C   0  0  0  0  0  0  0  0  0  0  0  0
  150.1582  134.8668  193.1038 C   0  0  0  0  0  0  0  0  0  0  0  0
  151.2488  135.7704  192.9282 N   0  0  0  0  0  0  0  0  0  0  0  0
  151.8904  135.9552  194.2153 C   0  0  0  0  0  0  0  0  0  0  0  0
  152.3978  134.6834  194.8099 C   0  0  0  0  0  0  0  0  0  0  0  0
 34 35  1  0  0  0
 35 36  1  0  0  0
 36 37  1  0  0  0
 37 38  1  0  0  0
 38 33  1  0  0  0
 33 23  1  0  0  0
 23 24  2  0  0  0
 24 25  1  0  0  0
 25 26  2  0  0  0
 26  1  1  0  0  0
  1  2  1  0  0  0
  2  3  2  0  0  0
  2  5  1  0  0  0
  5  6  2  0  0  0
  6  7  1  0  0  0
  7  8  2  0  0  0
  8  9  1  0  0  0
  8 10  1  0  0  0
 10 11  2  0  0  0
 10 12  1  0  0  0
 12 13  3  0  0  0
 13 14  1  0  0  0
 14 15  2  0  0  0
 15 16  1  0  0  0
 16 17  2  0  0  0
 17 18  1  0  0  0
 18 19  2  0  0  0
 19 20  1  0  0  0
 20 21  2  0  0  0
 21 22  1  0  0  0
 26 27  1  0  0  0
 27 28  2  0  0  0
 28 29  1  0  0  0
 29 30  1  0  0  0
 29 31  1  0  0  0
 29 32  1  0  0  0
 38 39  1  0  0  0
 39 40  1  0  0  0
 40 35  1  0  0  0
 28 23  1  0  0  0
 11  5  1  0  0  0
 22 14  1  0  0  0
 22 17  1  0  0  0
  1  4  1  0  0  0
M  END
> <minimizedAffinity>
-9.33120

> <CNNscore>
0.3464552462

> <CNNaffinity>
6.2035570145

> <CNN_VS>
2.1492547989

> <CNNaffinity_variance>
0.2216019183

$$$$
[H]c1nc2c([H])c([H])c([H])c([H])n2c1C#Cc1c([H])c(C(=O)N([H])c2c([H])c([H])c(C([H])([H])N3C([H])([H])C([H])([H])N(C([H])([H])[H])C([H])([H])C3([H])[H])c(C(F)(F)F)c2[H])c([H])c([H])c1C([H])([H])[H]


 40 44  0  0  0  0  0  0  0  0999 V2000
  153.1907  136.4205  188.9684 N   0  0  0  0  0  0  0  0  0  0  0  0
  154.3495  136.6912  188.2495 C   0  0  0  0  0  0  0  0  0  0  0  0
  155.4686  136.3079  188.6446 O   0  0  0  0  0  0  0  0  0  0  0  0
  152.2817  136.7927  188.5359 H   0  0  0  0  0  0  0  0  0  0  0  0
  154.3501  137.4362  186.9894 C   0  0  0  0  0  0  0  0  0  0  0  0
  153.2589  137.4642  186.1524 C   0  0  0  0  0  0  0  0  0  0  0  0
  153.2313  138.1582  184.9437 C   0  0  0  0  0  0  0  0  0  0  0  0
  154.3719  138.8465  184.5899 C   0  0  0  0  0  0  0  0  0  0  0  0
  154.4514  139.6242  183.3157 C   0  0  0  0  0  0  0  0  0  0  0  0
  155.5004  138.8498  185.4005 C   0  0  0  0  0  0  0  0  0  0  0  0
  155.4602  138.1444  186.5794 C   0  0  0  0  0  0  0  0  0  0  0  0
  156.6937  139.5682  185.0338 C   0  0  0  0  0  0  0  0  0  0  0  0
  157.7042  140.1591  184.7193 C   0  0  0  0  0  0  0  0  0  0  0  0
  158.9187  140.8432  184.3337 C   0  0  0  0  0  0  0  0  0  0  0  0
  159.4813  140.7703  183.0925 C   0  0  0  0  0  0  0  0  0  0  0  0
  160.5818  141.5334  183.1340 N   0  0  0  0  0  0  0  0  0  0  0  0
  160.7141  142.0713  184.3557 C   0  0  0  0  0  0  0  0  0  0  0  0
  161.6366  142.9147  184.9460 C   0  0  0  0  0  0  0  0  0  0  0  0
  161.5441  143.3266  186.2406 C   0  0  0  0  0  0  0  0  0  0  0  0
  160.4795  142.8758  186.9838 C   0  0  0  0  0  0  0  0  0  0  0  0
  159.5651  142.0399  186.3990 C   0  0  0  0  0  0  0  0  0  0  0  0
  159.6830  141.6420  185.0961 N   0  0  0  0  0  0  0  0  0  0  0  0
  152.6374  134.4449  192.7226 C   0  0  0  0  0  0  0  0  0  0  0  0
  153.2740  133.8180  191.6719 C   0  0  0  0  0  0  0  0  0  0  0  0
  153.4744  134.4441  190.4308 C   0  0  0  0  0  0  0  0  0  0  0  0
  153.0448  135.7215  190.1927 C   0  0  0  0  0  0  0  0  0  0  0  0
  152.4052  136.3376  191.2618 C   0  0  0  0  0  0  0  0  0  0  0  0
  152.2019  135.7317  192.4893 C   0  0  0  0  0  0  0  0  0  0  0  0
  151.4973  136.4835  193.5540 C   0  0  0  0  0  0  0  0  0  0  0  0
  152.1018  136.4924  194.7675 F   0  0  0  0  0  0  0  0  0  0  0  0
  150.1312  136.1655  193.6118 F   0  0  0  0  0  0  0  0  0  0  0  0
  151.4640  137.8465  193.1724 F   0  0  0  0  0  0  0  0  0  0  0  0
  152.3958  133.8295  194.0234 C   0  0  0  0  0  0  0  0  0  0  0  0
  152.7027  130.1528  192.3373 C   0  0  0  0  0  0  0  0  0  0  0  0
  151.7441  130.4680  193.3541 N   0  0  0  0  0  0  0  0  0  0  0  0
  150.5643  131.1257  192.9159 C   0  0  0  0  0  0  0  0  0  0  0  0
  150.5769  132.6238  193.0085 C   0  0  0  0  0  0  0  0  0  0  0  0
  151.1462  133.1501  194.2068 N   0  0  0  0  0  0  0  0  0  0  0  0
  151.3778  132.0452  195.1167 C   0  0  0  0  0  0  0  0  0  0  0  0
  152.2875  131.0016  194.5585 C   0  0  0  0  0  0  0  0  0  0  0  0
 34 35  1  0  0  0
 35 36  1  0  0  0
 36 37  1  0  0  0
 37 38  1  0  0  0
 38 33  1  0  0  0
 33 23  1  0  0  0
 23 24  2  0  0  0
 24 25  1  0  0  0
 25 26  2  0  0  0
 26  1  1  0  0  0
  1  2  1  0  0  0
  2  3  2  0  0  0
  2  5  1  0  0  0
  5  6  2  0  0  0
  6  7  1  0  0  0
  7  8  2  0  0  0
  8  9  1  0  0  0
  8 10  1  0  0  0
 10 11  2  0  0  0
 10 12  1  0  0  0
 12 13  3  0  0  0
 13 14  1  0  0  0
 14 15  2  0  0  0
 15 16  1  0  0  0
 16 17  2  0  0  0
 17 18  1  0  0  0
 18 19  2  0  0  0
 19 20  1  0  0  0
 20 21  2  0  0  0
 21 22  1  0  0  0
 26 27  1  0  0  0
 27 28  2  0  0  0
 28 29  1  0  0  0
 29 30  1  0  0  0
 29 31  1  0  0  0
 29 32  1  0  0  0
 38 39  1  0  0  0
 39 40  1  0  0  0
 40 35  1  0  0  0
 28 23  1  0  0  0
 11  5  1  0  0  0
 22 14  1  0  0  0
 22 17  1  0  0  0
  1  4  1  0  0  0
M  END
> <minimizedAffinity>
-9.32130

> <CNNscore>
0.3316152990

> <CNNaffinity>
6.2777113914

> <CNN_VS>
2.0817852020

> <CNNaffinity_variance>
0.0247204360

$$$$
[H]c1nc2c([H])c([H])c([H])c([H])n2c1C#Cc1c([H])c(C(=O)N([H])c2c([H])c([H])c(C([H])([H])N3C([H])([H])C([H])([H])N(C([H])([H])[H])C([H])([H])C3([H])[H])c(C(F)(F)F)c2[H])c([H])c([H])c1C([H])([H])[H]


 40 44  0  0  0  0  0  0  0  0999 V2000
  153.1037  138.0111  184.9654 N   0  0  0  0  0  0  0  0  0  0  0  0
  152.3648  137.8226  186.1279 C   0  0  0  0  0  0  0  0  0  0  0  0
  152.6313  138.4387  187.1791 O   0  0  0  0  0  0  0  0  0  0  0  0
  152.7861  137.4341  184.1180 H   0  0  0  0  0  0  0  0  0  0  0  0
  151.2309  136.9005  186.2110 C   0  0  0  0  0  0  0  0  0  0  0  0
  150.4845  136.5532  185.1091 C   0  0  0  0  0  0  0  0  0  0  0  0
  149.3959  135.6838  185.1574 C   0  0  0  0  0  0  0  0  0  0  0  0
  149.0693  135.1562  186.3881 C   0  0  0  0  0  0  0  0  0  0  0  0
  147.9209  134.2136  186.5541 C   0  0  0  0  0  0  0  0  0  0  0  0
  149.7916  135.4753  187.5314 C   0  0  0  0  0  0  0  0  0  0  0  0
  150.8539  136.3394  187.4131 C   0  0  0  0  0  0  0  0  0  0  0  0
  149.4530  134.9255  188.8188 C   0  0  0  0  0  0  0  0  0  0  0  0
  149.1688  134.4481  189.8961 C   0  0  0  0  0  0  0  0  0  0  0  0
  148.8327  133.8556  191.1719 C   0  0  0  0  0  0  0  0  0  0  0  0
  149.2513  134.3380  192.3779 C   0  0  0  0  0  0  0  0  0  0  0  0
  148.7357  133.5226  193.3076 N   0  0  0  0  0  0  0  0  0  0  0  0
  148.0161  132.5580  192.7151 C   0  0  0  0  0  0  0  0  0  0  0  0
  147.2834  131.4789  193.1729 C   0  0  0  0  0  0  0  0  0  0  0  0
  146.6252  130.6228  192.3434 C   0  0  0  0  0  0  0  0  0  0  0  0
  146.7007  130.8535  190.9906 C   0  0  0  0  0  0  0  0  0  0  0  0
  147.4266  131.9230  190.5367 C   0  0  0  0  0  0  0  0  0  0  0  0
  148.0781  132.7668  191.3929 N   0  0  0  0  0  0  0  0  0  0  0  0
  156.3500  140.7017  184.2407 C   0  0  0  0  0  0  0  0  0  0  0  0
  156.5384  139.5245  184.9343 C   0  0  0  0  0  0  0  0  0  0  0  0
  155.4927  138.6203  185.1818 C   0  0  0  0  0  0  0  0  0  0  0  0
  154.2177  138.8594  184.7457 C   0  0  0  0  0  0  0  0  0  0  0  0
  154.0460  140.0499  184.0493 C   0  0  0  0  0  0  0  0  0  0  0  0
  155.0679  140.9487  183.7988 C   0  0  0  0  0  0  0  0  0  0  0  0
  154.7644  142.1928  183.0535 C   0  0  0  0  0  0  0  0  0  0  0  0
  155.4865  142.3938  181.9238 F   0  0  0  0  0  0  0  0  0  0  0  0
  154.7168  143.3159  183.8944 F   0  0  0  0  0  0  0  0  0  0  0  0
  153.4256  142.1104  182.6002 F   0  0  0  0  0  0  0  0  0  0  0  0
  157.4027  141.6758  183.9719 C   0  0  0  0  0  0  0  0  0  0  0  0
  158.6316  144.6802  181.5393 C   0  0  0  0  0  0  0  0  0  0  0  0
  159.4915  143.6141  181.9589 N   0  0  0  0  0  0  0  0  0  0  0  0
  159.3739  142.3975  181.2360 C   0  0  0  0  0  0  0  0  0  0  0  0
  158.4547  141.3696  181.8291 C   0  0  0  0  0  0  0  0  0  0  0  0
  158.5511  141.2182  183.2450 N   0  0  0  0  0  0  0  0  0  0  0  0
  159.6931  141.9861  183.7018 C   0  0  0  0  0  0  0  0  0  0  0  0
  159.5993  143.4382  183.3689 C   0  0  0  0  0  0  0  0  0  0  0  0
 34 35  1  0  0  0
 35 36  1  0  0  0
 36 37  1  0  0  0
 37 38  1  0  0  0
 38 33  1  0  0  0
 33 23  1  0  0  0
 23 24  2  0  0  0
 24 25  1  0  0  0
 25 26  2  0  0  0
 26  1  1  0  0  0
  1  2  1  0  0  0
  2  3  2  0  0  0
  2  5  1  0  0  0
  5  6  2  0  0  0
  6  7  1  0  0  0
  7  8  2  0  0  0
  8  9  1  0  0  0
  8 10  1  0  0  0
 10 11  2  0  0  0
 10 12  1  0  0  0
 12 13  3  0  0  0
 13 14  1  0  0  0
 14 15  2  0  0  0
 15 16  1  0  0  0
 16 17  2  0  0  0
 17 18  1  0  0  0
 18 19  2  0  0  0
 19 20  1  0  0  0
 20 21  2  0  0  0
 21 22  1  0  0  0
 26 27  1  0  0  0
 27 28  2  0  0  0
 28 29  1  0  0  0
 29 30  1  0  0  0
 29 31  1  0  0  0
 29 32  1  0  0  0
 38 39  1  0  0  0
 39 40  1  0  0  0
 40 35  1  0  0  0
 28 23  1  0  0  0
 11  5  1  0  0  0
 22 14  1  0  0  0
 22 17  1  0  0  0
  1  4  1  0  0  0
M  END
> <minimizedAffinity>
-7.10528

> <CNNscore>
0.3189877570

> <CNNaffinity>
6.3427853584

> <CNN_VS>
2.0232708454

> <CNNaffinity_variance>
0.5598054528

$$$$
[H]c1nc2c([H])c([H])c([H])c([H])n2c1C#Cc1c([H])c(C(=O)N([H])c2c([H])c([H])c(C([H])([H])N3C([H])([H])C([H])([H])N(C([H])([H])[H])C([H])([H])C3([H])[H])c(C(F)(F)F)c2[H])c([H])c([H])c1C([H])([H])[H]


 40 44  0  0  0  0  0  0  0  0999 V2000
  151.6492  137.3198  186.3357 N   0  0  0  0  0  0  0  0  0  0  0  0
  152.1716  136.8336  185.1426 C   0  0  0  0  0  0  0  0  0  0  0  0
  152.6707  135.6933  185.0639 O   0  0  0  0  0  0  0  0  0  0  0  0
  151.2406  138.3112  186.2906 H   0  0  0  0  0  0  0  0  0  0  0  0
  152.1775  137.6084  183.9005 C   0  0  0  0  0  0  0  0  0  0  0  0
  151.2982  137.3561  182.8734 C   0  0  0  0  0  0  0  0  0  0  0  0
  151.2835  138.0713  181.6770 C   0  0  0  0  0  0  0  0  0  0  0  0
  152.2106  139.0819  181.5396 C   0  0  0  0  0  0  0  0  0  0  0  0
  152.2832  139.9119  180.2983 C   0  0  0  0  0  0  0  0  0  0  0  0
  153.1204  139.3766  182.5475 C   0  0  0  0  0  0  0  0  0  0  0  0
  153.0802  138.6320  183.7021 C   0  0  0  0  0  0  0  0  0  0  0  0
  154.0903  140.4321  182.4071 C   0  0  0  0  0  0  0  0  0  0  0  0
  154.8953  141.3310  182.2932 C   0  0  0  0  0  0  0  0  0  0  0  0
  155.8387  142.4198  182.1657 C   0  0  0  0  0  0  0  0  0  0  0  0
  155.7246  143.6159  182.8129 C   0  0  0  0  0  0  0  0  0  0  0  0
  156.7821  144.3480  182.4374 N   0  0  0  0  0  0  0  0  0  0  0  0
  157.5401  143.6440  181.5836 C   0  0  0  0  0  0  0  0  0  0  0  0
  158.7148  143.8960  180.8998 C   0  0  0  0  0  0  0  0  0  0  0  0
  159.2991  142.9895  180.0686 C   0  0  0  0  0  0  0  0  0  0  0  0
  158.6824  141.7713  179.9111 C   0  0  0  0  0  0  0  0  0  0  0  0
  157.5184  141.5213  180.5888 C   0  0  0  0  0  0  0  0  0  0  0  0
  156.9535  142.4507  181.4174 N   0  0  0  0  0  0  0  0  0  0  0  0
  151.5918  135.5121  190.2128 C   0  0  0  0  0  0  0  0  0  0  0  0
  150.5655  135.3088  189.3140 C   0  0  0  0  0  0  0  0  0  0  0  0
  150.5608  135.8847  188.0331 C   0  0  0  0  0  0  0  0  0  0  0  0
  151.5823  136.6871  187.6022 C   0  0  0  0  0  0  0  0  0  0  0  0
  152.6073  136.8814  188.5206 C   0  0  0  0  0  0  0  0  0  0  0  0
  152.6238  136.3196  189.7851 C   0  0  0  0  0  0  0  0  0  0  0  0
  153.7664  136.6056  190.6839 C   0  0  0  0  0  0  0  0  0  0  0  0
  154.4820  135.5275  191.0884 F   0  0  0  0  0  0  0  0  0  0  0  0
  153.4119  137.4676  191.7337 F   0  0  0  0  0  0  0  0  0  0  0  0
  154.6983  137.3909  189.9633 F   0  0  0  0  0  0  0  0  0  0  0  0
  151.6325  134.9456  191.5569 C   0  0  0  0  0  0  0  0  0  0  0  0
  154.6274  132.2144  191.7182 C   0  0  0  0  0  0  0  0  0  0  0  0
  153.3267  131.9804  192.2709 N   0  0  0  0  0  0  0  0  0  0  0  0
  152.3233  131.5732  191.3523 C   0  0  0  0  0  0  0  0  0  0  0  0
  151.4627  132.6692  190.7943 C   0  0  0  0  0  0  0  0  0  0  0  0
  151.0444  133.6508  191.7422 N   0  0  0  0  0  0  0  0  0  0  0  0
  151.4169  133.1856  193.0640 C   0  0  0  0  0  0  0  0  0  0  0  0
  152.8833  132.9508  193.2156 C   0  0  0  0  0  0  0  0  0  0  0  0
 34 35  1  0  0  0
 35 36  1  0  0  0
 36 37  1  0  0  0
 37 38  1  0  0  0
 38 33  1  0  0  0
 33 23  1  0  0  0
 23 24  2  0  0  0
 24 25  1  0  0  0
 25 26  2  0  0  0
 26  1  1  0  0  0
  1  2  1  0  0  0
  2  3  2  0  0  0
  2  5  1  0  0  0
  5  6  2  0  0  0
  6  7  1  0  0  0
  7  8  2  0  0  0
  8  9  1  0  0  0
  8 10  1  0  0  0
 10 11  2  0  0  0
 10 12  1  0  0  0
 12 13  3  0  0  0
 13 14  1  0  0  0
 14 15  2  0  0  0
 15 16  1  0  0  0
 16 17  2  0  0  0
 17 18  1  0  0  0
 18 19  2  0  0  0
 19 20  1  0  0  0
 20 21  2  0  0  0
 21 22  1  0  0  0
 26 27  1  0  0  0
 27 28  2  0  0  0
 28 29  1  0  0  0
 29 30  1  0  0  0
 29 31  1  0  0  0
 29 32  1  0  0  0
 38 39  1  0  0  0
 39 40  1  0  0  0
 40 35  1  0  0  0
 28 23  1  0  0  0
 11  5  1  0  0  0
 22 14  1  0  0  0
 22 17  1  0  0  0
  1  4  1  0  0  0
M  END
> <minimizedAffinity>
-8.19085

> <CNNscore>
0.2711785436

> <CNNaffinity>
6.0978560448

> <CNN_VS>
1.6536077261

> <CNNaffinity_variance>
0.2462842762

$$$$
[H]c1nc2c([H])c([H])c([H])c([H])n2c1C#Cc1c([H])c(C(=O)N([H])c2c([H])c([H])c(C([H])([H])N3C([H])([H])C([H])([H])N(C([H])([H])[H])C([H])([H])C3([H])[H])c(C(F)(F)F)c2[H])c([H])c([H])c1C([H])([H])[H]


 40 44  0  0  0  0  0  0  0  0999 V2000
  156.1598  137.3175  186.9403 N   0  0  0  0  0  0  0  0  0  0  0  0
  155.0545  137.4581  186.1089 C   0  0  0  0  0  0  0  0  0  0  0  0
  154.0748  136.6903  186.1882 O   0  0  0  0  0  0  0  0  0  0  0  0
  156.9444  138.0343  186.7902 H   0  0  0  0  0  0  0  0  0  0  0  0
  154.9519  138.5031  185.0889 C   0  0  0  0  0  0  0  0  0  0  0  0
  155.8040  139.5823  185.0550 C   0  0  0  0  0  0  0  0  0  0  0  0
  155.7275  140.5962  184.1014 C   0  0  0  0  0  0  0  0  0  0  0  0
  154.7352  140.4888  183.1507 C   0  0  0  0  0  0  0  0  0  0  0  0
  154.5628  141.5195  182.0817 C   0  0  0  0  0  0  0  0  0  0  0  0
  153.8494  139.4184  183.1414 C   0  0  0  0  0  0  0  0  0  0  0  0
  153.9808  138.4532  184.1110 C   0  0  0  0  0  0  0  0  0  0  0  0
  152.8116  139.3033  182.1493 C   0  0  0  0  0  0  0  0  0  0  0  0
  151.9491  139.2090  181.3030 C   0  0  0  0  0  0  0  0  0  0  0  0
  150.9373  139.0993  180.2754 C   0  0  0  0  0  0  0  0  0  0  0  0
  150.8078  139.9649  179.2282 C   0  0  0  0  0  0  0  0  0  0  0  0
  149.7662  139.5285  178.5073 N   0  0  0  0  0  0  0  0  0  0  0  0
  149.2527  138.4267  179.0746 C   0  0  0  0  0  0  0  0  0  0  0  0
  148.2023  137.5817  178.7687 C   0  0  0  0  0  0  0  0  0  0  0  0
  147.8755  136.4990  179.5270 C   0  0  0  0  0  0  0  0  0  0  0  0
  148.6330  136.2456  180.6455 C   0  0  0  0  0  0  0  0  0  0  0  0
  149.6741  137.0828  180.9488 C   0  0  0  0  0  0  0  0  0  0  0  0
  149.9798  138.1636  180.1690 N   0  0  0  0  0  0  0  0  0  0  0  0
  156.7785  134.5356  190.1311 C   0  0  0  0  0  0  0  0  0  0  0  0
  157.0345  134.1891  188.8209 C   0  0  0  0  0  0  0  0  0  0  0  0
  156.8459  135.0833  187.7545 C   0  0  0  0  0  0  0  0  0  0  0  0
  156.3930  136.3587  187.9577 C   0  0  0  0  0  0  0  0  0  0  0  0
  156.1399  136.6905  189.2834 C   0  0  0  0  0  0  0  0  0  0  0  0
  156.3218  135.8188  190.3427 C   0  0  0  0  0  0  0  0  0  0  0  0
  156.0088  136.2805  191.7154 C   0  0  0  0  0  0  0  0  0  0  0  0
  154.9725  135.6545  192.3255 F   0  0  0  0  0  0  0  0  0  0  0  0
  155.9462  137.6803  191.8022 F   0  0  0  0  0  0  0  0  0  0  0  0
  157.1243  135.9866  192.5362 F   0  0  0  0  0  0  0  0  0  0  0  0
  156.9471  133.6365  191.2679 C   0  0  0  0  0  0  0  0  0  0  0  0
  155.7327  130.4399  193.4500 C   0  0  0  0  0  0  0  0  0  0  0  0
  156.6805  130.3405  192.3804 N   0  0  0  0  0  0  0  0  0  0  0  0
  158.0196  130.6885  192.7000 C   0  0  0  0  0  0  0  0  0  0  0  0
  158.4169  132.1050  192.4022 C   0  0  0  0  0  0  0  0  0  0  0  0
  157.9470  132.6147  191.1546 N   0  0  0  0  0  0  0  0  0  0  0  0
  157.3662  131.5141  190.4104 C   0  0  0  0  0  0  0  0  0  0  0  0
  156.2372  130.8489  191.1252 C   0  0  0  0  0  0  0  0  0  0  0  0
 34 35  1  0  0  0
 35 36  1  0  0  0
 36 37  1  0  0  0
 37 38  1  0  0  0
 38 33  1  0  0  0
 33 23  1  0  0  0
 23 24  2  0  0  0
 24 25  1  0  0  0
 25 26  2  0  0  0
 26  1  1  0  0  0
  1  2  1  0  0  0
  2  3  2  0  0  0
  2  5  1  0  0  0
  5  6  2  0  0  0
  6  7  1  0  0  0
  7  8  2  0  0  0
  8  9  1  0  0  0
  8 10  1  0  0  0
 10 11  2  0  0  0
 10 12  1  0  0  0
 12 13  3  0  0  0
 13 14  1  0  0  0
 14 15  2  0  0  0
 15 16  1  0  0  0
 16 17  2  0  0  0
 17 18  1  0  0  0
 18 19  2  0  0  0
 19 20  1  0  0  0
 20 21  2  0  0  0
 21 22  1  0  0  0
 26 27  1  0  0  0
 27 28  2  0  0  0
 28 29  1  0  0  0
 29 30  1  0  0  0
 29 31  1  0  0  0
 29 32  1  0  0  0
 38 39  1  0  0  0
 39 40  1  0  0  0
 40 35  1  0  0  0
 28 23  1  0  0  0
 11  5  1  0  0  0
 22 14  1  0  0  0
 22 17  1  0  0  0
  1  4  1  0  0  0
M  END
> <minimizedAffinity>
-7.88640

> <CNNscore>
0.2665683627

> <CNNaffinity>
5.8321747780

> <CNN_VS>
1.5546733141

> <CNNaffinity_variance>
0.0564753897

$$$$
[H]c1nc2c([H])c([H])c([H])c([H])n2c1C#Cc1c([H])c(C(=O)N([H])c2c([H])c([H])c(C([H])([H])N3C([H])([H])C([H])([H])N(C([H])([H])[H])C([H])([H])C3([H])[H])c(C(F)(F)F)c2[H])c([H])c([H])c1C([H])([H])[H]


 40 44  0  0  0  0  0  0  0  0999 V2000
  153.4117  138.2983  187.0933 N   0  0  0  0  0  0  0  0  0  0  0  0
  153.6357  137.9593  185.7637 C   0  0  0  0  0  0  0  0  0  0  0  0
  153.3914  136.8155  185.3305 O   0  0  0  0  0  0  0  0  0  0  0  0
  153.6522  139.3102  187.3584 H   0  0  0  0  0  0  0  0  0  0  0  0
  154.1677  138.9030  184.7791 C   0  0  0  0  0  0  0  0  0  0  0  0
  153.4012  139.4026  183.7521 C   0  0  0  0  0  0  0  0  0  0  0  0
  153.8805  140.2965  182.7958 C   0  0  0  0  0  0  0  0  0  0  0  0
  155.1979  140.6863  182.9069 C   0  0  0  0  0  0  0  0  0  0  0  0
  155.8146  141.6410  181.9358 C   0  0  0  0  0  0  0  0  0  0  0  0
  156.0139  140.2106  183.9260 C   0  0  0  0  0  0  0  0  0  0  0  0
  155.4774  139.3311  184.8358 C   0  0  0  0  0  0  0  0  0  0  0  0
  157.3908  140.6161  184.0449 C   0  0  0  0  0  0  0  0  0  0  0  0
  158.5508  140.9489  184.1585 C   0  0  0  0  0  0  0  0  0  0  0  0
  159.9368  141.3315  184.3144 C   0  0  0  0  0  0  0  0  0  0  0  0
  160.9160  141.0621  183.4028 C   0  0  0  0  0  0  0  0  0  0  0  0
  162.0478  141.5729  183.9060 N   0  0  0  0  0  0  0  0  0  0  0  0
  161.7978  142.1455  185.0930 C   0  0  0  0  0  0  0  0  0  0  0  0
  162.5703  142.8072  186.0291 C   0  0  0  0  0  0  0  0  0  0  0  0
  162.0633  143.3097  187.1886 C   0  0  0  0  0  0  0  0  0  0  0  0
  160.7198  143.1447  187.4272 C   0  0  0  0  0  0  0  0  0  0  0  0
  159.9540  142.4891  186.4996 C   0  0  0  0  0  0  0  0  0  0  0  0
  160.4900  141.9943  185.3430 N   0  0  0  0  0  0  0  0  0  0  0  0
  151.9931  135.9697  190.3900 C   0  0  0  0  0  0  0  0  0  0  0  0
  151.4632  135.8162  189.1258 C   0  0  0  0  0  0  0  0  0  0  0  0
  151.9132  136.5627  188.0246 C   0  0  0  0  0  0  0  0  0  0  0  0
  152.9103  137.4924  188.1458 C   0  0  0  0  0  0  0  0  0  0  0  0
  153.4321  137.6341  189.4261 C   0  0  0  0  0  0  0  0  0  0  0  0
  152.9976  136.9047  190.5190 C   0  0  0  0  0  0  0  0  0  0  0  0
  153.6220  137.1487  191.8403 C   0  0  0  0  0  0  0  0  0  0  0  0
  154.2647  136.0905  192.3926 F   0  0  0  0  0  0  0  0  0  0  0  0
  152.7487  137.7979  192.7272 F   0  0  0  0  0  0  0  0  0  0  0  0
  154.6373  138.1201  191.6668 F   0  0  0  0  0  0  0  0  0  0  0  0
  151.5484  135.2264  191.5642 C   0  0  0  0  0  0  0  0  0  0  0  0
  150.4328  132.2062  194.0317 C   0  0  0  0  0  0  0  0  0  0  0  0
  149.8721  133.5224  194.1056 N   0  0  0  0  0  0  0  0  0  0  0  0
  148.8435  133.8150  193.1714 C   0  0  0  0  0  0  0  0  0  0  0  0
  149.2816  134.4938  191.9063 C   0  0  0  0  0  0  0  0  0  0  0  0
  150.2457  135.5317  192.0804 N   0  0  0  0  0  0  0  0  0  0  0  0
  150.3851  135.7810  193.5020 C   0  0  0  0  0  0  0  0  0  0  0  0
  150.8155  134.5772  194.2728 C   0  0  0  0  0  0  0  0  0  0  0  0
 34 35  1  0  0  0
 35 36  1  0  0  0
 36 37  1  0  0  0
 37 38  1  0  0  0
 38 33  1  0  0  0
 33 23  1  0  0  0
 23 24  2  0  0  0
 24 25  1  0  0  0
 25 26  2  0  0  0
 26  1  1  0  0  0
  1  2  1  0  0  0
  2  3  2  0  0  0
  2  5  1  0  0  0
  5  6  2  0  0  0
  6  7  1  0  0  0
  7  8  2  0  0  0
  8  9  1  0  0  0
  8 10  1  0  0  0
 10 11  2  0  0  0
 10 12  1  0  0  0
 12 13  3  0  0  0
 13 14  1  0  0  0
 14 15  2  0  0  0
 15 16  1  0  0  0
 16 17  2  0  0  0
 17 18  1  0  0  0
 18 19  2  0  0  0
 19 20  1  0  0  0
 20 21  2  0  0  0
 21 22  1  0  0  0
 26 27  1  0  0  0
 27 28  2  0  0  0
 28 29  1  0  0  0
 29 30  1  0  0  0
 29 31  1  0  0  0
 29 32  1  0  0  0
 38 39  1  0  0  0
 39 40  1  0  0  0
 40 35  1  0  0  0
 28 23  1  0  0  0
 11  5  1  0  0  0
 22 14  1  0  0  0
 22 17  1  0  0  0
  1  4  1  0  0  0
M  END
> <minimizedAffinity>
-9.92216

> <CNNscore>
0.2611801624

> <CNNaffinity>
6.5565643311

> <CNN_VS>
1.7124445438

> <CNNaffinity_variance>
0.0652247667

$$$$
[H]c1nc2c([H])c([H])c([H])c([H])n2c1C#Cc1c([H])c(C(=O)N([H])c2c([H])c([H])c(C([H])([H])N3C([H])([H])C([H])([H])N(C([H])([H])[H])C([H])([H])C3([H])[H])c(C(F)(F)F)c2[H])c([H])c([H])c1C([H])([H])[H]


 40 44  0  0  0  0  0  0  0  0999 V2000
  153.4311  138.7866  186.1665 N   0  0  0  0  0  0  0  0  0  0  0  0
  153.8122  138.6131  184.8407 C   0  0  0  0  0  0  0  0  0  0  0  0
  153.6029  137.5432  184.2349 O   0  0  0  0  0  0  0  0  0  0  0  0
  153.6551  139.7474  186.5891 H   0  0  0  0  0  0  0  0  0  0  0  0
  154.4792  139.6564  184.0600 C   0  0  0  0  0  0  0  0  0  0  0  0
  153.8147  140.4067  183.1180 C   0  0  0  0  0  0  0  0  0  0  0  0
  154.4232  141.4016  182.3544 C   0  0  0  0  0  0  0  0  0  0  0  0
  155.7652  141.6272  182.5738 C   0  0  0  0  0  0  0  0  0  0  0  0
  156.5169  142.6701  181.8108 C   0  0  0  0  0  0  0  0  0  0  0  0
  156.4816  140.8967  183.5138 C   0  0  0  0  0  0  0  0  0  0  0  0
  155.8199  139.9299  184.2326 C   0  0  0  0  0  0  0  0  0  0  0  0
  157.8839  141.1301  183.7455 C   0  0  0  0  0  0  0  0  0  0  0  0
  159.0603  141.3342  183.9541 C   0  0  0  0  0  0  0  0  0  0  0  0
  160.4581  141.5882  184.2249 C   0  0  0  0  0  0  0  0  0  0  0  0
  161.4737  141.2999  183.3600 C   0  0  0  0  0  0  0  0  0  0  0  0
  162.6048  141.6791  183.9698 N   0  0  0  0  0  0  0  0  0  0  0  0
  162.3193  142.1894  185.1770 C   0  0  0  0  0  0  0  0  0  0  0  0
  163.0751  142.7197  186.2058 C   0  0  0  0  0  0  0  0  0  0  0  0
  162.5305  143.1836  187.3644 C   0  0  0  0  0  0  0  0  0  0  0  0
  161.1649  143.1159  187.5047 C   0  0  0  0  0  0  0  0  0  0  0  0
  160.4157  142.5905  186.4852 C   0  0  0  0  0  0  0  0  0  0  0  0
  160.9896  142.1317  185.3320 N   0  0  0  0  0  0  0  0  0  0  0  0
  151.6075  136.0718  188.9247 C   0  0  0  0  0  0  0  0  0  0  0  0
  151.0383  136.3320  187.6956 C   0  0  0  0  0  0  0  0  0  0  0  0
  151.6176  137.2137  186.7686 C   0  0  0  0  0  0  0  0  0  0  0  0
  152.7884  137.8701  187.0358 C   0  0  0  0  0  0  0  0  0  0  0  0
  153.3475  137.5966  188.2785 C   0  0  0  0  0  0  0  0  0  0  0  0
  152.7869  136.7300  189.2003 C   0  0  0  0  0  0  0  0  0  0  0  0
  153.4683  136.5235  190.4997 C   0  0  0  0  0  0  0  0  0  0  0  0
  153.9122  135.2650  190.7387 F   0  0  0  0  0  0  0  0  0  0  0  0
  152.7462  137.0747  191.5700 F   0  0  0  0  0  0  0  0  0  0  0  0
  154.6434  137.3131  190.5028 F   0  0  0  0  0  0  0  0  0  0  0  0
  151.0352  135.1748  189.9231 C   0  0  0  0  0  0  0  0  0  0  0  0
  149.6308  131.9698  191.9751 C   0  0  0  0  0  0  0  0  0  0  0  0
  149.1652  133.3058  192.1996 N   0  0  0  0  0  0  0  0  0  0  0  0
  148.1887  133.7869  191.2879 C   0  0  0  0  0  0  0  0  0  0  0  0
  148.7121  134.5796  190.1256 C   0  0  0  0  0  0  0  0  0  0  0  0
  149.7434  135.5126  190.4462 N   0  0  0  0  0  0  0  0  0  0  0  0
  149.8584  135.5757  191.8903 C   0  0  0  0  0  0  0  0  0  0  0  0
  150.1773  134.2581  192.5151 C   0  0  0  0  0  0  0  0  0  0  0  0
 34 35  1  0  0  0
 35 36  1  0  0  0
 36 37  1  0  0  0
 37 38  1  0  0  0
 38 33  1  0  0  0
 33 23  1  0  0  0
 23 24  2  0  0  0
 24 25  1  0  0  0
 25 26  2  0  0  0
 26  1  1  0  0  0
  1  2  1  0  0  0
  2  3  2  0  0  0
  2  5  1  0  0  0
  5  6  2  0  0  0
  6  7  1  0  0  0
  7  8  2  0  0  0
  8  9  1  0  0  0
  8 10  1  0  0  0
 10 11  2  0  0  0
 10 12  1  0  0  0
 12 13  3  0  0  0
 13 14  1  0  0  0
 14 15  2  0  0  0
 15 16  1  0  0  0
 16 17  2  0  0  0
 17 18  1  0  0  0
 18 19  2  0  0  0
 19 20  1  0  0  0
 20 21  2  0  0  0
 21 22  1  0  0  0
 26 27  1  0  0  0
 27 28  2  0  0  0
 28 29  1  0  0  0
 29 30  1  0  0  0
 29 31  1  0  0  0
 29 32  1  0  0  0
 38 39  1  0  0  0
 39 40  1  0  0  0
 40 35  1  0  0  0
 28 23  1  0  0  0
 11  5  1  0  0  0
 22 14  1  0  0  0
 22 17  1  0  0  0
  1  4  1  0  0  0
M  END
> <minimizedAffinity>
-9.12868

> <CNNscore>
0.2468121052

> <CNNaffinity>
6.6865067482

> <CNN_VS>
1.6503107548

> <CNNaffinity_variance>
0.2123409808

$$$$
[H]c1nc2c([H])c([H])c([H])c([H])n2c1C#Cc1c([H])c(C(=O)N([H])c2c([H])c([H])c(C([H])([H])N3C([H])([H])C([H])([H])N(C([H])([H])[H])C([H])([H])C3([H])[H])c(C(F)(F)F)c2[H])c([H])c([H])c1C([H])([H])[H]


 40 44  0  0  0  0  0  0  0  0999 V2000
  152.1733  137.4953  186.6604 N   0  0  0  0  0  0  0  0  0  0  0  0
  152.5050  136.9114  185.4430 C   0  0  0  0  0  0  0  0  0  0  0  0
  152.8640  135.7195  185.3658 O   0  0  0  0  0  0  0  0  0  0  0  0
  151.8738  138.5247  186.6121 H   0  0  0  0  0  0  0  0  0  0  0  0
  152.4599  137.6370  184.1723 C   0  0  0  0  0  0  0  0  0  0  0  0
  151.5926  137.2940  183.1613 C   0  0  0  0  0  0  0  0  0  0  0  0
  151.5307  137.9606  181.9386 C   0  0  0  0  0  0  0  0  0  0  0  0
  152.3959  139.0180  181.7568 C   0  0  0  0  0  0  0  0  0  0  0  0
  152.4141  139.8025  180.4844 C   0  0  0  0  0  0  0  0  0  0  0  0
  153.2910  139.4042  182.7468 C   0  0  0  0  0  0  0  0  0  0  0  0
  153.2998  138.7035  183.9292 C   0  0  0  0  0  0  0  0  0  0  0  0
  154.1963  140.5088  182.5599 C   0  0  0  0  0  0  0  0  0  0  0  0
  154.9689  141.4283  182.3964 C   0  0  0  0  0  0  0  0  0  0  0  0
  155.9068  142.5097  182.1903 C   0  0  0  0  0  0  0  0  0  0  0  0
  155.8064  143.7373  182.7781 C   0  0  0  0  0  0  0  0  0  0  0  0
  156.8529  144.4499  182.3398 N   0  0  0  0  0  0  0  0  0  0  0  0
  157.5911  143.7036  181.5048 C   0  0  0  0  0  0  0  0  0  0  0  0
  158.7481  143.9211  180.7802 C   0  0  0  0  0  0  0  0  0  0  0  0
  159.3136  142.9737  179.9823 C   0  0  0  0  0  0  0  0  0  0  0  0
  158.6956  141.7487  179.9025 C   0  0  0  0  0  0  0  0  0  0  0  0
  157.5490  141.5328  180.6205 C   0  0  0  0  0  0  0  0  0  0  0  0
  157.0028  142.5031  181.4142 N   0  0  0  0  0  0  0  0  0  0  0  0
  152.0444  135.6443  190.5153 C   0  0  0  0  0  0  0  0  0  0  0  0
  153.0716  136.4955  190.1650 C   0  0  0  0  0  0  0  0  0  0  0  0
  153.1365  137.1212  188.9093 C   0  0  0  0  0  0  0  0  0  0  0  0
  152.1765  136.9187  187.9551 C   0  0  0  0  0  0  0  0  0  0  0  0
  151.1497  136.0580  188.3248 C   0  0  0  0  0  0  0  0  0  0  0  0
  151.0743  135.4358  189.5585 C   0  0  0  0  0  0  0  0  0  0  0  0
  149.9363  134.5291  189.8379 C   0  0  0  0  0  0  0  0  0  0  0  0
  148.9721  135.0269  190.6507 F   0  0  0  0  0  0  0  0  0  0  0  0
  150.3616  133.2406  190.1983 F   0  0  0  0  0  0  0  0  0  0  0  0
  149.2672  134.2841  188.6145 F   0  0  0  0  0  0  0  0  0  0  0  0
  151.9431  134.9629  191.8016 C   0  0  0  0  0  0  0  0  0  0  0  0
  150.0210  132.7375  194.5958 C   0  0  0  0  0  0  0  0  0  0  0  0
  150.8012  133.8943  194.9203 N   0  0  0  0  0  0  0  0  0  0  0  0
  150.1582  135.1484  194.7463 C   0  0  0  0  0  0  0  0  0  0  0  0
  150.4013  135.8322  193.4324 C   0  0  0  0  0  0  0  0  0  0  0  0
  151.7486  135.7797  192.9642 N   0  0  0  0  0  0  0  0  0  0  0  0
  152.5717  135.2337  194.0257 C   0  0  0  0  0  0  0  0  0  0  0  0
  152.1488  133.8688  194.4578 C   0  0  0  0  0  0  0  0  0  0  0  0
 34 35  1  0  0  0
 35 36  1  0  0  0
 36 37  1  0  0  0
 37 38  1  0  0  0
 38 33  1  0  0  0
 33 23  1  0  0  0
 23 24  2  0  0  0
 24 25  1  0  0  0
 25 26  2  0  0  0
 26  1  1  0  0  0
  1  2  1  0  0  0
  2  3  2  0  0  0
  2  5  1  0  0  0
  5  6  2  0  0  0
  6  7  1  0  0  0
  7  8  2  0  0  0
  8  9  1  0  0  0
  8 10  1  0  0  0
 10 11  2  0  0  0
 10 12  1  0  0  0
 12 13  3  0  0  0
 13 14  1  0  0  0
 14 15  2  0  0  0
 15 16  1  0  0  0
 16 17  2  0  0  0
 17 18  1  0  0  0
 18 19  2  0  0  0
 19 20  1  0  0  0
 20 21  2  0  0  0
 21 22  1  0  0  0
 26 27  1  0  0  0
 27 28  2  0  0  0
 28 29  1  0  0  0
 29 30  1  0  0  0
 29 31  1  0  0  0
 29 32  1  0  0  0
 38 39  1  0  0  0
 39 40  1  0  0  0
 40 35  1  0  0  0
 28 23  1  0  0  0
 11  5  1  0  0  0
 22 14  1  0  0  0
 22 17  1  0  0  0
  1  4  1  0  0  0
M  END
> <minimizedAffinity>
-8.60217

> <CNNscore>
0.2369494438

> <CNNaffinity>
6.0993852615

> <CNN_VS>
1.4452459812

> <CNNaffinity_variance>
0.4642452300

$$$$
[H]c1nc(C(=O)N([H])[H])c(N([H])c2c([H])c([H])c(C3([H])C([H])([H])C([H])([H])N(C4([H])C([H])([H])C([H])([H])C([H])([H])C4([H])[H])C([H])([H])C3([H])[H])c([H])c2[H])nc1N1C([H])([H])C([H])([H])C([H])([H])[C@@]([H])(N([H])C(=O)N2C([H])([H])C([H])([H])C([H])([H])C2([H])[H])C1([H])[H]


 45 50  0  0  0  0  0  0  0  0999 V2000
  159.2360  131.9160  188.9103 C   0  0  0  0  0  0  0  0  0  0  0  0
  159.1717  132.5820  190.1049 N   0  0  0  0  0  0  0  0  0  0  0  0
  158.2818  133.5406  190.3329 C   0  0  0  0  0  0  0  0  0  0  0  0
  157.3647  133.9222  189.3717 C   0  0  0  0  0  0  0  0  0  0  0  0
  157.4264  133.2804  188.2200 N   0  0  0  0  0  0  0  0  0  0  0  0
  158.3289  132.2878  187.9470 C   0  0  0  0  0  0  0  0  0  0  0  0
  156.4126  134.9561  189.6224 N   0  0  0  0  0  0  0  0  0  0  0  0
  156.5442  136.2423  188.9653 C   0  0  0  0  0  0  0  0  0  0  0  0
  156.8715  137.2414  190.0790 C   0  0  0  0  0  0  0  0  0  0  0  0
  155.7622  137.2286  191.1114 C   0  0  0  0  0  0  0  0  0  0  0  0
  155.4766  135.8462  191.6189 C   0  0  0  0  0  0  0  0  0  0  0  0
  155.2880  134.8471  190.5000 C   0  0  0  0  0  0  0  0  0  0  0  0
  154.3059  135.8802  192.4702 N   0  0  0  0  0  0  0  0  0  0  0  0
  153.0370  136.1531  191.9001 C   0  0  0  0  0  0  0  0  0  0  0  0
  152.8639  136.3667  190.6813 O   0  0  0  0  0  0  0  0  0  0  0  0
  151.9096  136.1852  192.7597 N   0  0  0  0  0  0  0  0  0  0  0  0
  150.5225  136.4475  192.3470 C   0  0  0  0  0  0  0  0  0  0  0  0
  149.7497  135.4714  193.1787 C   0  0  0  0  0  0  0  0  0  0  0  0
  150.6146  135.1506  194.3695 C   0  0  0  0  0  0  0  0  0  0  0  0
  151.8523  135.9850  194.1900 C   0  0  0  0  0  0  0  0  0  0  0  0
  154.4378  135.7009  193.4822 H   0  0  0  0  0  0  0  0  0  0  0  0
  160.9879  130.5265  189.9980 N   0  0  0  0  0  0  0  0  0  0  0  0
  160.2477  130.8823  188.7946 C   0  0  0  0  0  0  0  0  0  0  0  0
  160.5930  130.2339  187.8028 O   0  0  0  0  0  0  0  0  0  0  0  0
  160.5749  129.7890  190.5982 H   0  0  0  0  0  0  0  0  0  0  0  0
  161.8722  130.9711  190.2551 H   0  0  0  0  0  0  0  0  0  0  0  0
  158.3681  131.6824  186.6817 N   0  0  0  0  0  0  0  0  0  0  0  0
  159.0447  130.9266  186.4651 H   0  0  0  0  0  0  0  0  0  0  0  0
  157.5181  132.0463  185.6259 C   0  0  0  0  0  0  0  0  0  0  0  0
  157.7372  131.4866  184.3582 C   0  0  0  0  0  0  0  0  0  0  0  0
  156.9348  131.7544  183.2771 C   0  0  0  0  0  0  0  0  0  0  0  0
  155.8666  132.6176  183.4664 C   0  0  0  0  0  0  0  0  0  0  0  0
  155.6068  133.1929  184.6873 C   0  0  0  0  0  0  0  0  0  0  0  0
  156.4575  132.8864  185.7623 C   0  0  0  0  0  0  0  0  0  0  0  0
  154.9950  132.9075  182.3040 C   0  0  0  0  0  0  0  0  0  0  0  0
  155.7878  133.6845  181.2873 C   0  0  0  0  0  0  0  0  0  0  0  0
  155.0072  133.8386  179.9819 C   0  0  0  0  0  0  0  0  0  0  0  0
  154.5499  132.5976  179.4735 N   0  0  0  0  0  0  0  0  0  0  0  0
  154.7502  131.4728  180.3097 C   0  0  0  0  0  0  0  0  0  0  0  0
  154.3923  131.6556  181.7544 C   0  0  0  0  0  0  0  0  0  0  0  0
  153.4078  132.6495  178.6574 C   0  0  0  0  0  0  0  0  0  0  0  0
  152.0921  132.8812  179.3510 C   0  0  0  0  0  0  0  0  0  0  0  0
  151.0364  132.1106  178.5476 C   0  0  0  0  0  0  0  0  0  0  0  0
  151.7614  131.8897  177.2127 C   0  0  0  0  0  0  0  0  0  0  0  0
  153.1343  131.4819  177.7804 C   0  0  0  0  0  0  0  0  0  0  0  0
 22 23  1  0  0  0
 23 24  2  0  0  0
 23  1  1  0  0  0
  1  2  2  0  0  0
  2  3  1  0  0  0
  3  4  2  0  0  0
  4  5  1  0  0  0
  5  6  2  0  0  0
  6 27  1  0  0  0
 27 29  1  0  0  0
 29 30  2  0  0  0
 30 31  1  0  0  0
 31 32  2  0  0  0
 32 33  1  0  0  0
 33 34  2  0  0  0
 32 35  1  0  0  0
 35 36  1  0  0  0
 36 37  1  0  0  0
 37 38  1  0  0  0
 38 39  1  0  0  0
 39 40  1  0  0  0
 38 41  1  0  0  0
 41 42  1  0  0  0
 42 43  1  0  0  0
 43 44  1  0  0  0
 44 45  1  0  0  0
  4  7  1  0  0  0
  7  8  1  0  0  0
  8  9  1  0  0  0
  9 10  1  0  0  0
 10 11  1  0  0  0
 11 12  1  0  0  0
 11 13  1  0  0  0
 13 14  1  0  0  0
 14 15  2  0  0  0
 14 16  1  0  0  0
 16 17  1  0  0  0
 17 18  1  0  0  0
 18 19  1  0  0  0
 19 20  1  0  0  0
  6  1  1  0  0  0
 34 29  1  0  0  0
 40 35  1  0  0  0
 45 41  1  0  0  0
 12  7  1  0  0  0
 20 16  1  0  0  0
 22 25  1  0  0  0
 22 26  1  0  0  0
 27 28  1  0  0  0
 13 21  1  0  0  0
M  END
> <minimizedAffinity>
-6.76162

> <CNNscore>
0.2133111805

> <CNNaffinity>
5.7953181267

> <CNN_VS>
1.2362061739

> <CNNaffinity_variance>
0.0223046374

$$$$
[H]c1nc(C(=O)N([H])[H])c(N([H])c2c([H])c([H])c(C3([H])C([H])([H])C([H])([H])N(C4([H])C([H])([H])C([H])([H])C([H])([H])C4([H])[H])C([H])([H])C3([H])[H])c([H])c2[H])nc1N1C([H])([H])C([H])([H])C([H])([H])[C@@]([H])(N([H])C(=O)N2C([H])([H])C([H])([H])C([H])([H])C2([H])[H])C1([H])[H]


 45 50  0  0  0  0  0  0  0  0999 V2000
  150.5147  138.4826  180.7491 C   0  0  0  0  0  0  0  0  0  0  0  0
  149.8586  137.3131  181.0255 N   0  0  0  0  0  0  0  0  0  0  0  0
  150.0066  136.6753  182.1805 C   0  0  0  0  0  0  0  0  0  0  0  0
  150.8361  137.1590  183.1748 C   0  0  0  0  0  0  0  0  0  0  0  0
  151.4688  138.2865  182.9087 N   0  0  0  0  0  0  0  0  0  0  0  0
  151.3425  138.9725  181.7307 C   0  0  0  0  0  0  0  0  0  0  0  0
  150.9933  136.4664  184.4133 N   0  0  0  0  0  0  0  0  0  0  0  0
  149.8313  135.9559  185.1149 C   0  0  0  0  0  0  0  0  0  0  0  0
  149.7293  136.7843  186.3989 C   0  0  0  0  0  0  0  0  0  0  0  0
  151.0052  136.6306  187.2021 C   0  0  0  0  0  0  0  0  0  0  0  0
  152.2270  136.9425  186.3896 C   0  0  0  0  0  0  0  0  0  0  0  0
  152.2417  136.2141  185.0648 C   0  0  0  0  0  0  0  0  0  0  0  0
  153.4101  136.6185  187.1589 N   0  0  0  0  0  0  0  0  0  0  0  0
  154.0015  137.6114  187.9798 C   0  0  0  0  0  0  0  0  0  0  0  0
  153.5518  138.7724  188.0845 O   0  0  0  0  0  0  0  0  0  0  0  0
  155.1626  137.2662  188.7172 N   0  0  0  0  0  0  0  0  0  0  0  0
  155.9050  138.1607  189.6182 C   0  0  0  0  0  0  0  0  0  0  0  0
  156.2502  137.2540  190.7586 C   0  0  0  0  0  0  0  0  0  0  0  0
  156.2136  135.8512  190.2112 C   0  0  0  0  0  0  0  0  0  0  0  0
  155.8735  136.0083  188.7551 C   0  0  0  0  0  0  0  0  0  0  0  0
  153.7893  135.6572  187.0820 H   0  0  0  0  0  0  0  0  0  0  0  0
  149.0706  138.6431  178.7312 N   0  0  0  0  0  0  0  0  0  0  0  0
  150.2563  139.0838  179.4540 C   0  0  0  0  0  0  0  0  0  0  0  0
  150.9053  139.9397  178.8460 O   0  0  0  0  0  0  0  0  0  0  0  0
  148.1884  139.1499  178.9300 H   0  0  0  0  0  0  0  0  0  0  0  0
  149.0876  137.8737  178.0576 H   0  0  0  0  0  0  0  0  0  0  0  0
  152.0845  140.1405  181.4981 N   0  0  0  0  0  0  0  0  0  0  0  0
  151.7927  140.8326  180.7826 H   0  0  0  0  0  0  0  0  0  0  0  0
  153.2607  140.4587  182.1946 C   0  0  0  0  0  0  0  0  0  0  0  0
  153.7382  141.7771  182.1480 C   0  0  0  0  0  0  0  0  0  0  0  0
  154.8576  142.1882  182.8278 C   0  0  0  0  0  0  0  0  0  0  0  0
  155.5317  141.2450  183.5880 C   0  0  0  0  0  0  0  0  0  0  0  0
  155.1066  139.9404  183.6686 C   0  0  0  0  0  0  0  0  0  0  0  0
  153.9551  139.5701  182.9543 C   0  0  0  0  0  0  0  0  0  0  0  0
  156.7385  141.6838  184.3269 C   0  0  0  0  0  0  0  0  0  0  0  0
  157.5129  140.4658  184.7543 C   0  0  0  0  0  0  0  0  0  0  0  0
  158.8689  140.8548  185.3435 C   0  0  0  0  0  0  0  0  0  0  0  0
  159.6165  141.6915  184.4781 N   0  0  0  0  0  0  0  0  0  0  0  0
  158.9441  142.1413  183.3162 C   0  0  0  0  0  0  0  0  0  0  0  0
  157.5469  142.6466  183.5193 C   0  0  0  0  0  0  0  0  0  0  0  0
  160.5555  142.5342  185.0955 C   0  0  0  0  0  0  0  0  0  0  0  0
  162.0074  142.2190  184.8538 C   0  0  0  0  0  0  0  0  0  0  0  0
  162.7551  142.6082  186.1358 C   0  0  0  0  0  0  0  0  0  0  0  0
  161.7401  143.5355  186.8186 C   0  0  0  0  0  0  0  0  0  0  0  0
  160.4771  142.6887  186.5710 C   0  0  0  0  0  0  0  0  0  0  0  0
 22 23  1  0  0  0
 23 24  2  0  0  0
 23  1  1  0  0  0
  1  2  2  0  0  0
  2  3  1  0  0  0
  3  4  2  0  0  0
  4  5  1  0  0  0
  5  6  2  0  0  0
  6 27  1  0  0  0
 27 29  1  0  0  0
 29 30  2  0  0  0
 30 31  1  0  0  0
 31 32  2  0  0  0
 32 33  1  0  0  0
 33 34  2  0  0  0
 32 35  1  0  0  0
 35 36  1  0  0  0
 36 37  1  0  0  0
 37 38  1  0  0  0
 38 39  1  0  0  0
 39 40  1  0  0  0
 38 41  1  0  0  0
 41 42  1  0  0  0
 42 43  1  0  0  0
 43 44  1  0  0  0
 44 45  1  0  0  0
  4  7  1  0  0  0
  7  8  1  0  0  0
  8  9  1  0  0  0
  9 10  1  0  0  0
 10 11  1  0  0  0
 11 12  1  0  0  0
 11 13  1  0  0  0
 13 14  1  0  0  0
 14 15  2  0  0  0
 14 16  1  0  0  0
 16 17  1  0  0  0
 17 18  1  0  0  0
 18 19  1  0  0  0
 19 20  1  0  0  0
  6  1  1  0  0  0
 34 29  1  0  0  0
 40 35  1  0  0  0
 45 41  1  0  0  0
 12  7  1  0  0  0
 20 16  1  0  0  0
 22 25  1  0  0  0
 22 26  1  0  0  0
 27 28  1  0  0  0
 13 21  1  0  0  0
M  END
> <minimizedAffinity>
-10.44156

> <CNNscore>
0.1929160804

> <CNNaffinity>
6.8732552528

> <CNN_VS>
1.3259614706

> <CNNaffinity_variance>
0.4240929484

$$$$
[H]c1nc(C(=O)N([H])[H])c(N([H])c2c([H])c([H])c(C3([H])C([H])([H])C([H])([H])N(C4([H])C([H])([H])C([H])([H])C([H])([H])C4([H])[H])C([H])([H])C3([H])[H])c([H])c2[H])nc1N1C([H])([H])C([H])([H])C([H])([H])[C@@]([H])(N([H])C(=O)N2C([H])([H])C([H])([H])C([H])([H])C2([H])[H])C1([H])[H]


 45 50  0  0  0  0  0  0  0  0999 V2000
  156.9335  132.0229  181.7386 C   0  0  0  0  0  0  0  0  0  0  0  0
  156.2036  132.0181  180.5801 N   0  0  0  0  0  0  0  0  0  0  0  0
  154.8873  132.1910  180.5731 C   0  0  0  0  0  0  0  0  0  0  0  0
  154.1754  132.3869  181.7416 C   0  0  0  0  0  0  0  0  0  0  0  0
  154.8786  132.3916  182.8586 N   0  0  0  0  0  0  0  0  0  0  0  0
  156.2355  132.2165  182.9067 C   0  0  0  0  0  0  0  0  0  0  0  0
  152.7594  132.5688  181.7272 N   0  0  0  0  0  0  0  0  0  0  0  0
  151.9267  131.7358  180.8810 C   0  0  0  0  0  0  0  0  0  0  0  0
  151.3517  132.6756  179.8171 C   0  0  0  0  0  0  0  0  0  0  0  0
  150.5678  133.7832  180.4918 C   0  0  0  0  0  0  0  0  0  0  0  0
  151.3759  134.4934  181.5371 C   0  0  0  0  0  0  0  0  0  0  0  0
  152.0441  133.5377  182.4993 C   0  0  0  0  0  0  0  0  0  0  0  0
  150.5251  135.4206  182.2531 N   0  0  0  0  0  0  0  0  0  0  0  0
  150.4295  136.7638  181.8102 C   0  0  0  0  0  0  0  0  0  0  0  0
  151.0453  137.2040  180.8160 O   0  0  0  0  0  0  0  0  0  0  0  0
  149.5926  137.6500  182.5348 N   0  0  0  0  0  0  0  0  0  0  0  0
  149.3694  139.0695  182.2212 C   0  0  0  0  0  0  0  0  0  0  0  0
  147.9030  139.2288  182.4784 C   0  0  0  0  0  0  0  0  0  0  0  0
  147.5176  138.1282  183.4319 C   0  0  0  0  0  0  0  0  0  0  0  0
  148.7959  137.3880  183.7120 C   0  0  0  0  0  0  0  0  0  0  0  0
  150.0071  135.0650  183.0771 H   0  0  0  0  0  0  0  0  0  0  0  0
  159.0641  132.6450  180.6177 N   0  0  0  0  0  0  0  0  0  0  0  0
  158.3660  131.8341  181.6066 C   0  0  0  0  0  0  0  0  0  0  0  0
  159.1135  131.0678  182.2209 O   0  0  0  0  0  0  0  0  0  0  0  0
  159.4072  133.5711  180.9327 H   0  0  0  0  0  0  0  0  0  0  0  0
  159.2173  132.3336  179.6557 H   0  0  0  0  0  0  0  0  0  0  0  0
  156.9113  132.1845  184.1360 N   0  0  0  0  0  0  0  0  0  0  0  0
  157.8131  131.6835  184.2440 H   0  0  0  0  0  0  0  0  0  0  0  0
  156.4299  132.8085  185.2973 C   0  0  0  0  0  0  0  0  0  0  0  0
  156.9930  132.4611  186.5344 C   0  0  0  0  0  0  0  0  0  0  0  0
  156.6125  133.0459  187.7165 C   0  0  0  0  0  0  0  0  0  0  0  0
  155.6274  134.0200  187.6649 C   0  0  0  0  0  0  0  0  0  0  0  0
  155.0430  134.3982  186.4798 C   0  0  0  0  0  0  0  0  0  0  0  0
  155.4680  133.7697  185.2976 C   0  0  0  0  0  0  0  0  0  0  0  0
  155.2152  134.6573  188.9372 C   0  0  0  0  0  0  0  0  0  0  0  0
  155.6225  136.1062  188.9061 C   0  0  0  0  0  0  0  0  0  0  0  0
  155.0474  136.8651  190.1021 C   0  0  0  0  0  0  0  0  0  0  0  0
  153.6450  136.7029  190.2242 N   0  0  0  0  0  0  0  0  0  0  0  0
  153.0490  135.7710  189.3405 C   0  0  0  0  0  0  0  0  0  0  0  0
  153.7571  134.4572  189.1949 C   0  0  0  0  0  0  0  0  0  0  0  0
  153.1176  136.8544  191.5172 C   0  0  0  0  0  0  0  0  0  0  0  0
  153.6981  135.9734  192.5908 C   0  0  0  0  0  0  0  0  0  0  0  0
  152.5553  135.6709  193.5688 C   0  0  0  0  0  0  0  0  0  0  0  0
  151.5480  136.7761  193.2217 C   0  0  0  0  0  0  0  0  0  0  0  0
  151.6514  136.6849  191.6873 C   0  0  0  0  0  0  0  0  0  0  0  0
 22 23  1  0  0  0
 23 24  2  0  0  0
 23  1  1  0  0  0
  1  2  2  0  0  0
  2  3  1  0  0  0
  3  4  2  0  0  0
  4  5  1  0  0  0
  5  6  2  0  0  0
  6 27  1  0  0  0
 27 29  1  0  0  0
 29 30  2  0  0  0
 30 31  1  0  0  0
 31 32  2  0  0  0
 32 33  1  0  0  0
 33 34  2  0  0  0
 32 35  1  0  0  0
 35 36  1  0  0  0
 36 37  1  0  0  0
 37 38  1  0  0  0
 38 39  1  0  0  0
 39 40  1  0  0  0
 38 41  1  0  0  0
 41 42  1  0  0  0
 42 43  1  0  0  0
 43 44  1  0  0  0
 44 45  1  0  0  0
  4  7  1  0  0  0
  7  8  1  0  0  0
  8  9  1  0  0  0
  9 10  1  0  0  0
 10 11  1  0  0  0
 11 12  1  0  0  0
 11 13  1  0  0  0
 13 14  1  0  0  0
 14 15  2  0  0  0
 14 16  1  0  0  0
 16 17  1  0  0  0
 17 18  1  0  0  0
 18 19  1  0  0  0
 19 20  1  0  0  0
  6  1  1  0  0  0
 34 29  1  0  0  0
 40 35  1  0  0  0
 45 41  1  0  0  0
 12  7  1  0  0  0
 20 16  1  0  0  0
 22 25  1  0  0  0
 22 26  1  0  0  0
 27 28  1  0  0  0
 13 21  1  0  0  0
M  END
> <minimizedAffinity>
-5.91220

> <CNNscore>
0.1742201746

> <CNNaffinity>
5.9538950920

> <CNN_VS>
1.0372886658

> <CNNaffinity_variance>
0.0332891122

$$$$
[H]c1nc(C(=O)N([H])[H])c(N([H])c2c([H])c([H])c(C3([H])C([H])([H])C([H])([H])N(C4([H])C([H])([H])C([H])([H])C([H])([H])C4([H])[H])C([H])([H])C3([H])[H])c([H])c2[H])nc1N1C([H])([H])C([H])([H])C([H])([H])[C@@]([H])(N([H])C(=O)N2C([H])([H])C([H])([H])C([H])([H])C2([H])[H])C1([H])[H]


 45 50  0  0  0  0  0  0  0  0999 V2000
  155.3139  132.7258  181.4173 C   0  0  0  0  0  0  0  0  0  0  0  0
  154.6680  133.8681  181.0266 N   0  0  0  0  0  0  0  0  0  0  0  0
  154.1943  134.7470  181.9017 C   0  0  0  0  0  0  0  0  0  0  0  0
  154.3276  134.5574  183.2644 C   0  0  0  0  0  0  0  0  0  0  0  0
  154.9503  133.4564  183.6414 N   0  0  0  0  0  0  0  0  0  0  0  0
  155.4518  132.5270  182.7702 C   0  0  0  0  0  0  0  0  0  0  0  0
  153.8129  135.5050  184.2001 N   0  0  0  0  0  0  0  0  0  0  0  0
  153.2443  136.7547  183.7330 C   0  0  0  0  0  0  0  0  0  0  0  0
  154.1994  137.8484  184.2200 C   0  0  0  0  0  0  0  0  0  0  0  0
  154.3072  137.7892  185.7305 C   0  0  0  0  0  0  0  0  0  0  0  0
  154.6748  136.4193  186.2189 C   0  0  0  0  0  0  0  0  0  0  0  0
  153.8022  135.3391  185.6210 C   0  0  0  0  0  0  0  0  0  0  0  0
  154.5990  136.3893  187.6645 N   0  0  0  0  0  0  0  0  0  0  0  0
  155.6691  135.8302  188.4073 C   0  0  0  0  0  0  0  0  0  0  0  0
  156.6969  135.3551  187.8787 O   0  0  0  0  0  0  0  0  0  0  0  0
  155.5640  135.8097  189.8213 N   0  0  0  0  0  0  0  0  0  0  0  0
  156.5721  135.2754  190.7495 C   0  0  0  0  0  0  0  0  0  0  0  0
  156.5480  136.2775  191.8617 C   0  0  0  0  0  0  0  0  0  0  0  0
  155.2014  136.9493  191.7983 C   0  0  0  0  0  0  0  0  0  0  0  0
  154.4842  136.2810  190.6584 C   0  0  0  0  0  0  0  0  0  0  0  0
  153.7525  136.7839  188.1132 H   0  0  0  0  0  0  0  0  0  0  0  0
  154.8498  131.4846  179.3132 N   0  0  0  0  0  0  0  0  0  0  0  0
  155.7928  131.8546  180.3604 C   0  0  0  0  0  0  0  0  0  0  0  0
  156.9122  131.3593  180.2026 O   0  0  0  0  0  0  0  0  0  0  0  0
  154.7849  132.1218  178.4981 H   0  0  0  0  0  0  0  0  0  0  0  0
  154.2716  130.6425  179.3620 H   0  0  0  0  0  0  0  0  0  0  0  0
  156.0596  131.3545  183.2442 N   0  0  0  0  0  0  0  0  0  0  0  0
  156.1472  130.5114  182.6461 H   0  0  0  0  0  0  0  0  0  0  0  0
  156.5821  131.2262  184.5404 C   0  0  0  0  0  0  0  0  0  0  0  0
  155.9451  130.3619  185.4435 C   0  0  0  0  0  0  0  0  0  0  0  0
  156.4063  130.1447  186.7179 C   0  0  0  0  0  0  0  0  0  0  0  0
  157.5529  130.8176  187.1110 C   0  0  0  0  0  0  0  0  0  0  0  0
  158.2159  131.6752  186.2660 C   0  0  0  0  0  0  0  0  0  0  0  0
  157.7035  131.8630  184.9716 C   0  0  0  0  0  0  0  0  0  0  0  0
  158.0575  130.5842  188.4842 C   0  0  0  0  0  0  0  0  0  0  0  0
  159.0556  131.6594  188.8215 C   0  0  0  0  0  0  0  0  0  0  0  0
  159.4608  131.5915  190.2940 C   0  0  0  0  0  0  0  0  0  0  0  0
  158.3433  131.6023  191.1652 N   0  0  0  0  0  0  0  0  0  0  0  0
  157.0729  131.5202  190.5458 C   0  0  0  0  0  0  0  0  0  0  0  0
  156.9339  130.4903  189.4647 C   0  0  0  0  0  0  0  0  0  0  0  0
  158.5341  130.9989  192.4192 C   0  0  0  0  0  0  0  0  0  0  0  0
  157.3738  130.2185  192.9766 C   0  0  0  0  0  0  0  0  0  0  0  0
  157.4308  130.3853  194.5007 C   0  0  0  0  0  0  0  0  0  0  0  0
  158.8762  130.8588  194.7080 C   0  0  0  0  0  0  0  0  0  0  0  0
  158.9364  131.8738  193.5506 C   0  0  0  0  0  0  0  0  0  0  0  0
 22 23  1  0  0  0
 23 24  2  0  0  0
 23  1  1  0  0  0
  1  2  2  0  0  0
  2  3  1  0  0  0
  3  4  2  0  0  0
  4  5  1  0  0  0
  5  6  2  0  0  0
  6 27  1  0  0  0
 27 29  1  0  0  0
 29 30  2  0  0  0
 30 31  1  0  0  0
 31 32  2  0  0  0
 32 33  1  0  0  0
 33 34  2  0  0  0
 32 35  1  0  0  0
 35 36  1  0  0  0
 36 37  1  0  0  0
 37 38  1  0  0  0
 38 39  1  0  0  0
 39 40  1  0  0  0
 38 41  1  0  0  0
 41 42  1  0  0  0
 42 43  1  0  0  0
 43 44  1  0  0  0
 44 45  1  0  0  0
  4  7  1  0  0  0
  7  8  1  0  0  0
  8  9  1  0  0  0
  9 10  1  0  0  0
 10 11  1  0  0  0
 11 12  1  0  0  0
 11 13  1  0  0  0
 13 14  1  0  0  0
 14 15  2  0  0  0
 14 16  1  0  0  0
 16 17  1  0  0  0
 17 18  1  0  0  0
 18 19  1  0  0  0
 19 20  1  0  0  0
  6  1  1  0  0  0
 34 29  1  0  0  0
 40 35  1  0  0  0
 45 41  1  0  0  0
 12  7  1  0  0  0
 20 16  1  0  0  0
 22 25  1  0  0  0
 22 26  1  0  0  0
 27 28  1  0  0  0
 13 21  1  0  0  0
M  END
> <minimizedAffinity>
-5.09662

> <CNNscore>
0.1509396136

> <CNNaffinity>
6.1140341759

> <CNN_VS>
0.9228499532

> <CNNaffinity_variance>
0.0798792094

$$$$
[H]c1nc(C(=O)N([H])[H])c(N([H])c2c([H])c([H])c(C3([H])C([H])([H])C([H])([H])N(C4([H])C([H])([H])C([H])([H])C([H])([H])C4([H])[H])C([H])([H])C3([H])[H])c([H])c2[H])nc1N1C([H])([H])C([H])([H])C([H])([H])[C@@]([H])(N([H])C(=O)N2C([H])([H])C([H])([H])C([H])([H])C2([H])[H])C1([H])[H]


 45 50  0  0  0  0  0  0  0  0999 V2000
  154.0804  140.2877  182.5763 C   0  0  0  0  0  0  0  0  0  0  0  0
  153.3110  140.5899  181.4847 N   0  0  0  0  0  0  0  0  0  0  0  0
  152.2262  139.8924  181.1693 C   0  0  0  0  0  0  0  0  0  0  0  0
  151.8100  138.8157  181.9296 C   0  0  0  0  0  0  0  0  0  0  0  0
  152.5513  138.5240  182.9820 N   0  0  0  0  0  0  0  0  0  0  0  0
  153.6758  139.2185  183.3393 C   0  0  0  0  0  0  0  0  0  0  0  0
  150.6443  138.0678  181.5829 N   0  0  0  0  0  0  0  0  0  0  0  0
  149.9715  138.3111  180.3214 C   0  0  0  0  0  0  0  0  0  0  0  0
  148.6144  138.9179  180.6895 C   0  0  0  0  0  0  0  0  0  0  0  0
  147.8531  137.9529  181.5759 C   0  0  0  0  0  0  0  0  0  0  0  0
  148.6559  137.5259  182.7690 C   0  0  0  0  0  0  0  0  0  0  0  0
  150.0426  137.0546  182.3940 C   0  0  0  0  0  0  0  0  0  0  0  0
  147.9424  136.4857  183.4798 N   0  0  0  0  0  0  0  0  0  0  0  0
  147.5938  135.2908  182.8016 C   0  0  0  0  0  0  0  0  0  0  0  0
  147.8745  135.0750  181.6032 O   0  0  0  0  0  0  0  0  0  0  0  0
  146.8904  134.2924  183.5223 N   0  0  0  0  0  0  0  0  0  0  0  0
  146.4519  132.9949  182.9863 C   0  0  0  0  0  0  0  0  0  0  0  0
  146.7294  132.0655  184.1270 C   0  0  0  0  0  0  0  0  0  0  0  0
  146.7455  132.9143  185.3713 C   0  0  0  0  0  0  0  0  0  0  0  0
  146.4450  134.3091  184.8972 C   0  0  0  0  0  0  0  0  0  0  0  0
  147.7077  136.6530  184.4752 H   0  0  0  0  0  0  0  0  0  0  0  0
  156.3369  141.0552  181.8679 N   0  0  0  0  0  0  0  0  0  0  0  0
  155.2331  141.1357  182.8154 C   0  0  0  0  0  0  0  0  0  0  0  0
  155.4341  141.9430  183.7272 O   0  0  0  0  0  0  0  0  0  0  0  0
  156.2881  141.6792  181.0414 H   0  0  0  0  0  0  0  0  0  0  0  0
  157.1290  140.4208  181.9941 H   0  0  0  0  0  0  0  0  0  0  0  0
  154.4431  138.8209  184.4447 N   0  0  0  0  0  0  0  0  0  0  0  0
  155.4793  138.8667  184.4279 H   0  0  0  0  0  0  0  0  0  0  0  0
  153.8845  138.3327  185.6360 C   0  0  0  0  0  0  0  0  0  0  0  0
  153.8992  136.9499  185.8727 C   0  0  0  0  0  0  0  0  0  0  0  0
  153.4107  136.3863  187.0249 C   0  0  0  0  0  0  0  0  0  0  0  0
  152.8840  137.2369  187.9846 C   0  0  0  0  0  0  0  0  0  0  0  0
  152.8454  138.5988  187.8036 C   0  0  0  0  0  0  0  0  0  0  0  0
  153.3585  139.1263  186.6070 C   0  0  0  0  0  0  0  0  0  0  0  0
  152.3586  136.6345  189.2319 C   0  0  0  0  0  0  0  0  0  0  0  0
  151.1897  135.7509  188.8867 C   0  0  0  0  0  0  0  0  0  0  0  0
  150.7318  134.9446  190.1021 C   0  0  0  0  0  0  0  0  0  0  0  0
  151.7919  134.2233  190.7054 N   0  0  0  0  0  0  0  0  0  0  0  0
  153.0871  134.4809  190.1949 C   0  0  0  0  0  0  0  0  0  0  0  0
  153.4359  135.9242  189.9852 C   0  0  0  0  0  0  0  0  0  0  0  0
  151.6396  133.9314  192.0709 C   0  0  0  0  0  0  0  0  0  0  0  0
  151.9727  135.0351  193.0387 C   0  0  0  0  0  0  0  0  0  0  0  0
  152.5429  134.3567  194.2911 C   0  0  0  0  0  0  0  0  0  0  0  0
  152.0565  132.9119  194.1110 C   0  0  0  0  0  0  0  0  0  0  0  0
  152.3805  132.7629  192.6122 C   0  0  0  0  0  0  0  0  0  0  0  0
 22 23  1  0  0  0
 23 24  2  0  0  0
 23  1  1  0  0  0
  1  2  2  0  0  0
  2  3  1  0  0  0
  3  4  2  0  0  0
  4  5  1  0  0  0
  5  6  2  0  0  0
  6 27  1  0  0  0
 27 29  1  0  0  0
 29 30  2  0  0  0
 30 31  1  0  0  0
 31 32  2  0  0  0
 32 33  1  0  0  0
 33 34  2  0  0  0
 32 35  1  0  0  0
 35 36  1  0  0  0
 36 37  1  0  0  0
 37 38  1  0  0  0
 38 39  1  0  0  0
 39 40  1  0  0  0
 38 41  1  0  0  0
 41 42  1  0  0  0
 42 43  1  0  0  0
 43 44  1  0  0  0
 44 45  1  0  0  0
  4  7  1  0  0  0
  7  8  1  0  0  0
  8  9  1  0  0  0
  9 10  1  0  0  0
 10 11  1  0  0  0
 11 12  1  0  0  0
 11 13  1  0  0  0
 13 14  1  0  0  0
 14 15  2  0  0  0
 14 16  1  0  0  0
 16 17  1  0  0  0
 17 18  1  0  0  0
 18 19  1  0  0  0
 19 20  1  0  0  0
  6  1  1  0  0  0
 34 29  1  0  0  0
 40 35  1  0  0  0
 45 41  1  0  0  0
 12  7  1  0  0  0
 20 16  1  0  0  0
 22 25  1  0  0  0
 22 26  1  0  0  0
 27 28  1  0  0  0
 13 21  1  0  0  0
M  END
> <minimizedAffinity>
-6.26560

> <CNNscore>
0.1485080421

> <CNNaffinity>
6.3238849640

> <CNN_VS>
0.9391477704

> <CNNaffinity_variance>
0.0372943580

$$$$
[H]c1nc(C(=O)N([H])[H])c(N([H])c2c([H])c([H])c(C3([H])C([H])([H])C([H])([H])N(C4([H])C([H])([H])C([H])([H])C([H])([H])C4([H])[H])C([H])([H])C3([H])[H])c([H])c2[H])nc1N1C([H])([H])C([H])([H])C([H])([H])[C@@]([H])(N([H])C(=O)N2C([H])([H])C([H])([H])C([H])([H])C2([H])[H])C1([H])[H]


 45 50  0  0  0  0  0  0  0  0999 V2000
  156.0794  132.6832  182.8273 C   0  0  0  0  0  0  0  0  0  0  0  0
  155.4378  132.9116  181.6395 N   0  0  0  0  0  0  0  0  0  0  0  0
  154.3472  133.6644  181.5583 C   0  0  0  0  0  0  0  0  0  0  0  0
  153.7951  134.2637  182.6749 C   0  0  0  0  0  0  0  0  0  0  0  0
  154.4134  134.0439  183.8201 N   0  0  0  0  0  0  0  0  0  0  0  0
  155.5387  133.2741  183.9442 C   0  0  0  0  0  0  0  0  0  0  0  0
  152.6202  135.0694  182.5811 N   0  0  0  0  0  0  0  0  0  0  0  0
  152.5576  136.1572  181.6239 C   0  0  0  0  0  0  0  0  0  0  0  0
  152.5185  137.4394  182.4606 C   0  0  0  0  0  0  0  0  0  0  0  0
  151.3143  137.4062  183.3802 C   0  0  0  0  0  0  0  0  0  0  0  0
  151.2675  136.1557  184.2073 C   0  0  0  0  0  0  0  0  0  0  0  0
  151.4417  134.9054  183.3753 C   0  0  0  0  0  0  0  0  0  0  0  0
  150.0172  136.1091  184.9359 N   0  0  0  0  0  0  0  0  0  0  0  0
  150.0103  135.6621  186.2811 C   0  0  0  0  0  0  0  0  0  0  0  0
  151.0403  135.3019  186.8899 O   0  0  0  0  0  0  0  0  0  0  0  0
  148.7698  135.6222  186.9672 N   0  0  0  0  0  0  0  0  0  0  0  0
  148.5724  135.1922  188.3598 C   0  0  0  0  0  0  0  0  0  0  0  0
  147.5645  136.1794  188.8611 C   0  0  0  0  0  0  0  0  0  0  0  0
  146.8451  136.7051  187.6466 C   0  0  0  0  0  0  0  0  0  0  0  0
  147.4532  135.9713  186.4838 C   0  0  0  0  0  0  0  0  0  0  0  0
  149.1573  136.4090  184.4415 H   0  0  0  0  0  0  0  0  0  0  0  0
  157.8058  131.5257  181.4625 N   0  0  0  0  0  0  0  0  0  0  0  0
  157.2671  131.8512  182.7764 C   0  0  0  0  0  0  0  0  0  0  0  0
  157.9161  131.3577  183.7031 O   0  0  0  0  0  0  0  0  0  0  0  0
  158.4885  132.1940  181.0601 H   0  0  0  0  0  0  0  0  0  0  0  0
  157.5359  130.6847  180.9470 H   0  0  0  0  0  0  0  0  0  0  0  0
  156.1148  133.0439  185.2028 N   0  0  0  0  0  0  0  0  0  0  0  0
  156.9819  132.4840  185.3059 H   0  0  0  0  0  0  0  0  0  0  0  0
  155.5735  133.5360  186.4005 C   0  0  0  0  0  0  0  0  0  0  0  0
  154.5850  132.7852  187.0543 C   0  0  0  0  0  0  0  0  0  0  0  0
  154.0265  133.1685  188.2481 C   0  0  0  0  0  0  0  0  0  0  0  0
  154.4717  134.3519  188.8166 C   0  0  0  0  0  0  0  0  0  0  0  0
  155.4379  135.1251  188.2185 C   0  0  0  0  0  0  0  0  0  0  0  0
  155.9783  134.6888  186.9975 C   0  0  0  0  0  0  0  0  0  0  0  0
  153.8751  134.7688  190.1070 C   0  0  0  0  0  0  0  0  0  0  0  0
  154.1248  136.2405  190.3018 C   0  0  0  0  0  0  0  0  0  0  0  0
  153.3610  136.7723  191.5146 C   0  0  0  0  0  0  0  0  0  0  0  0
  151.9791  136.4632  191.4637 N   0  0  0  0  0  0  0  0  0  0  0  0
  151.5730  135.6077  190.4111 C   0  0  0  0  0  0  0  0  0  0  0  0
  152.4293  134.3987  190.1791 C   0  0  0  0  0  0  0  0  0  0  0  0
  151.3188  136.3873  192.7011 C   0  0  0  0  0  0  0  0  0  0  0  0
  152.1634  136.0365  193.8968 C   0  0  0  0  0  0  0  0  0  0  0  0
  151.2651  135.2255  194.8397 C   0  0  0  0  0  0  0  0  0  0  0  0
  149.8658  135.5788  194.3167 C   0  0  0  0  0  0  0  0  0  0  0  0
  150.1643  135.4586  192.8101 C   0  0  0  0  0  0  0  0  0  0  0  0
 22 23  1  0  0  0
 23 24  2  0  0  0
 23  1  1  0  0  0
  1  2  2  0  0  0
  2  3  1  0  0  0
  3  4  2  0  0  0
  4  5  1  0  0  0
  5  6  2  0  0  0
  6 27  1  0  0  0
 27 29  1  0  0  0
 29 30  2  0  0  0
 30 31  1  0  0  0
 31 32  2  0  0  0
 32 33  1  0  0  0
 33 34  2  0  0  0
 32 35  1  0  0  0
 35 36  1  0  0  0
 36 37  1  0  0  0
 37 38  1  0  0  0
 38 39  1  0  0  0
 39 40  1  0  0  0
 38 41  1  0  0  0
 41 42  1  0  0  0
 42 43  1  0  0  0
 43 44  1  0  0  0
 44 45  1  0  0  0
  4  7  1  0  0  0
  7  8  1  0  0  0
  8  9  1  0  0  0
  9 10  1  0  0  0
 10 11  1  0  0  0
 11 12  1  0  0  0
 11 13  1  0  0  0
 13 14  1  0  0  0
 14 15  2  0  0  0
 14 16  1  0  0  0
 16 17  1  0  0  0
 17 18  1  0  0  0
 18 19  1  0  0  0
 19 20  1  0  0  0
  6  1  1  0  0  0
 34 29  1  0  0  0
 40 35  1  0  0  0
 45 41  1  0  0  0
 12  7  1  0  0  0
 20 16  1  0  0  0
 22 25  1  0  0  0
 22 26  1  0  0  0
 27 28  1  0  0  0
 13 21  1  0  0  0
M  END
> <minimizedAffinity>
-5.20165

> <CNNscore>
0.1354095936

> <CNNaffinity>
6.0083017349

> <CNN_VS>
0.8135817051

> <CNNaffinity_variance>
0.3096578717

$$$$
[H]c1nc(C(=O)N([H])[H])c(N([H])c2c([H])c([H])c(C3([H])C([H])([H])C([H])([H])N(C4([H])C([H])([H])C([H])([H])C([H])([H])C4([H])[H])C([H])([H])C3([H])[H])c([H])c2[H])nc1N1C([H])([H])C([H])([H])C([H])([H])[C@@]([H])(N([H])C(=O)N2C([H])([H])C([H])([H])C([H])([H])C2([H])[H])C1([H])[H]


 45 50  0  0  0  0  0  0  0  0999 V2000
  158.0538  132.5513  187.0391 C   0  0  0  0  0  0  0  0  0  0  0  0
  158.5322  133.1567  188.1702 N   0  0  0  0  0  0  0  0  0  0  0  0
  157.8705  134.1298  188.7852 C   0  0  0  0  0  0  0  0  0  0  0  0
  156.6543  134.5888  188.3156 C   0  0  0  0  0  0  0  0  0  0  0  0
  156.1927  134.0054  187.2252 N   0  0  0  0  0  0  0  0  0  0  0  0
  156.8452  133.0003  186.5632 C   0  0  0  0  0  0  0  0  0  0  0  0
  155.9495  135.6378  188.9798 N   0  0  0  0  0  0  0  0  0  0  0  0
  156.2798  137.0234  188.7074 C   0  0  0  0  0  0  0  0  0  0  0  0
  156.8878  137.5640  190.0050 C   0  0  0  0  0  0  0  0  0  0  0  0
  155.8852  137.4177  191.1320 C   0  0  0  0  0  0  0  0  0  0  0  0
  155.3733  136.0132  191.2561 C   0  0  0  0  0  0  0  0  0  0  0  0
  154.9004  135.4515  189.9345 C   0  0  0  0  0  0  0  0  0  0  0  0
  154.3054  135.9766  192.2331 N   0  0  0  0  0  0  0  0  0  0  0  0
  152.9960  136.3612  191.8496 C   0  0  0  0  0  0  0  0  0  0  0  0
  152.7010  136.7342  190.6941 O   0  0  0  0  0  0  0  0  0  0  0  0
  151.9719  136.3203  192.8297 N   0  0  0  0  0  0  0  0  0  0  0  0
  150.5618  136.6783  192.6135 C   0  0  0  0  0  0  0  0  0  0  0  0
  149.8396  135.6298  193.4015 C   0  0  0  0  0  0  0  0  0  0  0  0
  150.8134  135.1316  194.4371 C   0  0  0  0  0  0  0  0  0  0  0  0
  152.0618  135.9413  194.2216 C   0  0  0  0  0  0  0  0  0  0  0  0
  154.5384  135.6654  193.1936 H   0  0  0  0  0  0  0  0  0  0  0  0
  160.3078  131.5598  186.6937 N   0  0  0  0  0  0  0  0  0  0  0  0
  158.8694  131.4937  186.4720 C   0  0  0  0  0  0  0  0  0  0  0  0
  158.5253  130.5122  185.8074 O   0  0  0  0  0  0  0  0  0  0  0  0
  160.6672  131.1134  187.5576 H   0  0  0  0  0  0  0  0  0  0  0  0
  160.9474  132.0195  186.0415 H   0  0  0  0  0  0  0  0  0  0  0  0
  156.3173  132.4598  185.3808 N   0  0  0  0  0  0  0  0  0  0  0  0
  156.5197  131.4832  185.0956 H   0  0  0  0  0  0  0  0  0  0  0  0
  155.4952  133.1822  184.5022 C   0  0  0  0  0  0  0  0  0  0  0  0
  154.3882  133.8690  185.0229 C   0  0  0  0  0  0  0  0  0  0  0  0
  153.5518  134.6313  184.2461 C   0  0  0  0  0  0  0  0  0  0  0  0
  153.8296  134.7137  182.8904 C   0  0  0  0  0  0  0  0  0  0  0  0
  154.9011  134.0612  182.3289 C   0  0  0  0  0  0  0  0  0  0  0  0
  155.7272  133.2942  183.1670 C   0  0  0  0  0  0  0  0  0  0  0  0
  152.9324  135.5379  182.0475 C   0  0  0  0  0  0  0  0  0  0  0  0
  151.5615  134.9161  182.0494 C   0  0  0  0  0  0  0  0  0  0  0  0
  150.5431  135.8275  181.3643 C   0  0  0  0  0  0  0  0  0  0  0  0
  150.5400  137.1384  181.9022 N   0  0  0  0  0  0  0  0  0  0  0  0
  151.5539  137.4232  182.8484 C   0  0  0  0  0  0  0  0  0  0  0  0
  152.9360  136.9654  182.4890 C   0  0  0  0  0  0  0  0  0  0  0  0
  150.1026  138.1571  181.0397 C   0  0  0  0  0  0  0  0  0  0  0  0
  149.0488  137.7827  180.0322 C   0  0  0  0  0  0  0  0  0  0  0  0
  149.3222  138.6304  178.7829 C   0  0  0  0  0  0  0  0  0  0  0  0
  150.2178  139.7406  179.3502 C   0  0  0  0  0  0  0  0  0  0  0  0
  151.1283  138.8554  180.2226 C   0  0  0  0  0  0  0  0  0  0  0  0
 22 23  1  0  0  0
 23 24  2  0  0  0
 23  1  1  0  0  0
  1  2  2  0  0  0
  2  3  1  0  0  0
  3  4  2  0  0  0
  4  5  1  0  0  0
  5  6  2  0  0  0
  6 27  1  0  0  0
 27 29  1  0  0  0
 29 30  2  0  0  0
 30 31  1  0  0  0
 31 32  2  0  0  0
 32 33  1  0  0  0
 33 34  2  0  0  0
 32 35  1  0  0  0
 35 36  1  0  0  0
 36 37  1  0  0  0
 37 38  1  0  0  0
 38 39  1  0  0  0
 39 40  1  0  0  0
 38 41  1  0  0  0
 41 42  1  0  0  0
 42 43  1  0  0  0
 43 44  1  0  0  0
 44 45  1  0  0  0
  4  7  1  0  0  0
  7  8  1  0  0  0
  8  9  1  0  0  0
  9 10  1  0  0  0
 10 11  1  0  0  0
 11 12  1  0  0  0
 11 13  1  0  0  0
 13 14  1  0  0  0
 14 15  2  0  0  0
 14 16  1  0  0  0
 16 17  1  0  0  0
 17 18  1  0  0  0
 18 19  1  0  0  0
 19 20  1  0  0  0
  6  1  1  0  0  0
 34 29  1  0  0  0
 40 35  1  0  0  0
 45 41  1  0  0  0
 12  7  1  0  0  0
 20 16  1  0  0  0
 22 25  1  0  0  0
 22 26  1  0  0  0
 27 28  1  0  0  0
 13 21  1  0  0  0
M  END
> <minimizedAffinity>
-7.17529

> <CNNscore>
0.1340518743

> <CNNaffinity>
5.9824228287

> <CNN_VS>
0.8019549847

> <CNNaffinity_variance>
0.0396373942

$$$$
[H]c1nc(C(=O)N([H])[H])c(N([H])c2c([H])c([H])c(C3([H])C([H])([H])C([H])([H])N(C4([H])C([H])([H])C([H])([H])C([H])([H])C4([H])[H])C([H])([H])C3([H])[H])c([H])c2[H])nc1N1C([H])([H])C([H])([H])C([H])([H])[C@@]([H])(N([H])C(=O)N2C([H])([H])C([H])([H])C([H])([H])C2([H])[H])C1([H])[H]


 45 50  0  0  0  0  0  0  0  0999 V2000
  154.7075  140.4818  182.7146 C   0  0  0  0  0  0  0  0  0  0  0  0
  153.7955  140.8032  181.7452 N   0  0  0  0  0  0  0  0  0  0  0  0
  152.6687  140.1206  181.5803 C   0  0  0  0  0  0  0  0  0  0  0  0
  152.3509  139.0409  182.3827 C   0  0  0  0  0  0  0  0  0  0  0  0
  153.2298  138.7308  183.3174 N   0  0  0  0  0  0  0  0  0  0  0  0
  154.4017  139.4095  183.5181 C   0  0  0  0  0  0  0  0  0  0  0  0
  151.1391  138.3091  182.1978 N   0  0  0  0  0  0  0  0  0  0  0  0
  150.3103  138.5550  181.0334 C   0  0  0  0  0  0  0  0  0  0  0  0
  149.0221  139.1851  181.5712 C   0  0  0  0  0  0  0  0  0  0  0  0
  148.3697  138.2375  182.5576 C   0  0  0  0  0  0  0  0  0  0  0  0
  149.3157  137.8055  183.6386 C   0  0  0  0  0  0  0  0  0  0  0  0
  150.6342  137.3104  183.0890 C   0  0  0  0  0  0  0  0  0  0  0  0
  148.6864  136.7809  184.4453 N   0  0  0  0  0  0  0  0  0  0  0  0
  149.0066  136.6834  185.8227 C   0  0  0  0  0  0  0  0  0  0  0  0
  149.8132  137.4467  186.3954 O   0  0  0  0  0  0  0  0  0  0  0  0
  148.3786  135.6665  186.5859 N   0  0  0  0  0  0  0  0  0  0  0  0
  148.5851  135.4186  188.0208 C   0  0  0  0  0  0  0  0  0  0  0  0
  147.2009  135.0999  188.4944 C   0  0  0  0  0  0  0  0  0  0  0  0
  146.4374  134.6265  187.2853 C   0  0  0  0  0  0  0  0  0  0  0  0
  147.4301  134.6640  186.1566 C   0  0  0  0  0  0  0  0  0  0  0  0
  148.0131  136.1447  183.9809 H   0  0  0  0  0  0  0  0  0  0  0  0
  156.6492  141.5314  181.5695 N   0  0  0  0  0  0  0  0  0  0  0  0
  155.8926  141.3150  182.7957 C   0  0  0  0  0  0  0  0  0  0  0  0
  156.3788  141.8896  183.7739 O   0  0  0  0  0  0  0  0  0  0  0  0
  156.3591  142.3319  180.9781 H   0  0  0  0  0  0  0  0  0  0  0  0
  157.4303  140.9340  181.2890 H   0  0  0  0  0  0  0  0  0  0  0  0
  155.3126  138.9926  184.5007 N   0  0  0  0  0  0  0  0  0  0  0  0
  156.3283  138.9238  184.3017 H   0  0  0  0  0  0  0  0  0  0  0  0
  154.9320  138.6355  185.8035 C   0  0  0  0  0  0  0  0  0  0  0  0
  153.5885  138.7833  186.1797 C   0  0  0  0  0  0  0  0  0  0  0  0
  153.1183  138.4250  187.4185 C   0  0  0  0  0  0  0  0  0  0  0  0
  154.0257  137.8959  188.3233 C   0  0  0  0  0  0  0  0  0  0  0  0
  155.3527  137.7294  188.0060 C   0  0  0  0  0  0  0  0  0  0  0  0
  155.7838  138.1114  186.7248 C   0  0  0  0  0  0  0  0  0  0  0  0
  153.5231  137.5040  189.6607 C   0  0  0  0  0  0  0  0  0  0  0  0
  152.4064  136.5100  189.4849 C   0  0  0  0  0  0  0  0  0  0  0  0
  151.9825  135.9157  190.8282 C   0  0  0  0  0  0  0  0  0  0  0  0
  153.0747  135.3756  191.5514 N   0  0  0  0  0  0  0  0  0  0  0  0
  154.3584  135.6056  191.0002 C   0  0  0  0  0  0  0  0  0  0  0  0
  154.6309  137.0030  190.5293 C   0  0  0  0  0  0  0  0  0  0  0  0
  152.9271  135.3303  192.9475 C   0  0  0  0  0  0  0  0  0  0  0  0
  152.7106  133.9724  193.5600 C   0  0  0  0  0  0  0  0  0  0  0  0
  151.7982  134.1849  194.7751 C   0  0  0  0  0  0  0  0  0  0  0  0
  151.9513  135.6927  195.0191 C   0  0  0  0  0  0  0  0  0  0  0  0
  151.8519  136.1573  193.5536 C   0  0  0  0  0  0  0  0  0  0  0  0
 22 23  1  0  0  0
 23 24  2  0  0  0
 23  1  1  0  0  0
  1  2  2  0  0  0
  2  3  1  0  0  0
  3  4  2  0  0  0
  4  5  1  0  0  0
  5  6  2  0  0  0
  6 27  1  0  0  0
 27 29  1  0  0  0
 29 30  2  0  0  0
 30 31  1  0  0  0
 31 32  2  0  0  0
 32 33  1  0  0  0
 33 34  2  0  0  0
 32 35  1  0  0  0
 35 36  1  0  0  0
 36 37  1  0  0  0
 37 38  1  0  0  0
 38 39  1  0  0  0
 39 40  1  0  0  0
 38 41  1  0  0  0
 41 42  1  0  0  0
 42 43  1  0  0  0
 43 44  1  0  0  0
 44 45  1  0  0  0
  4  7  1  0  0  0
  7  8  1  0  0  0
  8  9  1  0  0  0
  9 10  1  0  0  0
 10 11  1  0  0  0
 11 12  1  0  0  0
 11 13  1  0  0  0
 13 14  1  0  0  0
 14 15  2  0  0  0
 14 16  1  0  0  0
 16 17  1  0  0  0
 17 18  1  0  0  0
 18 19  1  0  0  0
 19 20  1  0  0  0
  6  1  1  0  0  0
 34 29  1  0  0  0
 40 35  1  0  0  0
 45 41  1  0  0  0
 12  7  1  0  0  0
 20 16  1  0  0  0
 22 25  1  0  0  0
 22 26  1  0  0  0
 27 28  1  0  0  0
 13 21  1  0  0  0
M  END
> <minimizedAffinity>
-8.54626

> <CNNscore>
0.1308690161

> <CNNaffinity>
6.2859048843

> <CNN_VS>
0.8226301670

> <CNNaffinity_variance>
0.3843043745

$$$$
[H]c1nc(C(=O)N([H])[H])c(N([H])c2c([H])c([H])c(C3([H])C([H])([H])C([H])([H])N(C4([H])C([H])([H])C([H])([H])C([H])([H])C4([H])[H])C([H])([H])C3([H])[H])c([H])c2[H])nc1N1C([H])([H])C([H])([H])C([H])([H])[C@@]([H])(N([H])C(=O)N2C([H])([H])C([H])([H])C([H])([H])C2([H])[H])C1([H])[H]


 45 50  0  0  0  0  0  0  0  0999 V2000
  154.1663  140.1320  182.7010 C   0  0  0  0  0  0  0  0  0  0  0  0
  153.2889  140.6956  181.8138 N   0  0  0  0  0  0  0  0  0  0  0  0
  152.1185  140.1386  181.5263 C   0  0  0  0  0  0  0  0  0  0  0  0
  151.7175  138.9515  182.1100 C   0  0  0  0  0  0  0  0  0  0  0  0
  152.5631  138.4079  182.9654 N   0  0  0  0  0  0  0  0  0  0  0  0
  153.7779  138.9511  183.2871 C   0  0  0  0  0  0  0  0  0  0  0  0
  150.4590  138.3562  181.7938 N   0  0  0  0  0  0  0  0  0  0  0  0
  149.2726  138.7187  182.5451 C   0  0  0  0  0  0  0  0  0  0  0  0
  148.8778  137.4597  183.3228 C   0  0  0  0  0  0  0  0  0  0  0  0
  148.6245  136.3244  182.3514 C   0  0  0  0  0  0  0  0  0  0  0  0
  149.7795  136.1085  181.4189 C   0  0  0  0  0  0  0  0  0  0  0  0
  150.2393  137.3901  180.7618 C   0  0  0  0  0  0  0  0  0  0  0  0
  149.4108  135.1299  180.4175 N   0  0  0  0  0  0  0  0  0  0  0  0
  149.9751  133.8306  180.4714 C   0  0  0  0  0  0  0  0  0  0  0  0
  150.7856  133.4704  181.3516 O   0  0  0  0  0  0  0  0  0  0  0  0
  149.5993  132.8954  179.4738 N   0  0  0  0  0  0  0  0  0  0  0  0
  150.0780  131.5083  179.3735 C   0  0  0  0  0  0  0  0  0  0  0  0
  148.8386  130.7686  178.9752 C   0  0  0  0  0  0  0  0  0  0  0  0
  147.9291  131.7814  178.3302 C   0  0  0  0  0  0  0  0  0  0  0  0
  148.6999  133.0720  178.3564 C   0  0  0  0  0  0  0  0  0  0  0  0
  148.7367  135.4172  179.6849 H   0  0  0  0  0  0  0  0  0  0  0  0
  156.1395  141.3239  181.7689 N   0  0  0  0  0  0  0  0  0  0  0  0
  155.4064  140.8483  182.9346 C   0  0  0  0  0  0  0  0  0  0  0  0
  155.9583  141.1280  184.0026 O   0  0  0  0  0  0  0  0  0  0  0  0
  155.8865  142.2632  181.4105 H   0  0  0  0  0  0  0  0  0  0  0  0
  156.8705  140.7731  181.3127 H   0  0  0  0  0  0  0  0  0  0  0  0
  154.6473  138.2915  184.1691 N   0  0  0  0  0  0  0  0  0  0  0  0
  155.6389  138.1161  183.9202 H   0  0  0  0  0  0  0  0  0  0  0  0
  154.2539  137.8189  185.4307 C   0  0  0  0  0  0  0  0  0  0  0  0
  154.3565  136.4459  185.7003 C   0  0  0  0  0  0  0  0  0  0  0  0
  154.0313  135.8995  186.9169 C   0  0  0  0  0  0  0  0  0  0  0  0
  153.5841  136.7580  187.9093 C   0  0  0  0  0  0  0  0  0  0  0  0
  153.4653  138.1110  187.6982 C   0  0  0  0  0  0  0  0  0  0  0  0
  153.8112  138.6207  186.4357 C   0  0  0  0  0  0  0  0  0  0  0  0
  153.2352  136.1744  189.2255 C   0  0  0  0  0  0  0  0  0  0  0  0
  154.2835  135.1603  189.5976 C   0  0  0  0  0  0  0  0  0  0  0  0
  154.0901  134.6705  191.0328 C   0  0  0  0  0  0  0  0  0  0  0  0
  154.0173  135.7357  191.9644 N   0  0  0  0  0  0  0  0  0  0  0  0
  153.9810  137.0397  191.4143 C   0  0  0  0  0  0  0  0  0  0  0  0
  153.0485  137.2392  190.2570 C   0  0  0  0  0  0  0  0  0  0  0  0
  153.3081  135.4717  193.1478 C   0  0  0  0  0  0  0  0  0  0  0  0
  152.6933  134.1036  193.2757 C   0  0  0  0  0  0  0  0  0  0  0  0
  151.3985  134.2831  194.0789 C   0  0  0  0  0  0  0  0  0  0  0  0
  151.6248  135.6540  194.7316 C   0  0  0  0  0  0  0  0  0  0  0  0
  152.1912  136.3859  193.5000 C   0  0  0  0  0  0  0  0  0  0  0  0
 22 23  1  0  0  0
 23 24  2  0  0  0
 23  1  1  0  0  0
  1  2  2  0  0  0
  2  3  1  0  0  0
  3  4  2  0  0  0
  4  5  1  0  0  0
  5  6  2  0  0  0
  6 27  1  0  0  0
 27 29  1  0  0  0
 29 30  2  0  0  0
 30 31  1  0  0  0
 31 32  2  0  0  0
 32 33  1  0  0  0
 33 34  2  0  0  0
 32 35  1  0  0  0
 35 36  1  0  0  0
 36 37  1  0  0  0
 37 38  1  0  0  0
 38 39  1  0  0  0
 39 40  1  0  0  0
 38 41  1  0  0  0
 41 42  1  0  0  0
 42 43  1  0  0  0
 43 44  1  0  0  0
 44 45  1  0  0  0
  4  7  1  0  0  0
  7  8  1  0  0  0
  8  9  1  0  0  0
  9 10  1  0  0  0
 10 11  1  0  0  0
 11 12  1  0  0  0
 11 13  1  0  0  0
 13 14  1  0  0  0
 14 15  2  0  0  0
 14 16  1  0  0  0
 16 17  1  0  0  0
 17 18  1  0  0  0
 18 19  1  0  0  0
 19 20  1  0  0  0
  6  1  1  0  0  0
 34 29  1  0  0  0
 40 35  1  0  0  0
 45 41  1  0  0  0
 12  7  1  0  0  0
 20 16  1  0  0  0
 22 25  1  0  0  0
 22 26  1  0  0  0
 27 28  1  0  0  0
 13 21  1  0  0  0
M  END
> <minimizedAffinity>
-6.79809

> <CNNscore>
0.1277307272

> <CNNaffinity>
6.0556983948

> <CNN_VS>
0.7734987736

> <CNNaffinity_variance>
0.0539790280

$$$$
[H]OC(=O)c1nc(C(=O)c2c([H])c([H])c([H])c([H])c2[H])c2c([H])c(O[H])c(O[H])c([H])c2c1[H]


 26 28  0  0  0  0  0  0  0  0999 V2000
  154.6257  139.0403  184.5830 C   0  0  0  0  0  0  0  0  0  0  0  0
  153.6431  138.3004  183.9451 C   0  0  0  0  0  0  0  0  0  0  0  0
  152.9915  138.8333  182.8513 C   0  0  0  0  0  0  0  0  0  0  0  0
  152.0114  138.0869  182.2082 C   0  0  0  0  0  0  0  0  0  0  0  0
  151.3647  138.6036  181.1136 C   0  0  0  0  0  0  0  0  0  0  0  0
  150.3637  137.9025  180.4148 O   0  0  0  0  0  0  0  0  0  0  0  0
  151.7295  139.8616  180.7012 C   0  0  0  0  0  0  0  0  0  0  0  0
  151.1026  140.4092  179.6087 O   0  0  0  0  0  0  0  0  0  0  0  0
  152.7149  140.6116  181.3492 C   0  0  0  0  0  0  0  0  0  0  0  0
  153.3598  140.1089  182.4356 C   0  0  0  0  0  0  0  0  0  0  0  0
  154.3395  140.8526  183.0699 C   0  0  0  0  0  0  0  0  0  0  0  0
  154.9464  140.2661  184.1454 N   0  0  0  0  0  0  0  0  0  0  0  0
  150.0915  136.9781  180.7130 H   0  0  0  0  0  0  0  0  0  0  0  0
  151.3704  141.3407  179.3036 H   0  0  0  0  0  0  0  0  0  0  0  0
  154.6521  137.4723  186.4831 O   0  0  0  0  0  0  0  0  0  0  0  0
  155.2852  138.4435  185.7318 C   0  0  0  0  0  0  0  0  0  0  0  0
  156.4308  138.8118  186.0399 O   0  0  0  0  0  0  0  0  0  0  0  0
  154.7724  137.3819  187.4912 H   0  0  0  0  0  0  0  0  0  0  0  0
  154.7130  142.2145  182.6928 C   0  0  0  0  0  0  0  0  0  0  0  0
  153.8659  143.1328  182.8716 O   0  0  0  0  0  0  0  0  0  0  0  0
  156.0060  142.5627  182.1348 C   0  0  0  0  0  0  0  0  0  0  0  0
  156.7999  141.7115  181.4003 C   0  0  0  0  0  0  0  0  0  0  0  0
  158.0176  142.1514  180.8961 C   0  0  0  0  0  0  0  0  0  0  0  0
  158.4414  143.4419  181.1295 C   0  0  0  0  0  0  0  0  0  0  0  0
  157.6756  144.3142  181.8590 C   0  0  0  0  0  0  0  0  0  0  0  0
  156.4672  143.8674  182.3533 C   0  0  0  0  0  0  0  0  0  0  0  0
 15 16  1  0  0  0
 16 17  2  0  0  0
 16  1  1  0  0  0
  1  2  2  0  0  0
  2  3  1  0  0  0
  3  4  2  0  0  0
  4  5  1  0  0  0
  5  6  1  0  0  0
  5  7  2  0  0  0
  7  8  1  0  0  0
  7  9  1  0  0  0
  9 10  2  0  0  0
 10 11  1  0  0  0
 11 12  2  0  0  0
 11 19  1  0  0  0
 19 20  2  0  0  0
 19 21  1  0  0  0
 21 22  2  0  0  0
 22 23  1  0  0  0
 23 24  2  0  0  0
 24 25  1  0  0  0
 25 26  2  0  0  0
 12  1  1  0  0  0
 26 21  1  0  0  0
 10  3  1  0  0  0
 15 18  1  0  0  0
  6 13  1  0  0  0
  8 14  1  0  0  0
M  END
> <minimizedAffinity>
-7.66825

> <CNNscore>
0.4666419625

> <CNNaffinity>
5.0265331268

> <CNN_VS>
2.3455913067

> <CNNaffinity_variance>
0.1686933488

$$$$
[H]OC(=O)c1nc(C(=O)c2c([H])c([H])c([H])c([H])c2[H])c2c([H])c(O[H])c(O[H])c([H])c2c1[H]


 26 28  0  0  0  0  0  0  0  0999 V2000
  154.2549  141.0407  182.8463 C   0  0  0  0  0  0  0  0  0  0  0  0
  153.3188  141.0682  181.8252 C   0  0  0  0  0  0  0  0  0  0  0  0
  152.5038  139.9736  181.6187 C   0  0  0  0  0  0  0  0  0  0  0  0
  151.5603  140.0058  180.5988 C   0  0  0  0  0  0  0  0  0  0  0  0
  150.7381  138.9267  180.3918 C   0  0  0  0  0  0  0  0  0  0  0  0
  149.7614  138.8923  179.3786 O   0  0  0  0  0  0  0  0  0  0  0  0
  150.8947  137.8457  181.2241 C   0  0  0  0  0  0  0  0  0  0  0  0
  150.0881  136.7485  181.0450 O   0  0  0  0  0  0  0  0  0  0  0  0
  151.8442  137.8143  182.2492 C   0  0  0  0  0  0  0  0  0  0  0  0
  152.6645  138.8779  182.4608 C   0  0  0  0  0  0  0  0  0  0  0  0
  153.5988  138.8447  183.4813 C   0  0  0  0  0  0  0  0  0  0  0  0
  154.3729  139.9614  183.6324 N   0  0  0  0  0  0  0  0  0  0  0  0
  149.6418  139.6832  178.7641 H   0  0  0  0  0  0  0  0  0  0  0  0
  150.2040  135.9474  181.6592 H   0  0  0  0  0  0  0  0  0  0  0  0
  156.1135  142.4950  182.1390 O   0  0  0  0  0  0  0  0  0  0  0  0
  155.0945  142.2123  183.0280 C   0  0  0  0  0  0  0  0  0  0  0  0
  154.8922  142.9670  183.9937 O   0  0  0  0  0  0  0  0  0  0  0  0
  156.9955  142.9215  182.4204 H   0  0  0  0  0  0  0  0  0  0  0  0
  153.8302  137.6913  184.3486 C   0  0  0  0  0  0  0  0  0  0  0  0
  154.2731  136.6330  183.8225 O   0  0  0  0  0  0  0  0  0  0  0  0
  153.5862  137.7053  185.7786 C   0  0  0  0  0  0  0  0  0  0  0  0
  154.3947  138.3196  186.7076 C   0  0  0  0  0  0  0  0  0  0  0  0
  154.0604  138.2874  188.0559 C   0  0  0  0  0  0  0  0  0  0  0  0
  152.9188  137.6380  188.4739 C   0  0  0  0  0  0  0  0  0  0  0  0
  152.0934  137.0143  187.5745 C   0  0  0  0  0  0  0  0  0  0  0  0
  152.4340  137.0542  186.2377 C   0  0  0  0  0  0  0  0  0  0  0  0
 15 16  1  0  0  0
 16 17  2  0  0  0
 16  1  1  0  0  0
  1  2  2  0  0  0
  2  3  1  0  0  0
  3  4  2  0  0  0
  4  5  1  0  0  0
  5  6  1  0  0  0
  5  7  2  0  0  0
  7  8  1  0  0  0
  7  9  1  0  0  0
  9 10  2  0  0  0
 10 11  1  0  0  0
 11 12  2  0  0  0
 11 19  1  0  0  0
 19 20  2  0  0  0
 19 21  1  0  0  0
 21 22  2  0  0  0
 22 23  1  0  0  0
 23 24  2  0  0  0
 24 25  1  0  0  0
 25 26  2  0  0  0
 12  1  1  0  0  0
 26 21  1  0  0  0
 10  3  1  0  0  0
 15 18  1  0  0  0
  6 13  1  0  0  0
  8 14  1  0  0  0
M  END
> <minimizedAffinity>
-6.87843

> <CNNscore>
0.4360803366

> <CNNaffinity>
4.7544636726

> <CNN_VS>
2.0733280182

> <CNNaffinity_variance>
0.1068000644

$$$$
[H]OC(=O)c1nc(C(=O)c2c([H])c([H])c([H])c([H])c2[H])c2c([H])c(O[H])c(O[H])c([H])c2c1[H]


 26 28  0  0  0  0  0  0  0  0999 V2000
  152.5698  139.9082  181.4604 C   0  0  0  0  0  0  0  0  0  0  0  0
  152.5964  138.8136  182.3095 C   0  0  0  0  0  0  0  0  0  0  0  0
  153.5303  138.7615  183.3244 C   0  0  0  0  0  0  0  0  0  0  0  0
  153.5508  137.6663  184.1797 C   0  0  0  0  0  0  0  0  0  0  0  0
  154.4688  137.6096  185.1983 C   0  0  0  0  0  0  0  0  0  0  0  0
  154.5447  136.5317  186.1007 O   0  0  0  0  0  0  0  0  0  0  0  0
  155.3398  138.6641  185.3218 C   0  0  0  0  0  0  0  0  0  0  0  0
  156.2715  138.6400  186.3307 O   0  0  0  0  0  0  0  0  0  0  0  0
  155.3186  139.7647  184.4607 C   0  0  0  0  0  0  0  0  0  0  0  0
  154.4141  139.8289  183.4475 C   0  0  0  0  0  0  0  0  0  0  0  0
  154.3926  140.9239  182.6013 C   0  0  0  0  0  0  0  0  0  0  0  0
  153.4424  140.9134  181.6185 N   0  0  0  0  0  0  0  0  0  0  0  0
  153.9077  135.7543  186.0150 H   0  0  0  0  0  0  0  0  0  0  0  0
  156.9176  139.4189  186.4221 H   0  0  0  0  0  0  0  0  0  0  0  0
  150.2249  139.8900  180.7050 O   0  0  0  0  0  0  0  0  0  0  0  0
  151.5728  139.9224  180.4038 C   0  0  0  0  0  0  0  0  0  0  0  0
  151.9383  139.9645  179.2174 O   0  0  0  0  0  0  0  0  0  0  0  0
  149.5364  139.4107  180.1260 H   0  0  0  0  0  0  0  0  0  0  0  0
  155.3393  142.0355  182.6690 C   0  0  0  0  0  0  0  0  0  0  0  0
  155.0461  143.0204  183.4017 O   0  0  0  0  0  0  0  0  0  0  0  0
  156.5972  142.0586  181.9467 C   0  0  0  0  0  0  0  0  0  0  0  0
  157.2971  140.9413  181.5519 C   0  0  0  0  0  0  0  0  0  0  0  0
  158.4879  141.0744  180.8482 C   0  0  0  0  0  0  0  0  0  0  0  0
  158.9788  142.3255  180.5426 C   0  0  0  0  0  0  0  0  0  0  0  0
  158.3073  143.4585  180.9232 C   0  0  0  0  0  0  0  0  0  0  0  0
  157.1247  143.3145  181.6199 C   0  0  0  0  0  0  0  0  0  0  0  0
 15 16  1  0  0  0
 16 17  2  0  0  0
 16  1  1  0  0  0
  1  2  2  0  0  0
  2  3  1  0  0  0
  3  4  2  0  0  0
  4  5  1  0  0  0
  5  6  1  0  0  0
  5  7  2  0  0  0
  7  8  1  0  0  0
  7  9  1  0  0  0
  9 10  2  0  0  0
 10 11  1  0  0  0
 11 12  2  0  0  0
 11 19  1  0  0  0
 19 20  2  0  0  0
 19 21  1  0  0  0
 21 22  2  0  0  0
 22 23  1  0  0  0
 23 24  2  0  0  0
 24 25  1  0  0  0
 25 26  2  0  0  0
 12  1  1  0  0  0
 26 21  1  0  0  0
 10  3  1  0  0  0
 15 18  1  0  0  0
  6 13  1  0  0  0
  8 14  1  0  0  0
M  END
> <minimizedAffinity>
-7.88922

> <CNNscore>
0.4180971682

> <CNNaffinity>
4.9467859268

> <CNN_VS>
2.0682373047

> <CNNaffinity_variance>
0.0938319191

$$$$
[H]OC(=O)c1nc(C(=O)c2c([H])c([H])c([H])c([H])c2[H])c2c([H])c(O[H])c(O[H])c([H])c2c1[H]


 26 28  0  0  0  0  0  0  0  0999 V2000
  154.3553  138.4710  185.1612 C   0  0  0  0  0  0  0  0  0  0  0  0
  153.3164  137.8911  184.4511 C   0  0  0  0  0  0  0  0  0  0  0  0
  152.8762  138.4818  183.2839 C   0  0  0  0  0  0  0  0  0  0  0  0
  151.8390  137.8948  182.5690 C   0  0  0  0  0  0  0  0  0  0  0  0
  151.4007  138.4686  181.4019 C   0  0  0  0  0  0  0  0  0  0  0  0
  150.3565  137.9274  180.6284 O   0  0  0  0  0  0  0  0  0  0  0  0
  152.0258  139.6205  180.9919 C   0  0  0  0  0  0  0  0  0  0  0  0
  151.6124  140.2211  179.8279 O   0  0  0  0  0  0  0  0  0  0  0  0
  153.0685  140.2102  181.7120 C   0  0  0  0  0  0  0  0  0  0  0  0
  153.5083  139.6501  182.8703 C   0  0  0  0  0  0  0  0  0  0  0  0
  154.5454  140.2341  183.5765 C   0  0  0  0  0  0  0  0  0  0  0  0
  154.9336  139.5980  184.7227 N   0  0  0  0  0  0  0  0  0  0  0  0
  149.8935  137.0815  180.9245 H   0  0  0  0  0  0  0  0  0  0  0  0
  152.0730  141.0744  179.5243 H   0  0  0  0  0  0  0  0  0  0  0  0
  156.0454  138.0529  186.9043 O   0  0  0  0  0  0  0  0  0  0  0  0
  154.7865  137.8188  186.3857 C   0  0  0  0  0  0  0  0  0  0  0  0
  154.0133  137.0427  186.9712 O   0  0  0  0  0  0  0  0  0  0  0  0
  156.5902  137.3394  187.3870 H   0  0  0  0  0  0  0  0  0  0  0  0
  155.1948  141.4881  183.1995 C   0  0  0  0  0  0  0  0  0  0  0  0
  154.6951  142.5661  183.6250 O   0  0  0  0  0  0  0  0  0  0  0  0
  156.3847  141.5543  182.3722 C   0  0  0  0  0  0  0  0  0  0  0  0
  156.7588  142.6441  181.6196 C   0  0  0  0  0  0  0  0  0  0  0  0
  157.9300  142.6095  180.8728 C   0  0  0  0  0  0  0  0  0  0  0  0
  158.7246  141.4834  180.8775 C   0  0  0  0  0  0  0  0  0  0  0  0
  158.3794  140.3803  181.6145 C   0  0  0  0  0  0  0  0  0  0  0  0
  157.2152  140.4262  182.3540 C   0  0  0  0  0  0  0  0  0  0  0  0
 15 16  1  0  0  0
 16 17  2  0  0  0
 16  1  1  0  0  0
  1  2  2  0  0  0
  2  3  1  0  0  0
  3  4  2  0  0  0
  4  5  1  0  0  0
  5  6  1  0  0  0
  5  7  2  0  0  0
  7  8  1  0  0  0
  7  9  1  0  0  0
  9 10  2  0  0  0
 10 11  1  0  0  0
 11 12  2  0  0  0
 11 19  1  0  0  0
 19 20  2  0  0  0
 19 21  1  0  0  0
 21 22  2  0  0  0
 22 23  1  0  0  0
 23 24  2  0  0  0
 24 25  1  0  0  0
 25 26  2  0  0  0
 12  1  1  0  0  0
 26 21  1  0  0  0
 10  3  1  0  0  0
 15 18  1  0  0  0
  6 13  1  0  0  0
  8 14  1  0  0  0
M  END
> <minimizedAffinity>
-7.07960

> <CNNscore>
0.4037501812

> <CNNaffinity>
5.0026535988

> <CNN_VS>
2.0198223591

> <CNNaffinity_variance>
0.2121196985

$$$$
[H]OC(=O)c1nc(C(=O)c2c([H])c([H])c([H])c([H])c2[H])c2c([H])c(O[H])c(O[H])c([H])c2c1[H]


 26 28  0  0  0  0  0  0  0  0999 V2000
  154.9564  138.3095  186.1855 C   0  0  0  0  0  0  0  0  0  0  0  0
  153.6328  137.9012  186.1483 C   0  0  0  0  0  0  0  0  0  0  0  0
  153.0833  137.2712  187.2465 C   0  0  0  0  0  0  0  0  0  0  0  0
  151.7535  136.8691  187.2102 C   0  0  0  0  0  0  0  0  0  0  0  0
  151.1946  136.2510  188.3007 C   0  0  0  0  0  0  0  0  0  0  0  0
  149.8552  135.8191  188.3323 O   0  0  0  0  0  0  0  0  0  0  0  0
  151.9987  136.0582  189.3972 C   0  0  0  0  0  0  0  0  0  0  0  0
  151.4715  135.4428  190.5061 O   0  0  0  0  0  0  0  0  0  0  0  0
  153.3360  136.4626  189.4322 C   0  0  0  0  0  0  0  0  0  0  0  0
  153.8990  137.0740  188.3561 C   0  0  0  0  0  0  0  0  0  0  0  0
  155.2219  137.4786  188.3979 C   0  0  0  0  0  0  0  0  0  0  0  0
  155.7035  138.0973  187.2780 N   0  0  0  0  0  0  0  0  0  0  0  0
  149.2597  135.9579  187.5300 H   0  0  0  0  0  0  0  0  0  0  0  0
  152.0658  135.2981  191.3175 H   0  0  0  0  0  0  0  0  0  0  0  0
  154.7698  139.0201  183.8339 O   0  0  0  0  0  0  0  0  0  0  0  0
  155.4965  138.9665  185.0076 C   0  0  0  0  0  0  0  0  0  0  0  0
  156.6239  139.4853  185.0586 O   0  0  0  0  0  0  0  0  0  0  0  0
  155.1995  138.9771  182.9106 H   0  0  0  0  0  0  0  0  0  0  0  0
  156.1208  137.2396  189.5255 C   0  0  0  0  0  0  0  0  0  0  0  0
  156.2775  138.1678  190.3661 O   0  0  0  0  0  0  0  0  0  0  0  0
  156.8310  135.9913  189.7302 C   0  0  0  0  0  0  0  0  0  0  0  0
  157.6180  135.3712  188.7867 C   0  0  0  0  0  0  0  0  0  0  0  0
  158.2697  134.1824  189.0915 C   0  0  0  0  0  0  0  0  0  0  0  0
  158.1311  133.6136  190.3392 C   0  0  0  0  0  0  0  0  0  0  0  0
  157.3528  134.2044  191.3007 C   0  0  0  0  0  0  0  0  0  0  0  0
  156.7117  135.3858  190.9879 C   0  0  0  0  0  0  0  0  0  0  0  0
 15 16  1  0  0  0
 16 17  2  0  0  0
 16  1  1  0  0  0
  1  2  2  0  0  0
  2  3  1  0  0  0
  3  4  2  0  0  0
  4  5  1  0  0  0
  5  6  1  0  0  0
  5  7  2  0  0  0
  7  8  1  0  0  0
  7  9  1  0  0  0
  9 10  2  0  0  0
 10 11  1  0  0  0
 11 12  2  0  0  0
 11 19  1  0  0  0
 19 20  2  0  0  0
 19 21  1  0  0  0
 21 22  2  0  0  0
 22 23  1  0  0  0
 23 24  2  0  0  0
 24 25  1  0  0  0
 25 26  2  0  0  0
 12  1  1  0  0  0
 26 21  1  0  0  0
 10  3  1  0  0  0
 15 18  1  0  0  0
  6 13  1  0  0  0
  8 14  1  0  0  0
M  END
> <minimizedAffinity>
-5.54486

> <CNNscore>
0.3728787601

> <CNNaffinity>
4.5305204391

> <CNN_VS>
1.6893348694

> <CNNaffinity_variance>
0.0565203428

$$$$
[H]OC(=O)c1nc(C(=O)c2c([H])c([H])c([H])c([H])c2[H])c2c([H])c(O[H])c(O[H])c([H])c2c1[H]


 26 28  0  0  0  0  0  0  0  0999 V2000
  153.8655  141.3627  182.9492 C   0  0  0  0  0  0  0  0  0  0  0  0
  154.2183  140.4131  183.8945 C   0  0  0  0  0  0  0  0  0  0  0  0
  153.8203  139.1025  183.7248 C   0  0  0  0  0  0  0  0  0  0  0  0
  154.1813  138.1499  184.6701 C   0  0  0  0  0  0  0  0  0  0  0  0
  153.7993  136.8421  184.5054 C   0  0  0  0  0  0  0  0  0  0  0  0
  154.1307  135.8270  185.4227 O   0  0  0  0  0  0  0  0  0  0  0  0
  153.0627  136.5363  183.3875 C   0  0  0  0  0  0  0  0  0  0  0  0
  152.6638  135.2367  183.1912 O   0  0  0  0  0  0  0  0  0  0  0  0
  152.6998  137.4952  182.4377 C   0  0  0  0  0  0  0  0  0  0  0  0
  153.0720  138.7937  182.5932 C   0  0  0  0  0  0  0  0  0  0  0  0
  152.7159  139.7385  181.6468 C   0  0  0  0  0  0  0  0  0  0  0  0
  153.1429  141.0172  181.8744 N   0  0  0  0  0  0  0  0  0  0  0  0
  154.6715  136.0455  186.2457 H   0  0  0  0  0  0  0  0  0  0  0  0
  152.1174  135.0094  182.3652 H   0  0  0  0  0  0  0  0  0  0  0  0
  153.4905  143.7944  182.8225 O   0  0  0  0  0  0  0  0  0  0  0  0
  154.3024  142.7310  183.1671 C   0  0  0  0  0  0  0  0  0  0  0  0
  155.4183  142.9451  183.6690 O   0  0  0  0  0  0  0  0  0  0  0  0
  153.8521  144.6790  182.4682 H   0  0  0  0  0  0  0  0  0  0  0  0
  151.8865  139.4593  180.4760 C   0  0  0  0  0  0  0  0  0  0  0  0
  152.4535  139.3886  179.3507 O   0  0  0  0  0  0  0  0  0  0  0  0
  150.4524  139.2511  180.5443 C   0  0  0  0  0  0  0  0  0  0  0  0
  149.6702  139.5247  181.6431 C   0  0  0  0  0  0  0  0  0  0  0  0
  148.2991  139.3034  181.5981 C   0  0  0  0  0  0  0  0  0  0  0  0
  147.7123  138.8058  180.4546 C   0  0  0  0  0  0  0  0  0  0  0  0
  148.4633  138.5207  179.3437 C   0  0  0  0  0  0  0  0  0  0  0  0
  149.8237  138.7461  179.3988 C   0  0  0  0  0  0  0  0  0  0  0  0
 15 16  1  0  0  0
 16 17  2  0  0  0
 16  1  1  0  0  0
  1  2  2  0  0  0
  2  3  1  0  0  0
  3  4  2  0  0  0
  4  5  1  0  0  0
  5  6  1  0  0  0
  5  7  2  0  0  0
  7  8  1  0  0  0
  7  9  1  0  0  0
  9 10  2  0  0  0
 10 11  1  0  0  0
 11 12  2  0  0  0
 11 19  1  0  0  0
 19 20  2  0  0  0
 19 21  1  0  0  0
 21 22  2  0  0  0
 22 23  1  0  0  0
 23 24  2  0  0  0
 24 25  1  0  0  0
 25 26  2  0  0  0
 12  1  1  0  0  0
 26 21  1  0  0  0
 10  3  1  0  0  0
 15 18  1  0  0  0
  6 13  1  0  0  0
  8 14  1  0  0  0
M  END
> <minimizedAffinity>
-7.20092

> <CNNscore>
0.3625420034

> <CNNaffinity>
4.7398614883

> <CNN_VS>
1.7183989286

> <CNNaffinity_variance>
0.0398224927

$$$$
[H]OC(=O)c1nc(C(=O)c2c([H])c([H])c([H])c([H])c2[H])c2c([H])c(O[H])c(O[H])c([H])c2c1[H]


 26 28  0  0  0  0  0  0  0  0999 V2000
  153.6210  140.2728  182.3940 C   0  0  0  0  0  0  0  0  0  0  0  0
  152.8754  140.5099  181.2505 C   0  0  0  0  0  0  0  0  0  0  0  0
  151.8953  139.6122  180.8782 C   0  0  0  0  0  0  0  0  0  0  0  0
  151.1433  139.8554  179.7351 C   0  0  0  0  0  0  0  0  0  0  0  0
  150.1596  138.9742  179.3618 C   0  0  0  0  0  0  0  0  0  0  0  0
  149.3608  139.1592  178.2175 O   0  0  0  0  0  0  0  0  0  0  0  0
  149.9654  137.8718  180.1573 C   0  0  0  0  0  0  0  0  0  0  0  0
  148.9889  136.9693  179.8130 O   0  0  0  0  0  0  0  0  0  0  0  0
  150.7227  137.6280  181.3063 C   0  0  0  0  0  0  0  0  0  0  0  0
  151.7007  138.4943  181.6832 C   0  0  0  0  0  0  0  0  0  0  0  0
  152.4436  138.2520  182.8254 C   0  0  0  0  0  0  0  0  0  0  0  0
  153.3969  139.1807  183.1383 N   0  0  0  0  0  0  0  0  0  0  0  0
  149.4988  139.9670  177.6292 H   0  0  0  0  0  0  0  0  0  0  0  0
  148.8453  136.1524  180.3999 H   0  0  0  0  0  0  0  0  0  0  0  0
  155.8004  141.3525  182.0010 O   0  0  0  0  0  0  0  0  0  0  0  0
  154.6442  141.2412  182.7490 C   0  0  0  0  0  0  0  0  0  0  0  0
  154.4756  141.9763  183.7360 O   0  0  0  0  0  0  0  0  0  0  0  0
  156.7071  141.5788  182.4080 H   0  0  0  0  0  0  0  0  0  0  0  0
  152.3018  137.0626  183.6630 C   0  0  0  0  0  0  0  0  0  0  0  0
  151.3737  137.0464  184.5180 O   0  0  0  0  0  0  0  0  0  0  0  0
  153.1650  135.9016  183.5544 C   0  0  0  0  0  0  0  0  0  0  0  0
  153.4336  135.2290  182.3842 C   0  0  0  0  0  0  0  0  0  0  0  0
  154.2903  134.1350  182.3872 C   0  0  0  0  0  0  0  0  0  0  0  0
  154.8753  133.7132  183.5616 C   0  0  0  0  0  0  0  0  0  0  0  0
  154.6268  134.3596  184.7447 C   0  0  0  0  0  0  0  0  0  0  0  0
  153.7760  135.4461  184.7299 C   0  0  0  0  0  0  0  0  0  0  0  0
 15 16  1  0  0  0
 16 17  2  0  0  0
 16  1  1  0  0  0
  1  2  2  0  0  0
  2  3  1  0  0  0
  3  4  2  0  0  0
  4  5  1  0  0  0
  5  6  1  0  0  0
  5  7  2  0  0  0
  7  8  1  0  0  0
  7  9  1  0  0  0
  9 10  2  0  0  0
 10 11  1  0  0  0
 11 12  2  0  0  0
 11 19  1  0  0  0
 19 20  2  0  0  0
 19 21  1  0  0  0
 21 22  2  0  0  0
 22 23  1  0  0  0
 23 24  2  0  0  0
 24 25  1  0  0  0
 25 26  2  0  0  0
 12  1  1  0  0  0
 26 21  1  0  0  0
 10  3  1  0  0  0
 15 18  1  0  0  0
  6 13  1  0  0  0
  8 14  1  0  0  0
M  END
> <minimizedAffinity>
-6.13055

> <CNNscore>
0.3603186309

> <CNNaffinity>
4.4197244644

> <CNN_VS>
1.5925090313

> <CNNaffinity_variance>
0.0215189904

$$$$
[H]OC(=O)c1nc(C(=O)c2c([H])c([H])c([H])c([H])c2[H])c2c([H])c(O[H])c(O[H])c([H])c2c1[H]


 26 28  0  0  0  0  0  0  0  0999 V2000
  153.5941  135.0810  182.7634 C   0  0  0  0  0  0  0  0  0  0  0  0
  153.8006  134.8048  184.1053 C   0  0  0  0  0  0  0  0  0  0  0  0
  153.6844  135.8183  185.0350 C   0  0  0  0  0  0  0  0  0  0  0  0
  153.8846  135.5379  186.3814 C   0  0  0  0  0  0  0  0  0  0  0  0
  153.7614  136.5364  187.3148 C   0  0  0  0  0  0  0  0  0  0  0  0
  153.9496  136.3223  188.6934 O   0  0  0  0  0  0  0  0  0  0  0  0
  153.4386  137.7905  186.8579 C   0  0  0  0  0  0  0  0  0  0  0  0
  153.3072  138.8133  187.7651 O   0  0  0  0  0  0  0  0  0  0  0  0
  153.2381  138.0714  185.5036 C   0  0  0  0  0  0  0  0  0  0  0  0
  153.3598  137.0892  184.5713 C   0  0  0  0  0  0  0  0  0  0  0  0
  153.1538  137.3707  183.2320 C   0  0  0  0  0  0  0  0  0  0  0  0
  153.2829  136.3222  182.3641 N   0  0  0  0  0  0  0  0  0  0  0  0
  154.1869  135.4033  189.0350 H   0  0  0  0  0  0  0  0  0  0  0  0
  153.0699  139.7422  187.4282 H   0  0  0  0  0  0  0  0  0  0  0  0
  153.3959  132.6956  182.1801 O   0  0  0  0  0  0  0  0  0  0  0  0
  153.7285  133.9865  181.8175 C   0  0  0  0  0  0  0  0  0  0  0  0
  154.1468  134.2161  180.6707 O   0  0  0  0  0  0  0  0  0  0  0  0
  153.8923  131.8750  181.8350 H   0  0  0  0  0  0  0  0  0  0  0  0
  152.8646  138.7032  182.7057 C   0  0  0  0  0  0  0  0  0  0  0  0
  153.5659  139.6685  183.1172 O   0  0  0  0  0  0  0  0  0  0  0  0
  151.8228  138.9686  181.7316 C   0  0  0  0  0  0  0  0  0  0  0  0
  150.4824  138.7272  181.9292 C   0  0  0  0  0  0  0  0  0  0  0  0
  149.5623  139.0338  180.9342 C   0  0  0  0  0  0  0  0  0  0  0  0
  149.9846  139.5793  179.7410 C   0  0  0  0  0  0  0  0  0  0  0  0
  151.3127  139.8300  179.5114 C   0  0  0  0  0  0  0  0  0  0  0  0
  152.2175  139.5234  180.5073 C   0  0  0  0  0  0  0  0  0  0  0  0
 15 16  1  0  0  0
 16 17  2  0  0  0
 16  1  1  0  0  0
  1  2  2  0  0  0
  2  3  1  0  0  0
  3  4  2  0  0  0
  4  5  1  0  0  0
  5  6  1  0  0  0
  5  7  2  0  0  0
  7  8  1  0  0  0
  7  9  1  0  0  0
  9 10  2  0  0  0
 10 11  1  0  0  0
 11 12  2  0  0  0
 11 19  1  0  0  0
 19 20  2  0  0  0
 19 21  1  0  0  0
 21 22  2  0  0  0
 22 23  1  0  0  0
 23 24  2  0  0  0
 24 25  1  0  0  0
 25 26  2  0  0  0
 12  1  1  0  0  0
 26 21  1  0  0  0
 10  3  1  0  0  0
 15 18  1  0  0  0
  6 13  1  0  0  0
  8 14  1  0  0  0
M  END
> <minimizedAffinity>
-5.28250

> <CNNscore>
0.3554549813

> <CNNaffinity>
4.3017354012

> <CNN_VS>
1.5290732384

> <CNNaffinity_variance>
0.0558604226

$$$$
[H]OC(=O)c1nc(C(=O)c2c([H])c([H])c([H])c([H])c2[H])c2c([H])c(O[H])c(O[H])c([H])c2c1[H]


 26 28  0  0  0  0  0  0  0  0999 V2000
  155.2445  137.7446  187.2664 C   0  0  0  0  0  0  0  0  0  0  0  0
  156.2007  136.7458  187.1778 C   0  0  0  0  0  0  0  0  0  0  0  0
  156.5635  136.0478  188.3119 C   0  0  0  0  0  0  0  0  0  0  0  0
  157.5174  135.0413  188.2199 C   0  0  0  0  0  0  0  0  0  0  0  0
  157.8777  134.3344  189.3397 C   0  0  0  0  0  0  0  0  0  0  0  0
  158.8354  133.3028  189.3180 O   0  0  0  0  0  0  0  0  0  0  0  0
  157.2612  134.6669  190.5209 C   0  0  0  0  0  0  0  0  0  0  0  0
  157.5980  133.9794  191.6612 O   0  0  0  0  0  0  0  0  0  0  0  0
  156.3025  135.6797  190.6123 C   0  0  0  0  0  0  0  0  0  0  0  0
  155.9404  136.3868  189.5088 C   0  0  0  0  0  0  0  0  0  0  0  0
  154.9858  137.3844  189.6029 C   0  0  0  0  0  0  0  0  0  0  0  0
  154.6714  138.0357  188.4427 N   0  0  0  0  0  0  0  0  0  0  0  0
  159.2916  133.0541  188.4534 H   0  0  0  0  0  0  0  0  0  0  0  0
  157.1438  134.2256  192.5362 H   0  0  0  0  0  0  0  0  0  0  0  0
  155.8708  139.0355  185.2636 O   0  0  0  0  0  0  0  0  0  0  0  0
  154.8932  138.4566  186.0497 C   0  0  0  0  0  0  0  0  0  0  0  0
  153.7005  138.5445  185.7142 O   0  0  0  0  0  0  0  0  0  0  0  0
  155.7307  139.9059  184.7521 H   0  0  0  0  0  0  0  0  0  0  0  0
  154.3513  137.8017  190.8518 C   0  0  0  0  0  0  0  0  0  0  0  0
  154.9104  138.7101  191.5264 O   0  0  0  0  0  0  0  0  0  0  0  0
  153.1122  137.2329  191.3474 C   0  0  0  0  0  0  0  0  0  0  0  0
  152.6340  137.3868  192.6287 C   0  0  0  0  0  0  0  0  0  0  0  0
  151.4239  136.8121  192.9974 C   0  0  0  0  0  0  0  0  0  0  0  0
  150.6945  136.0814  192.0844 C   0  0  0  0  0  0  0  0  0  0  0  0
  151.1436  135.9071  190.8009 C   0  0  0  0  0  0  0  0  0  0  0  0
  152.3458  136.4839  190.4451 C   0  0  0  0  0  0  0  0  0  0  0  0
 15 16  1  0  0  0
 16 17  2  0  0  0
 16  1  1  0  0  0
  1  2  2  0  0  0
  2  3  1  0  0  0
  3  4  2  0  0  0
  4  5  1  0  0  0
  5  6  1  0  0  0
  5  7  2  0  0  0
  7  8  1  0  0  0
  7  9  1  0  0  0
  9 10  2  0  0  0
 10 11  1  0  0  0
 11 12  2  0  0  0
 11 19  1  0  0  0
 19 20  2  0  0  0
 19 21  1  0  0  0
 21 22  2  0  0  0
 22 23  1  0  0  0
 23 24  2  0  0  0
 24 25  1  0  0  0
 25 26  2  0  0  0
 12  1  1  0  0  0
 26 21  1  0  0  0
 10  3  1  0  0  0
 15 18  1  0  0  0
  6 13  1  0  0  0
  8 14  1  0  0  0
M  END
> <minimizedAffinity>
-6.08793

> <CNNscore>
0.3444409370

> <CNNaffinity>
4.5065484047

> <CNN_VS>
1.5522397757

> <CNNaffinity_variance>
0.0302952863

$$$$
[H]c1nc(N([H])c2c([H])c([H])c(OC([H])([H])C([H])([H])N3C([H])([H])C([H])([H])C([H])([H])C3([H])[H])c(OC([H])([H])[H])c2[H])nc(N([H])c2c([H])c([H])c([H])c([H])c2S(=O)(=O)C([H])(C([H])([H])[H])C([H])([H])[H])c1Cl


 39 42  0  0  0  0  0  0  0  0999 V2000
  155.7786  138.7155  185.6121 C   0  0  0  0  0  0  0  0  0  0  0  0
  154.5867  138.6145  185.0052 N   0  0  0  0  0  0  0  0  0  0  0  0
  154.2208  139.4015  183.9841 C   0  0  0  0  0  0  0  0  0  0  0  0
  155.0808  140.3694  183.5087 C   0  0  0  0  0  0  0  0  0  0  0  0
  154.6654  141.4203  182.1863 Cl  0  0  0  0  0  0  0  0  0  0  0  0
  156.3480  140.5112  184.1189 C   0  0  0  0  0  0  0  0  0  0  0  0
  156.5870  139.6708  185.1191 N   0  0  0  0  0  0  0  0  0  0  0  0
  156.2070  137.9034  186.6956 N   0  0  0  0  0  0  0  0  0  0  0  0
  157.0576  137.2673  186.4895 H   0  0  0  0  0  0  0  0  0  0  0  0
  155.6694  137.6838  190.4120 C   0  0  0  0  0  0  0  0  0  0  0  0
  156.3176  137.6953  189.1559 C   0  0  0  0  0  0  0  0  0  0  0  0
  155.6463  137.8546  187.9800 C   0  0  0  0  0  0  0  0  0  0  0  0
  154.2500  138.0079  188.0945 C   0  0  0  0  0  0  0  0  0  0  0  0
  153.5977  137.9998  189.3052 C   0  0  0  0  0  0  0  0  0  0  0  0
  154.3054  137.8373  190.4763 C   0  0  0  0  0  0  0  0  0  0  0  0
  156.6649  136.2154  192.0574 C   0  0  0  0  0  0  0  0  0  0  0  0
  156.4178  137.5177  191.5695 O   0  0  0  0  0  0  0  0  0  0  0  0
  153.6632  137.8271  191.7042 O   0  0  0  0  0  0  0  0  0  0  0  0
  152.9795  136.6873  192.1904 C   0  0  0  0  0  0  0  0  0  0  0  0
  151.9178  137.1728  193.1413 C   0  0  0  0  0  0  0  0  0  0  0  0
  150.6207  136.6279  192.9157 N   0  0  0  0  0  0  0  0  0  0  0  0
  150.2152  135.6081  193.8270 C   0  0  0  0  0  0  0  0  0  0  0  0
  149.2570  134.7005  193.0571 C   0  0  0  0  0  0  0  0  0  0  0  0
  149.7493  134.8129  191.6403 C   0  0  0  0  0  0  0  0  0  0  0  0
  150.3461  136.1862  191.5874 C   0  0  0  0  0  0  0  0  0  0  0  0
  157.1969  141.5098  183.6230 N   0  0  0  0  0  0  0  0  0  0  0  0
  156.9039  141.9237  182.6851 H   0  0  0  0  0  0  0  0  0  0  0  0
  158.3682  141.9790  184.2502 C   0  0  0  0  0  0  0  0  0  0  0  0
  158.8766  141.4949  185.4436 C   0  0  0  0  0  0  0  0  0  0  0  0
  160.0617  142.0055  185.9878 C   0  0  0  0  0  0  0  0  0  0  0  0
  160.7361  142.9880  185.3517 C   0  0  0  0  0  0  0  0  0  0  0  0
  160.2163  143.4690  184.1504 C   0  0  0  0  0  0  0  0  0  0  0  0
  159.0637  143.0044  183.5790 C   0  0  0  0  0  0  0  0  0  0  0  0
  158.4800  143.6370  182.0805 S   0  0  0  0  0  0  0  0  0  0  0  0
  156.9725  143.6700  182.0564 O   0  0  0  0  0  0  0  0  0  0  0  0
  158.9896  145.0358  181.7852 O   0  0  0  0  0  0  0  0  0  0  0  0
  159.0511  142.5525  180.7562 C   0  0  0  0  0  0  0  0  0  0  0  0
  157.9028  141.6375  180.3335 C   0  0  0  0  0  0  0  0  0  0  0  0
  159.5132  143.3916  179.5979 C   0  0  0  0  0  0  0  0  0  0  0  0
 16 17  1  0  0  0
 17 10  1  0  0  0
 10 11  2  0  0  0
 11 12  1  0  0  0
 12  8  1  0  0  0
  8  1  1  0  0  0
  1  2  2  0  0  0
  2  3  1  0  0  0
  3  4  2  0  0  0
  4  5  1  0  0  0
  4  6  1  0  0  0
  6 26  1  0  0  0
 26 28  1  0  0  0
 28 29  2  0  0  0
 29 30  1  0  0  0
 30 31  2  0  0  0
 31 32  1  0  0  0
 32 33  2  0  0  0
 33 34  1  0  0  0
 34 35  2  0  0  0
 34 36  2  0  0  0
 34 37  1  0  0  0
 37 38  1  0  0  0
 37 39  1  0  0  0
  6  7  2  0  0  0
 12 13  2  0  0  0
 13 14  1  0  0  0
 14 15  2  0  0  0
 15 18  1  0  0  0
 18 19  1  0  0  0
 19 20  1  0  0  0
 20 21  1  0  0  0
 21 22  1  0  0  0
 22 23  1  0  0  0
 23 24  1  0  0  0
 24 25  1  0  0  0
 15 10  1  0  0  0
 25 21  1  0  0  0
  7  1  1  0  0  0
 33 28  1  0  0  0
  8  9  1  0  0  0
 26 27  1  0  0  0
M  END
> <minimizedAffinity>
-9.10972

> <CNNscore>
0.4254381359

> <CNNaffinity>
6.7983064651

> <CNN_VS>
2.8922588825

> <CNNaffinity_variance>
0.3435331285

$$$$
[H]c1nc(N([H])c2c([H])c([H])c(OC([H])([H])C([H])([H])N3C([H])([H])C([H])([H])C([H])([H])C3([H])[H])c(OC([H])([H])[H])c2[H])nc(N([H])c2c([H])c([H])c([H])c([H])c2S(=O)(=O)C([H])(C([H])([H])[H])C([H])([H])[H])c1Cl


 39 42  0  0  0  0  0  0  0  0999 V2000
  152.3707  139.9918  181.0955 C   0  0  0  0  0  0  0  0  0  0  0  0
  152.0248  140.1975  179.8160 N   0  0  0  0  0  0  0  0  0  0  0  0
  150.9417  139.6410  179.2563 C   0  0  0  0  0  0  0  0  0  0  0  0
  150.1225  138.8147  179.9968 C   0  0  0  0  0  0  0  0  0  0  0  0
  148.7026  138.0643  179.3287 Cl  0  0  0  0  0  0  0  0  0  0  0  0
  150.4492  138.5699  181.3502 C   0  0  0  0  0  0  0  0  0  0  0  0
  151.5465  139.1806  181.7824 N   0  0  0  0  0  0  0  0  0  0  0  0
  153.5076  140.5605  181.7286 N   0  0  0  0  0  0  0  0  0  0  0  0
  153.8597  141.4897  181.3005 H   0  0  0  0  0  0  0  0  0  0  0  0
  156.0670  139.8193  184.3836 C   0  0  0  0  0  0  0  0  0  0  0  0
  155.4584  140.3739  183.2347 C   0  0  0  0  0  0  0  0  0  0  0  0
  154.1972  140.0444  182.8351 C   0  0  0  0  0  0  0  0  0  0  0  0
  153.5298  139.1051  183.6465 C   0  0  0  0  0  0  0  0  0  0  0  0
  154.1016  138.5520  184.7684 C   0  0  0  0  0  0  0  0  0  0  0  0
  155.3784  138.9068  185.1461 C   0  0  0  0  0  0  0  0  0  0  0  0
  158.4374  139.8403  183.8985 C   0  0  0  0  0  0  0  0  0  0  0  0
  157.3554  140.2025  184.7311 O   0  0  0  0  0  0  0  0  0  0  0  0
  155.9687  138.3589  186.2738 O   0  0  0  0  0  0  0  0  0  0  0  0
  155.2108  137.9122  187.3825 C   0  0  0  0  0  0  0  0  0  0  0  0
  156.1050  137.0272  188.2097 C   0  0  0  0  0  0  0  0  0  0  0  0
  155.8373  137.0501  189.6091 N   0  0  0  0  0  0  0  0  0  0  0  0
  154.4846  136.7910  189.9805 C   0  0  0  0  0  0  0  0  0  0  0  0
  154.2468  137.5443  191.2885 C   0  0  0  0  0  0  0  0  0  0  0  0
  155.1772  138.7206  191.1756 C   0  0  0  0  0  0  0  0  0  0  0  0
  156.2908  138.2021  190.3176 C   0  0  0  0  0  0  0  0  0  0  0  0
  149.6058  137.7178  182.0755 N   0  0  0  0  0  0  0  0  0  0  0  0
  149.5738  136.7115  181.7244 H   0  0  0  0  0  0  0  0  0  0  0  0
  148.8224  138.0874  183.1869 C   0  0  0  0  0  0  0  0  0  0  0  0
  147.9351  139.1499  183.2130 C   0  0  0  0  0  0  0  0  0  0  0  0
  147.1783  139.4355  184.3563 C   0  0  0  0  0  0  0  0  0  0  0  0
  147.3015  138.6718  185.4636 C   0  0  0  0  0  0  0  0  0  0  0  0
  148.1974  137.6038  185.4277 C   0  0  0  0  0  0  0  0  0  0  0  0
  148.9589  137.2849  184.3371 C   0  0  0  0  0  0  0  0  0  0  0  0
  150.0431  135.9393  184.3552 S   0  0  0  0  0  0  0  0  0  0  0  0
  151.3828  136.3146  183.7732 O   0  0  0  0  0  0  0  0  0  0  0  0
  150.2713  135.3763  185.7460 O   0  0  0  0  0  0  0  0  0  0  0  0
  149.3247  134.6298  183.3427 C   0  0  0  0  0  0  0  0  0  0  0  0
  149.9987  133.3042  183.6936 C   0  0  0  0  0  0  0  0  0  0  0  0
  147.8467  134.5583  183.6067 C   0  0  0  0  0  0  0  0  0  0  0  0
 16 17  1  0  0  0
 17 10  1  0  0  0
 10 11  2  0  0  0
 11 12  1  0  0  0
 12  8  1  0  0  0
  8  1  1  0  0  0
  1  2  2  0  0  0
  2  3  1  0  0  0
  3  4  2  0  0  0
  4  5  1  0  0  0
  4  6  1  0  0  0
  6 26  1  0  0  0
 26 28  1  0  0  0
 28 29  2  0  0  0
 29 30  1  0  0  0
 30 31  2  0  0  0
 31 32  1  0  0  0
 32 33  2  0  0  0
 33 34  1  0  0  0
 34 35  2  0  0  0
 34 36  2  0  0  0
 34 37  1  0  0  0
 37 38  1  0  0  0
 37 39  1  0  0  0
  6  7  2  0  0  0
 12 13  2  0  0  0
 13 14  1  0  0  0
 14 15  2  0  0  0
 15 18  1  0  0  0
 18 19  1  0  0  0
 19 20  1  0  0  0
 20 21  1  0  0  0
 21 22  1  0  0  0
 22 23  1  0  0  0
 23 24  1  0  0  0
 24 25  1  0  0  0
 15 10  1  0  0  0
 25 21  1  0  0  0
  7  1  1  0  0  0
 33 28  1  0  0  0
  8  9  1  0  0  0
 26 27  1  0  0  0
M  END
> <minimizedAffinity>
-6.77650

> <CNNscore>
0.3922485113

> <CNNaffinity>
6.6735563278

> <CNN_VS>
2.6176924706

> <CNNaffinity_variance>
0.2567088008

$$$$
[H]c1nc(N([H])c2c([H])c([H])c(OC([H])([H])C([H])([H])N3C([H])([H])C([H])([H])C([H])([H])C3([H])[H])c(OC([H])([H])[H])c2[H])nc(N([H])c2c([H])c([H])c([H])c([H])c2S(=O)(=O)C([H])(C([H])([H])[H])C([H])([H])[H])c1Cl


 39 42  0  0  0  0  0  0  0  0999 V2000
  155.4544  138.8197  185.3418 C   0  0  0  0  0  0  0  0  0  0  0  0
  154.2668  138.8175  184.7183 N   0  0  0  0  0  0  0  0  0  0  0  0
  153.9659  139.6624  183.7226 C   0  0  0  0  0  0  0  0  0  0  0  0
  154.8924  140.5891  183.2924 C   0  0  0  0  0  0  0  0  0  0  0  0
  154.5630  141.7111  182.0046 Cl  0  0  0  0  0  0  0  0  0  0  0  0
  156.1578  140.6271  183.9215 C   0  0  0  0  0  0  0  0  0  0  0  0
  156.3289  139.7378  184.8930 N   0  0  0  0  0  0  0  0  0  0  0  0
  155.8153  137.9436  186.3997 N   0  0  0  0  0  0  0  0  0  0  0  0
  156.7301  137.3861  186.2477 H   0  0  0  0  0  0  0  0  0  0  0  0
  153.2405  137.0352  188.9869 C   0  0  0  0  0  0  0  0  0  0  0  0
  153.8603  137.2266  187.7311 C   0  0  0  0  0  0  0  0  0  0  0  0
  155.1152  137.7427  187.5980 C   0  0  0  0  0  0  0  0  0  0  0  0
  155.7640  138.0786  188.8031 C   0  0  0  0  0  0  0  0  0  0  0  0
  155.1810  137.9015  190.0361 C   0  0  0  0  0  0  0  0  0  0  0  0
  153.9109  137.3766  190.1368 C   0  0  0  0  0  0  0  0  0  0  0  0
  151.6167  135.4185  188.2094 C   0  0  0  0  0  0  0  0  0  0  0  0
  151.9594  136.5033  189.0466 O   0  0  0  0  0  0  0  0  0  0  0  0
  153.3096  137.1917  191.3715 O   0  0  0  0  0  0  0  0  0  0  0  0
  153.6756  136.1359  192.2402 C   0  0  0  0  0  0  0  0  0  0  0  0
  152.6320  135.0593  192.1020 C   0  0  0  0  0  0  0  0  0  0  0  0
  151.7590  134.9279  193.2204 N   0  0  0  0  0  0  0  0  0  0  0  0
  151.8964  135.9279  194.2284 C   0  0  0  0  0  0  0  0  0  0  0  0
  151.4951  135.2670  195.5463 C   0  0  0  0  0  0  0  0  0  0  0  0
  151.8716  133.8268  195.3311 C   0  0  0  0  0  0  0  0  0  0  0  0
  151.7314  133.6483  193.8501 C   0  0  0  0  0  0  0  0  0  0  0  0
  157.0754  141.5859  183.4719 N   0  0  0  0  0  0  0  0  0  0  0  0
  156.8487  142.0144  182.5222 H   0  0  0  0  0  0  0  0  0  0  0  0
  158.2348  141.9993  184.1578 C   0  0  0  0  0  0  0  0  0  0  0  0
  158.6637  141.4864  185.3702 C   0  0  0  0  0  0  0  0  0  0  0  0
  159.8426  141.9410  185.9743 C   0  0  0  0  0  0  0  0  0  0  0  0
  160.5891  142.8964  185.3787 C   0  0  0  0  0  0  0  0  0  0  0  0
  160.1492  143.4066  184.1578 C   0  0  0  0  0  0  0  0  0  0  0  0
  159.0060  142.9967  183.5285 C   0  0  0  0  0  0  0  0  0  0  0  0
  158.5232  143.6631  182.0089 S   0  0  0  0  0  0  0  0  0  0  0  0
  157.0223  143.7810  181.9209 O   0  0  0  0  0  0  0  0  0  0  0  0
  159.1227  145.0314  181.7406 O   0  0  0  0  0  0  0  0  0  0  0  0
  159.0883  142.5499  180.7061 C   0  0  0  0  0  0  0  0  0  0  0  0
  157.9367  141.6294  180.3050 C   0  0  0  0  0  0  0  0  0  0  0  0
  159.5500  143.3635  179.5296 C   0  0  0  0  0  0  0  0  0  0  0  0
 16 17  1  0  0  0
 17 10  1  0  0  0
 10 11  2  0  0  0
 11 12  1  0  0  0
 12  8  1  0  0  0
  8  1  1  0  0  0
  1  2  2  0  0  0
  2  3  1  0  0  0
  3  4  2  0  0  0
  4  5  1  0  0  0
  4  6  1  0  0  0
  6 26  1  0  0  0
 26 28  1  0  0  0
 28 29  2  0  0  0
 29 30  1  0  0  0
 30 31  2  0  0  0
 31 32  1  0  0  0
 32 33  2  0  0  0
 33 34  1  0  0  0
 34 35  2  0  0  0
 34 36  2  0  0  0
 34 37  1  0  0  0
 37 38  1  0  0  0
 37 39  1  0  0  0
  6  7  2  0  0  0
 12 13  2  0  0  0
 13 14  1  0  0  0
 14 15  2  0  0  0
 15 18  1  0  0  0
 18 19  1  0  0  0
 19 20  1  0  0  0
 20 21  1  0  0  0
 21 22  1  0  0  0
 22 23  1  0  0  0
 23 24  1  0  0  0
 24 25  1  0  0  0
 15 10  1  0  0  0
 25 21  1  0  0  0
  7  1  1  0  0  0
 33 28  1  0  0  0
  8  9  1  0  0  0
 26 27  1  0  0  0
M  END
> <minimizedAffinity>
-8.42321

> <CNNscore>
0.2882572412

> <CNNaffinity>
6.5883064270

> <CNN_VS>
1.8991270065

> <CNNaffinity_variance>
0.1605776846

$$$$
[H]c1nc(N([H])c2c([H])c([H])c(OC([H])([H])C([H])([H])N3C([H])([H])C([H])([H])C([H])([H])C3([H])[H])c(OC([H])([H])[H])c2[H])nc(N([H])c2c([H])c([H])c([H])c([H])c2S(=O)(=O)C([H])(C([H])([H])[H])C([H])([H])[H])c1Cl


 39 42  0  0  0  0  0  0  0  0999 V2000
  155.5589  138.8217  185.3429 C   0  0  0  0  0  0  0  0  0  0  0  0
  154.3390  138.8442  184.7857 N   0  0  0  0  0  0  0  0  0  0  0  0
  153.9846  139.7306  183.8452 C   0  0  0  0  0  0  0  0  0  0  0  0
  154.8866  140.6768  183.4055 C   0  0  0  0  0  0  0  0  0  0  0  0
  154.4879  141.8526  182.1872 Cl  0  0  0  0  0  0  0  0  0  0  0  0
  156.1845  140.6899  183.9656 C   0  0  0  0  0  0  0  0  0  0  0  0
  156.4080  139.7600  184.8870 N   0  0  0  0  0  0  0  0  0  0  0  0
  155.9767  137.9015  186.3407 N   0  0  0  0  0  0  0  0  0  0  0  0
  157.0095  137.5856  186.2762 H   0  0  0  0  0  0  0  0  0  0  0  0
  154.2462  137.3011  189.6260 C   0  0  0  0  0  0  0  0  0  0  0  0
  155.0830  137.8800  188.6449 C   0  0  0  0  0  0  0  0  0  0  0  0
  155.1943  137.3804  187.3813 C   0  0  0  0  0  0  0  0  0  0  0  0
  154.4159  136.2373  187.1100 C   0  0  0  0  0  0  0  0  0  0  0  0
  153.5950  135.6567  188.0484 C   0  0  0  0  0  0  0  0  0  0  0  0
  153.5040  136.1866  189.3171 C   0  0  0  0  0  0  0  0  0  0  0  0
  155.0750  138.9029  191.2392 C   0  0  0  0  0  0  0  0  0  0  0  0
  154.1818  137.8647  190.8933 O   0  0  0  0  0  0  0  0  0  0  0  0
  152.6815  135.6137  190.2739 O   0  0  0  0  0  0  0  0  0  0  0  0
  151.3044  135.9256  190.3718 C   0  0  0  0  0  0  0  0  0  0  0  0
  150.5362  134.6798  190.0182 C   0  0  0  0  0  0  0  0  0  0  0  0
  149.5214  134.8639  189.0349 N   0  0  0  0  0  0  0  0  0  0  0  0
  149.8341  135.7883  187.9944 C   0  0  0  0  0  0  0  0  0  0  0  0
  148.5039  136.3834  187.5348 C   0  0  0  0  0  0  0  0  0  0  0  0
  147.6625  136.3335  188.7805 C   0  0  0  0  0  0  0  0  0  0  0  0
  148.2149  135.1573  189.5264 C   0  0  0  0  0  0  0  0  0  0  0  0
  157.0767  141.6690  183.5083 N   0  0  0  0  0  0  0  0  0  0  0  0
  156.8116  142.1198  182.5791 H   0  0  0  0  0  0  0  0  0  0  0  0
  158.2567  142.0757  184.1624 C   0  0  0  0  0  0  0  0  0  0  0  0
  158.7074  141.5714  185.3705 C   0  0  0  0  0  0  0  0  0  0  0  0
  159.9055  142.0181  185.9417 C   0  0  0  0  0  0  0  0  0  0  0  0
  160.6496  142.9571  185.3178 C   0  0  0  0  0  0  0  0  0  0  0  0
  160.1877  143.4588  184.1015 C   0  0  0  0  0  0  0  0  0  0  0  0
  159.0253  143.0560  183.5037 C   0  0  0  0  0  0  0  0  0  0  0  0
  158.5154  143.7109  181.9879 S   0  0  0  0  0  0  0  0  0  0  0  0
  157.0127  143.8196  181.9221 O   0  0  0  0  0  0  0  0  0  0  0  0
  159.1027  145.0811  181.7028 O   0  0  0  0  0  0  0  0  0  0  0  0
  159.0671  142.5935  180.6829 C   0  0  0  0  0  0  0  0  0  0  0  0
  157.8982  141.7030  180.2643 C   0  0  0  0  0  0  0  0  0  0  0  0
  159.5592  143.4039  179.5166 C   0  0  0  0  0  0  0  0  0  0  0  0
 16 17  1  0  0  0
 17 10  1  0  0  0
 10 11  2  0  0  0
 11 12  1  0  0  0
 12  8  1  0  0  0
  8  1  1  0  0  0
  1  2  2  0  0  0
  2  3  1  0  0  0
  3  4  2  0  0  0
  4  5  1  0  0  0
  4  6  1  0  0  0
  6 26  1  0  0  0
 26 28  1  0  0  0
 28 29  2  0  0  0
 29 30  1  0  0  0
 30 31  2  0  0  0
 31 32  1  0  0  0
 32 33  2  0  0  0
 33 34  1  0  0  0
 34 35  2  0  0  0
 34 36  2  0  0  0
 34 37  1  0  0  0
 37 38  1  0  0  0
 37 39  1  0  0  0
  6  7  2  0  0  0
 12 13  2  0  0  0
 13 14  1  0  0  0
 14 15  2  0  0  0
 15 18  1  0  0  0
 18 19  1  0  0  0
 19 20  1  0  0  0
 20 21  1  0  0  0
 21 22  1  0  0  0
 22 23  1  0  0  0
 23 24  1  0  0  0
 24 25  1  0  0  0
 15 10  1  0  0  0
 25 21  1  0  0  0
  7  1  1  0  0  0
 33 28  1  0  0  0
  8  9  1  0  0  0
 26 27  1  0  0  0
M  END
> <minimizedAffinity>
-7.74616

> <CNNscore>
0.2850383222

> <CNNaffinity>
6.8286676407

> <CNN_VS>
1.9464319944

> <CNNaffinity_variance>
0.1269088238

$$$$
[H]c1nc(N([H])c2c([H])c([H])c(OC([H])([H])C([H])([H])N3C([H])([H])C([H])([H])C([H])([H])C3([H])[H])c(OC([H])([H])[H])c2[H])nc(N([H])c2c([H])c([H])c([H])c([H])c2S(=O)(=O)C([H])(C([H])([H])[H])C([H])([H])[H])c1Cl


 39 42  0  0  0  0  0  0  0  0999 V2000
  153.2640  138.3985  186.6492 C   0  0  0  0  0  0  0  0  0  0  0  0
  152.3718  137.5127  186.1820 N   0  0  0  0  0  0  0  0  0  0  0  0
  152.2579  137.2114  184.8812 C   0  0  0  0  0  0  0  0  0  0  0  0
  153.0766  137.8184  183.9520 C   0  0  0  0  0  0  0  0  0  0  0  0
  152.9789  137.4691  182.2508 Cl  0  0  0  0  0  0  0  0  0  0  0  0
  154.0320  138.7592  184.4001 C   0  0  0  0  0  0  0  0  0  0  0  0
  154.0425  138.9677  185.7116 N   0  0  0  0  0  0  0  0  0  0  0  0
  153.4191  138.7470  188.0172 N   0  0  0  0  0  0  0  0  0  0  0  0
  152.9775  139.6911  188.3076 H   0  0  0  0  0  0  0  0  0  0  0  0
  154.2385  136.3779  190.8216 C   0  0  0  0  0  0  0  0  0  0  0  0
  153.4953  137.1139  189.8709 C   0  0  0  0  0  0  0  0  0  0  0  0
  154.0716  137.9957  189.0053 C   0  0  0  0  0  0  0  0  0  0  0  0
  155.4698  138.1311  189.1184 C   0  0  0  0  0  0  0  0  0  0  0  0
  156.2135  137.4259  190.0355 C   0  0  0  0  0  0  0  0  0  0  0  0
  155.6008  136.5413  190.8962 C   0  0  0  0  0  0  0  0  0  0  0  0
  152.9932  135.9828  192.8582 C   0  0  0  0  0  0  0  0  0  0  0  0
  153.5844  135.4960  191.6713 O   0  0  0  0  0  0  0  0  0  0  0  0
  156.3359  135.8230  191.8258 O   0  0  0  0  0  0  0  0  0  0  0  0
  157.3117  134.8709  191.4456 C   0  0  0  0  0  0  0  0  0  0  0  0
  156.6576  133.9198  190.4789 C   0  0  0  0  0  0  0  0  0  0  0  0
  157.4368  133.6109  189.3266 N   0  0  0  0  0  0  0  0  0  0  0  0
  158.8196  133.3581  189.5693 C   0  0  0  0  0  0  0  0  0  0  0  0
  159.5616  133.7756  188.3005 C   0  0  0  0  0  0  0  0  0  0  0  0
  158.6986  134.8783  187.7512 C   0  0  0  0  0  0  0  0  0  0  0  0
  157.3258  134.5170  188.2305 C   0  0  0  0  0  0  0  0  0  0  0  0
  154.8428  139.3686  183.4333 N   0  0  0  0  0  0  0  0  0  0  0  0
  155.4715  138.7015  182.8885 H   0  0  0  0  0  0  0  0  0  0  0  0
  154.8880  140.7481  183.1494 C   0  0  0  0  0  0  0  0  0  0  0  0
  153.8089  141.5064  182.7283 C   0  0  0  0  0  0  0  0  0  0  0  0
  153.9369  142.8802  182.4879 C   0  0  0  0  0  0  0  0  0  0  0  0
  155.1265  143.4952  182.6650 C   0  0  0  0  0  0  0  0  0  0  0  0
  156.2074  142.7232  183.0896 C   0  0  0  0  0  0  0  0  0  0  0  0
  156.1336  141.3800  183.3366 C   0  0  0  0  0  0  0  0  0  0  0  0
  157.5104  140.4833  183.8722 S   0  0  0  0  0  0  0  0  0  0  0  0
  157.2142  139.7509  185.1568 O   0  0  0  0  0  0  0  0  0  0  0  0
  157.9969  139.4715  182.8510 O   0  0  0  0  0  0  0  0  0  0  0  0
  158.8536  141.6498  184.1740 C   0  0  0  0  0  0  0  0  0  0  0  0
  159.2027  141.6316  185.6613 C   0  0  0  0  0  0  0  0  0  0  0  0
  160.0441  141.2544  183.3459 C   0  0  0  0  0  0  0  0  0  0  0  0
 16 17  1  0  0  0
 17 10  1  0  0  0
 10 11  2  0  0  0
 11 12  1  0  0  0
 12  8  1  0  0  0
  8  1  1  0  0  0
  1  2  2  0  0  0
  2  3  1  0  0  0
  3  4  2  0  0  0
  4  5  1  0  0  0
  4  6  1  0  0  0
  6 26  1  0  0  0
 26 28  1  0  0  0
 28 29  2  0  0  0
 29 30  1  0  0  0
 30 31  2  0  0  0
 31 32  1  0  0  0
 32 33  2  0  0  0
 33 34  1  0  0  0
 34 35  2  0  0  0
 34 36  2  0  0  0
 34 37  1  0  0  0
 37 38  1  0  0  0
 37 39  1  0  0  0
  6  7  2  0  0  0
 12 13  2  0  0  0
 13 14  1  0  0  0
 14 15  2  0  0  0
 15 18  1  0  0  0
 18 19  1  0  0  0
 19 20  1  0  0  0
 20 21  1  0  0  0
 21 22  1  0  0  0
 22 23  1  0  0  0
 23 24  1  0  0  0
 24 25  1  0  0  0
 15 10  1  0  0  0
 25 21  1  0  0  0
  7  1  1  0  0  0
 33 28  1  0  0  0
  8  9  1  0  0  0
 26 27  1  0  0  0
M  END
> <minimizedAffinity>
-7.64726

> <CNNscore>
0.2576761842

> <CNNaffinity>
6.4618735313

> <CNN_VS>
1.6650708914

> <CNNaffinity_variance>
0.9093225598

$$$$
[H]c1nc(N([H])c2c([H])c([H])c(OC([H])([H])C([H])([H])N3C([H])([H])C([H])([H])C([H])([H])C3([H])[H])c(OC([H])([H])[H])c2[H])nc(N([H])c2c([H])c([H])c([H])c([H])c2S(=O)(=O)C([H])(C([H])([H])[H])C([H])([H])[H])c1Cl


 39 42  0  0  0  0  0  0  0  0999 V2000
  155.0208  137.5252  187.9420 C   0  0  0  0  0  0  0  0  0  0  0  0
  156.1682  138.0151  188.4346 N   0  0  0  0  0  0  0  0  0  0  0  0
  156.6337  137.6956  189.6500 C   0  0  0  0  0  0  0  0  0  0  0  0
  155.9299  136.8282  190.4589 C   0  0  0  0  0  0  0  0  0  0  0  0
  156.4817  136.3735  192.0446 Cl  0  0  0  0  0  0  0  0  0  0  0  0
  154.7146  136.2876  189.9799 C   0  0  0  0  0  0  0  0  0  0  0  0
  154.3653  136.6838  188.7614 N   0  0  0  0  0  0  0  0  0  0  0  0
  154.4912  137.8360  186.6615 N   0  0  0  0  0  0  0  0  0  0  0  0
  153.4995  137.4508  186.4645 H   0  0  0  0  0  0  0  0  0  0  0  0
  155.2462  139.8245  183.5591 C   0  0  0  0  0  0  0  0  0  0  0  0
  154.5410  139.0538  184.5113 C   0  0  0  0  0  0  0  0  0  0  0  0
  155.1175  138.5834  185.6538 C   0  0  0  0  0  0  0  0  0  0  0  0
  156.4759  138.9155  185.8290 C   0  0  0  0  0  0  0  0  0  0  0  0
  157.1824  139.6635  184.9164 C   0  0  0  0  0  0  0  0  0  0  0  0
  156.5702  140.1249  183.7714 C   0  0  0  0  0  0  0  0  0  0  0  0
  154.0011  141.5532  182.4119 C   0  0  0  0  0  0  0  0  0  0  0  0
  154.5938  140.2711  182.4178 O   0  0  0  0  0  0  0  0  0  0  0  0
  157.2679  140.8800  182.8422 O   0  0  0  0  0  0  0  0  0  0  0  0
  158.0792  141.9778  183.2160 C   0  0  0  0  0  0  0  0  0  0  0  0
  159.5137  141.5341  183.1040 C   0  0  0  0  0  0  0  0  0  0  0  0
  160.2171  141.4718  184.3416 N   0  0  0  0  0  0  0  0  0  0  0  0
  159.5876  142.1290  185.4402 C   0  0  0  0  0  0  0  0  0  0  0  0
  160.7120  142.5861  186.3684 C   0  0  0  0  0  0  0  0  0  0  0  0
  161.8572  142.8218  185.4223 C   0  0  0  0  0  0  0  0  0  0  0  0
  161.5894  141.8594  184.3056 C   0  0  0  0  0  0  0  0  0  0  0  0
  154.0149  135.4180  190.8271 N   0  0  0  0  0  0  0  0  0  0  0  0
  154.3895  134.4201  190.8556 H   0  0  0  0  0  0  0  0  0  0  0  0
  152.8904  135.7568  191.6058 C   0  0  0  0  0  0  0  0  0  0  0  0
  152.7272  136.9528  192.2839 C   0  0  0  0  0  0  0  0  0  0  0  0
  151.5653  137.2172  193.0198 C   0  0  0  0  0  0  0  0  0  0  0  0
  150.5741  136.3015  193.0810 C   0  0  0  0  0  0  0  0  0  0  0  0
  150.7475  135.1001  192.3946 C   0  0  0  0  0  0  0  0  0  0  0  0
  151.8625  134.7946  191.6637 C   0  0  0  0  0  0  0  0  0  0  0  0
  152.0092  133.2899  190.8266 S   0  0  0  0  0  0  0  0  0  0  0  0
  150.6542  132.6866  190.5544 O   0  0  0  0  0  0  0  0  0  0  0  0
  152.7478  133.4119  189.5063 O   0  0  0  0  0  0  0  0  0  0  0  0
  152.9416  132.1558  191.8757 C   0  0  0  0  0  0  0  0  0  0  0  0
  154.3903  132.1093  191.3924 C   0  0  0  0  0  0  0  0  0  0  0  0
  152.8735  132.6337  193.2991 C   0  0  0  0  0  0  0  0  0  0  0  0
 16 17  1  0  0  0
 17 10  1  0  0  0
 10 11  2  0  0  0
 11 12  1  0  0  0
 12  8  1  0  0  0
  8  1  1  0  0  0
  1  2  2  0  0  0
  2  3  1  0  0  0
  3  4  2  0  0  0
  4  5  1  0  0  0
  4  6  1  0  0  0
  6 26  1  0  0  0
 26 28  1  0  0  0
 28 29  2  0  0  0
 29 30  1  0  0  0
 30 31  2  0  0  0
 31 32  1  0  0  0
 32 33  2  0  0  0
 33 34  1  0  0  0
 34 35  2  0  0  0
 34 36  2  0  0  0
 34 37  1  0  0  0
 37 38  1  0  0  0
 37 39  1  0  0  0
  6  7  2  0  0  0
 12 13  2  0  0  0
 13 14  1  0  0  0
 14 15  2  0  0  0
 15 18  1  0  0  0
 18 19  1  0  0  0
 19 20  1  0  0  0
 20 21  1  0  0  0
 21 22  1  0  0  0
 22 23  1  0  0  0
 23 24  1  0  0  0
 24 25  1  0  0  0
 15 10  1  0  0  0
 25 21  1  0  0  0
  7  1  1  0  0  0
 33 28  1  0  0  0
  8  9  1  0  0  0
 26 27  1  0  0  0
M  END
> <minimizedAffinity>
-7.51246

> <CNNscore>
0.2540812790

> <CNNaffinity>
6.6718597412

> <CNN_VS>
1.6951946020

> <CNNaffinity_variance>
0.1093280539

$$$$
[H]c1nc(N([H])c2c([H])c([H])c(OC([H])([H])C([H])([H])N3C([H])([H])C([H])([H])C([H])([H])C3([H])[H])c(OC([H])([H])[H])c2[H])nc(N([H])c2c([H])c([H])c([H])c([H])c2S(=O)(=O)C([H])(C([H])([H])[H])C([H])([H])[H])c1Cl


 39 42  0  0  0  0  0  0  0  0999 V2000
  152.2130  140.0604  181.5010 C   0  0  0  0  0  0  0  0  0  0  0  0
  151.6975  139.7764  180.2957 N   0  0  0  0  0  0  0  0  0  0  0  0
  150.9978  138.6608  180.0478 C   0  0  0  0  0  0  0  0  0  0  0  0
  150.7773  137.7403  181.0510 C   0  0  0  0  0  0  0  0  0  0  0  0
  149.8763  136.2749  180.7930 Cl  0  0  0  0  0  0  0  0  0  0  0  0
  151.3027  137.9989  182.3377 C   0  0  0  0  0  0  0  0  0  0  0  0
  151.9759  139.1381  182.4509 N   0  0  0  0  0  0  0  0  0  0  0  0
  152.9594  141.2291  181.8077 N   0  0  0  0  0  0  0  0  0  0  0  0
  152.5370  142.1569  181.4453 H   0  0  0  0  0  0  0  0  0  0  0  0
  156.0439  140.4008  183.7949 C   0  0  0  0  0  0  0  0  0  0  0  0
  154.8165  140.2481  183.1107 C   0  0  0  0  0  0  0  0  0  0  0  0
  154.1628  141.2914  182.5250 C   0  0  0  0  0  0  0  0  0  0  0  0
  154.7924  142.5464  182.6457 C   0  0  0  0  0  0  0  0  0  0  0  0
  155.9861  142.7192  183.3066 C   0  0  0  0  0  0  0  0  0  0  0  0
  156.6223  141.6438  183.8876 C   0  0  0  0  0  0  0  0  0  0  0  0
  156.2954  138.8989  185.6753 C   0  0  0  0  0  0  0  0  0  0  0  0
  156.6539  139.2925  184.3670 O   0  0  0  0  0  0  0  0  0  0  0  0
  157.8255  141.8011  184.5568 O   0  0  0  0  0  0  0  0  0  0  0  0
  158.9458  142.4279  183.9608 C   0  0  0  0  0  0  0  0  0  0  0  0
  159.6146  141.4068  183.0792 C   0  0  0  0  0  0  0  0  0  0  0  0
  159.4725  141.6415  181.6809 N   0  0  0  0  0  0  0  0  0  0  0  0
  159.1569  142.9828  181.3116 C   0  0  0  0  0  0  0  0  0  0  0  0
  158.3602  142.8938  180.0109 C   0  0  0  0  0  0  0  0  0  0  0  0
  157.6638  141.5661  180.1307 C   0  0  0  0  0  0  0  0  0  0  0  0
  158.5973  140.7592  180.9807 C   0  0  0  0  0  0  0  0  0  0  0  0
  151.0730  137.0415  183.3348 N   0  0  0  0  0  0  0  0  0  0  0  0
  151.7156  136.1915  183.2982 H   0  0  0  0  0  0  0  0  0  0  0  0
  150.0852  137.1189  184.3367 C   0  0  0  0  0  0  0  0  0  0  0  0
  148.7240  137.2130  184.1021 C   0  0  0  0  0  0  0  0  0  0  0  0
  147.8071  137.2644  185.1595 C   0  0  0  0  0  0  0  0  0  0  0  0
  148.2388  137.2220  186.4387 C   0  0  0  0  0  0  0  0  0  0  0  0
  149.6115  137.1270  186.6650 C   0  0  0  0  0  0  0  0  0  0  0  0
  150.5460  137.0747  185.6677 C   0  0  0  0  0  0  0  0  0  0  0  0
  152.2335  136.9456  186.0172 S   0  0  0  0  0  0  0  0  0  0  0  0
  152.7654  135.5890  185.6288 O   0  0  0  0  0  0  0  0  0  0  0  0
  153.0697  138.0010  185.3169 O   0  0  0  0  0  0  0  0  0  0  0  0
  152.4535  137.1601  187.7953 C   0  0  0  0  0  0  0  0  0  0  0  0
  153.0049  135.8642  188.3876 C   0  0  0  0  0  0  0  0  0  0  0  0
  153.4026  138.2998  188.0397 C   0  0  0  0  0  0  0  0  0  0  0  0
 16 17  1  0  0  0
 17 10  1  0  0  0
 10 11  2  0  0  0
 11 12  1  0  0  0
 12  8  1  0  0  0
  8  1  1  0  0  0
  1  2  2  0  0  0
  2  3  1  0  0  0
  3  4  2  0  0  0
  4  5  1  0  0  0
  4  6  1  0  0  0
  6 26  1  0  0  0
 26 28  1  0  0  0
 28 29  2  0  0  0
 29 30  1  0  0  0
 30 31  2  0  0  0
 31 32  1  0  0  0
 32 33  2  0  0  0
 33 34  1  0  0  0
 34 35  2  0  0  0
 34 36  2  0  0  0
 34 37  1  0  0  0
 37 38  1  0  0  0
 37 39  1  0  0  0
  6  7  2  0  0  0
 12 13  2  0  0  0
 13 14  1  0  0  0
 14 15  2  0  0  0
 15 18  1  0  0  0
 18 19  1  0  0  0
 19 20  1  0  0  0
 20 21  1  0  0  0
 21 22  1  0  0  0
 22 23  1  0  0  0
 23 24  1  0  0  0
 24 25  1  0  0  0
 15 10  1  0  0  0
 25 21  1  0  0  0
  7  1  1  0  0  0
 33 28  1  0  0  0
  8  9  1  0  0  0
 26 27  1  0  0  0
M  END
> <minimizedAffinity>
-6.88502

> <CNNscore>
0.2391389906

> <CNNaffinity>
6.5681877136

> <CNN_VS>
1.5707098246

> <CNNaffinity_variance>
0.5855548978

$$$$
[H]c1nc(N([H])c2c([H])c([H])c(OC([H])([H])C([H])([H])N3C([H])([H])C([H])([H])C([H])([H])C3([H])[H])c(OC([H])([H])[H])c2[H])nc(N([H])c2c([H])c([H])c([H])c([H])c2S(=O)(=O)C([H])(C([H])([H])[H])C([H])([H])[H])c1Cl


 39 42  0  0  0  0  0  0  0  0999 V2000
  154.8116  138.4502  185.2288 C   0  0  0  0  0  0  0  0  0  0  0  0
  153.6586  138.4047  184.5449 N   0  0  0  0  0  0  0  0  0  0  0  0
  153.3487  139.2832  183.5815 C   0  0  0  0  0  0  0  0  0  0  0  0
  154.2285  140.2924  183.2507 C   0  0  0  0  0  0  0  0  0  0  0  0
  153.8852  141.4617  182.0095 Cl  0  0  0  0  0  0  0  0  0  0  0  0
  155.4563  140.3784  183.9462 C   0  0  0  0  0  0  0  0  0  0  0  0
  155.6412  139.4485  184.8762 N   0  0  0  0  0  0  0  0  0  0  0  0
  155.1806  137.5410  186.2555 N   0  0  0  0  0  0  0  0  0  0  0  0
  156.0621  136.9471  186.0535 H   0  0  0  0  0  0  0  0  0  0  0  0
  154.2694  137.4471  189.9038 C   0  0  0  0  0  0  0  0  0  0  0  0
  155.0128  137.6511  188.7190 C   0  0  0  0  0  0  0  0  0  0  0  0
  154.5267  137.3499  187.4813 C   0  0  0  0  0  0  0  0  0  0  0  0
  153.2229  136.8155  187.4550 C   0  0  0  0  0  0  0  0  0  0  0  0
  152.4811  136.6081  188.5944 C   0  0  0  0  0  0  0  0  0  0  0  0
  153.0009  136.9238  189.8308 C   0  0  0  0  0  0  0  0  0  0  0  0
  155.0755  139.1341  191.4397 C   0  0  0  0  0  0  0  0  0  0  0  0
  154.8284  137.7781  191.1309 O   0  0  0  0  0  0  0  0  0  0  0  0
  152.2663  136.7211  190.9882 O   0  0  0  0  0  0  0  0  0  0  0  0
  151.0612  135.9790  190.9986 C   0  0  0  0  0  0  0  0  0  0  0  0
  151.4001  134.5796  191.4387 C   0  0  0  0  0  0  0  0  0  0  0  0
  151.1319  134.3045  192.8109 N   0  0  0  0  0  0  0  0  0  0  0  0
  150.0579  135.0452  193.3878 C   0  0  0  0  0  0  0  0  0  0  0  0
  150.3850  135.1891  194.8734 C   0  0  0  0  0  0  0  0  0  0  0  0
  151.8890  135.1892  194.8904 C   0  0  0  0  0  0  0  0  0  0  0  0
  152.2503  134.3622  193.6944 C   0  0  0  0  0  0  0  0  0  0  0  0
  156.3261  141.4201  183.5972 N   0  0  0  0  0  0  0  0  0  0  0  0
  155.9141  142.1467  182.9345 H   0  0  0  0  0  0  0  0  0  0  0  0
  157.6569  141.5623  184.0381 C   0  0  0  0  0  0  0  0  0  0  0  0
  158.0590  141.5458  185.3628 C   0  0  0  0  0  0  0  0  0  0  0  0
  159.4090  141.6734  185.7131 C   0  0  0  0  0  0  0  0  0  0  0  0
  160.3512  141.8155  184.7556 C   0  0  0  0  0  0  0  0  0  0  0  0
  159.9365  141.8307  183.4243 C   0  0  0  0  0  0  0  0  0  0  0  0
  158.6319  141.7107  183.0316 C   0  0  0  0  0  0  0  0  0  0  0  0
  158.1864  141.7260  181.3619 S   0  0  0  0  0  0  0  0  0  0  0  0
  159.2125  141.0096  180.5204 O   0  0  0  0  0  0  0  0  0  0  0  0
  156.8325  141.0920  181.1004 O   0  0  0  0  0  0  0  0  0  0  0  0
  158.1020  143.4458  180.8223 C   0  0  0  0  0  0  0  0  0  0  0  0
  157.9402  144.3437  182.0479 C   0  0  0  0  0  0  0  0  0  0  0  0
  159.3608  143.7899  180.0765 C   0  0  0  0  0  0  0  0  0  0  0  0
 16 17  1  0  0  0
 17 10  1  0  0  0
 10 11  2  0  0  0
 11 12  1  0  0  0
 12  8  1  0  0  0
  8  1  1  0  0  0
  1  2  2  0  0  0
  2  3  1  0  0  0
  3  4  2  0  0  0
  4  5  1  0  0  0
  4  6  1  0  0  0
  6 26  1  0  0  0
 26 28  1  0  0  0
 28 29  2  0  0  0
 29 30  1  0  0  0
 30 31  2  0  0  0
 31 32  1  0  0  0
 32 33  2  0  0  0
 33 34  1  0  0  0
 34 35  2  0  0  0
 34 36  2  0  0  0
 34 37  1  0  0  0
 37 38  1  0  0  0
 37 39  1  0  0  0
  6  7  2  0  0  0
 12 13  2  0  0  0
 13 14  1  0  0  0
 14 15  2  0  0  0
 15 18  1  0  0  0
 18 19  1  0  0  0
 19 20  1  0  0  0
 20 21  1  0  0  0
 21 22  1  0  0  0
 22 23  1  0  0  0
 23 24  1  0  0  0
 24 25  1  0  0  0
 15 10  1  0  0  0
 25 21  1  0  0  0
  7  1  1  0  0  0
 33 28  1  0  0  0
  8  9  1  0  0  0
 26 27  1  0  0  0
M  END
> <minimizedAffinity>
-7.83265

> <CNNscore>
0.2348201275

> <CNNaffinity>
6.5527520180

> <CNN_VS>
1.5387181044

> <CNNaffinity_variance>
0.1500342786

$$$$
[H]c1nc(N([H])c2c([H])c([H])c(OC([H])([H])C([H])([H])N3C([H])([H])C([H])([H])C([H])([H])C3([H])[H])c(OC([H])([H])[H])c2[H])nc(N([H])c2c([H])c([H])c([H])c([H])c2S(=O)(=O)C([H])(C([H])([H])[H])C([H])([H])[H])c1Cl


 39 42  0  0  0  0  0  0  0  0999 V2000
  154.6056  139.1310  183.9983 C   0  0  0  0  0  0  0  0  0  0  0  0
  153.5225  139.4421  183.2707 N   0  0  0  0  0  0  0  0  0  0  0  0
  153.3442  140.6455  182.7087 C   0  0  0  0  0  0  0  0  0  0  0  0
  154.2943  141.6333  182.8632 C   0  0  0  0  0  0  0  0  0  0  0  0
  154.1219  143.2140  182.1579 Cl  0  0  0  0  0  0  0  0  0  0  0  0
  155.4523  141.3492  183.6227 C   0  0  0  0  0  0  0  0  0  0  0  0
  155.5073  140.1210  184.1249 N   0  0  0  0  0  0  0  0  0  0  0  0
  154.8351  137.8703  184.6105 N   0  0  0  0  0  0  0  0  0  0  0  0
  155.4175  137.1706  184.0259 H   0  0  0  0  0  0  0  0  0  0  0  0
  153.8875  135.8587  187.6444 C   0  0  0  0  0  0  0  0  0  0  0  0
  154.3251  136.1789  186.3391 C   0  0  0  0  0  0  0  0  0  0  0  0
  154.3919  137.4595  185.8760 C   0  0  0  0  0  0  0  0  0  0  0  0
  153.9922  138.4563  186.7885 C   0  0  0  0  0  0  0  0  0  0  0  0
  153.5627  138.1687  188.0630 C   0  0  0  0  0  0  0  0  0  0  0  0
  153.5074  136.8635  188.5013 C   0  0  0  0  0  0  0  0  0  0  0  0
  155.0539  133.8251  188.2433 C   0  0  0  0  0  0  0  0  0  0  0  0
  153.8461  134.5311  188.0487 O   0  0  0  0  0  0  0  0  0  0  0  0
  153.0773  136.5571  189.7825 O   0  0  0  0  0  0  0  0  0  0  0  0
  153.6690  137.1267  190.9351 C   0  0  0  0  0  0  0  0  0  0  0  0
  153.9814  135.9990  191.8827 C   0  0  0  0  0  0  0  0  0  0  0  0
  153.1763  135.9672  193.0579 N   0  0  0  0  0  0  0  0  0  0  0  0
  152.6597  134.6863  193.4147 C   0  0  0  0  0  0  0  0  0  0  0  0
  151.3426  134.9429  194.1456 C   0  0  0  0  0  0  0  0  0  0  0  0
  150.8521  136.2200  193.5207 C   0  0  0  0  0  0  0  0  0  0  0  0
  152.1154  136.9187  193.1198 C   0  0  0  0  0  0  0  0  0  0  0  0
  156.3955  142.3746  183.7725 N   0  0  0  0  0  0  0  0  0  0  0  0
  156.0293  143.3553  183.5698 H   0  0  0  0  0  0  0  0  0  0  0  0
  157.7425  142.2039  184.1494 C   0  0  0  0  0  0  0  0  0  0  0  0
  158.1757  141.4349  185.2161 C   0  0  0  0  0  0  0  0  0  0  0  0
  159.5388  141.3022  185.5089 C   0  0  0  0  0  0  0  0  0  0  0  0
  160.4634  141.9275  184.7482 C   0  0  0  0  0  0  0  0  0  0  0  0
  160.0175  142.6995  183.6759 C   0  0  0  0  0  0  0  0  0  0  0  0
  158.6990  142.8608  183.3499 C   0  0  0  0  0  0  0  0  0  0  0  0
  158.2140  143.8237  181.9992 S   0  0  0  0  0  0  0  0  0  0  0  0
  156.8955  144.5056  182.2651 O   0  0  0  0  0  0  0  0  0  0  0  0
  159.2317  144.8872  181.6294 O   0  0  0  0  0  0  0  0  0  0  0  0
  158.0180  142.7314  180.5764 C   0  0  0  0  0  0  0  0  0  0  0  0
  159.0767  143.0813  179.5319 C   0  0  0  0  0  0  0  0  0  0  0  0
  158.1694  141.3052  181.0264 C   0  0  0  0  0  0  0  0  0  0  0  0
 16 17  1  0  0  0
 17 10  1  0  0  0
 10 11  2  0  0  0
 11 12  1  0  0  0
 12  8  1  0  0  0
  8  1  1  0  0  0
  1  2  2  0  0  0
  2  3  1  0  0  0
  3  4  2  0  0  0
  4  5  1  0  0  0
  4  6  1  0  0  0
  6 26  1  0  0  0
 26 28  1  0  0  0
 28 29  2  0  0  0
 29 30  1  0  0  0
 30 31  2  0  0  0
 31 32  1  0  0  0
 32 33  2  0  0  0
 33 34  1  0  0  0
 34 35  2  0  0  0
 34 36  2  0  0  0
 34 37  1  0  0  0
 37 38  1  0  0  0
 37 39  1  0  0  0
  6  7  2  0  0  0
 12 13  2  0  0  0
 13 14  1  0  0  0
 14 15  2  0  0  0
 15 18  1  0  0  0
 18 19  1  0  0  0
 19 20  1  0  0  0
 20 21  1  0  0  0
 21 22  1  0  0  0
 22 23  1  0  0  0
 23 24  1  0  0  0
 24 25  1  0  0  0
 15 10  1  0  0  0
 25 21  1  0  0  0
  7  1  1  0  0  0
 33 28  1  0  0  0
  8  9  1  0  0  0
 26 27  1  0  0  0
M  END
> <minimizedAffinity>
-7.67494

> <CNNscore>
0.2036898583

> <CNNaffinity>
6.6103057861

> <CNN_VS>
1.3464522362

> <CNNaffinity_variance>
0.1763736755

$$$$
[H]OC(=O)[C@]1([H])C([H])([H])C([H])([H])[C@@]([H])(N([H])C(=O)c2c([H])c([H])c3c(nc(-c4c([H])c([H])c(C(C([H])([H])[H])(C([H])([H])[H])C([H])([H])[H])c([H])c4[H])n3[H])c2[H])C([H])([H])C1([H])[H]


 34 37  0  0  0  0  0  0  0  0999 V2000
  152.2363  135.0271  188.3635 C   0  0  0  0  0  0  0  0  0  0  0  0
  151.3155  134.8721  187.3985 N   0  0  0  0  0  0  0  0  0  0  0  0
  151.8327  135.2016  186.2001 C   0  0  0  0  0  0  0  0  0  0  0  0
  151.3458  135.2474  184.8968 C   0  0  0  0  0  0  0  0  0  0  0  0
  152.1224  135.6525  183.8465 C   0  0  0  0  0  0  0  0  0  0  0  0
  153.4197  136.0163  184.1298 C   0  0  0  0  0  0  0  0  0  0  0  0
  153.9717  135.9962  185.3908 C   0  0  0  0  0  0  0  0  0  0  0  0
  153.1344  135.5755  186.4318 C   0  0  0  0  0  0  0  0  0  0  0  0
  153.3543  135.4597  187.7606 N   0  0  0  0  0  0  0  0  0  0  0  0
  154.2423  135.6707  188.2287 H   0  0  0  0  0  0  0  0  0  0  0  0
  151.7655  134.3458  192.5760 C   0  0  0  0  0  0  0  0  0  0  0  0
  151.1069  133.5685  191.6453 C   0  0  0  0  0  0  0  0  0  0  0  0
  151.2677  133.8087  190.2941 C   0  0  0  0  0  0  0  0  0  0  0  0
  152.0800  134.8176  189.8143 C   0  0  0  0  0  0  0  0  0  0  0  0
  152.7359  135.5932  190.7425 C   0  0  0  0  0  0  0  0  0  0  0  0
  152.5811  135.3605  192.1034 C   0  0  0  0  0  0  0  0  0  0  0  0
  150.1770  134.0598  194.4594 C   0  0  0  0  0  0  0  0  0  0  0  0
  151.6442  134.1237  194.0350 C   0  0  0  0  0  0  0  0  0  0  0  0
  152.2633  135.2294  194.8628 C   0  0  0  0  0  0  0  0  0  0  0  0
  152.2506  132.7716  194.4268 C   0  0  0  0  0  0  0  0  0  0  0  0
  151.6661  135.7365  182.4787 C   0  0  0  0  0  0  0  0  0  0  0  0
  152.5632  136.0257  181.5898 O   0  0  0  0  0  0  0  0  0  0  0  0
  150.3600  135.5422  182.0058 N   0  0  0  0  0  0  0  0  0  0  0  0
  149.5992  135.2996  182.6690 H   0  0  0  0  0  0  0  0  0  0  0  0
  150.0678  135.6750  180.6015 C   0  0  0  0  0  0  0  0  0  0  0  0
  150.1100  134.2591  180.0301 C   0  0  0  0  0  0  0  0  0  0  0  0
  148.9078  133.4958  180.4667 C   0  0  0  0  0  0  0  0  0  0  0  0
  147.6749  134.1185  179.8200 C   0  0  0  0  0  0  0  0  0  0  0  0
  147.9213  135.5099  179.3249 C   0  0  0  0  0  0  0  0  0  0  0  0
  148.7834  136.3428  180.2762 C   0  0  0  0  0  0  0  0  0  0  0  0
  147.3255  133.2444  178.6734 C   0  0  0  0  0  0  0  0  0  0  0  0
  146.8654  131.9581  178.9294 O   0  0  0  0  0  0  0  0  0  0  0  0
  147.4168  133.5862  177.4800 O   0  0  0  0  0  0  0  0  0  0  0  0
  145.8542  131.8964  179.1110 H   0  0  0  0  0  0  0  0  0  0  0  0
 17 18  1  0  0  0
 18 19  1  0  0  0
 18 20  1  0  0  0
 18 11  1  0  0  0
 11 12  2  0  0  0
 12 13  1  0  0  0
 13 14  2  0  0  0
 14 15  1  0  0  0
 15 16  2  0  0  0
 14  1  1  0  0  0
  1  2  2  0  0  0
  2  3  1  0  0  0
  3  4  2  0  0  0
  4  5  1  0  0  0
  5  6  2  0  0  0
  6  7  1  0  0  0
  7  8  2  0  0  0
  8  9  1  0  0  0
  5 21  1  0  0  0
 21 22  2  0  0  0
 21 23  1  0  0  0
 23 25  1  0  0  0
 25 26  1  0  0  0
 26 27  1  0  0  0
 27 28  1  0  0  0
 28 29  1  0  0  0
 29 30  1  0  0  0
 28 31  1  0  0  0
 31 32  1  0  0  0
 31 33  2  0  0  0
 16 11  1  0  0  0
  9  1  1  0  0  0
 30 25  1  0  0  0
  8  3  1  0  0  0
  9 10  1  0  0  0
 23 24  1  0  0  0
 32 34  1  0  0  0
M  END
> <minimizedAffinity>
-3.26195

> <CNNscore>
0.5578370094

> <CNNaffinity>
5.4784708023

> <CNN_VS>
3.0560936928

> <CNNaffinity_variance>
1.2495067120

$$$$
[H]OC(=O)[C@]1([H])C([H])([H])C([H])([H])[C@@]([H])(N([H])C(=O)c2c([H])c([H])c3c(nc(-c4c([H])c([H])c(C(C([H])([H])[H])(C([H])([H])[H])C([H])([H])[H])c([H])c4[H])n3[H])c2[H])C([H])([H])C1([H])[H]


 34 37  0  0  0  0  0  0  0  0999 V2000
  151.3909  133.9292  188.7525 C   0  0  0  0  0  0  0  0  0  0  0  0
  150.6122  134.1127  187.6740 N   0  0  0  0  0  0  0  0  0  0  0  0
  151.3300  134.6331  186.6610 C   0  0  0  0  0  0  0  0  0  0  0  0
  151.0476  135.0310  185.3572 C   0  0  0  0  0  0  0  0  0  0  0  0
  152.0061  135.5583  184.5364 C   0  0  0  0  0  0  0  0  0  0  0  0
  153.2762  135.6810  185.0538 C   0  0  0  0  0  0  0  0  0  0  0  0
  153.6312  135.3091  186.3308 C   0  0  0  0  0  0  0  0  0  0  0  0
  152.6129  134.7765  187.1316 C   0  0  0  0  0  0  0  0  0  0  0  0
  152.6219  134.3394  188.4108 N   0  0  0  0  0  0  0  0  0  0  0  0
  153.4470  134.3253  189.0199 H   0  0  0  0  0  0  0  0  0  0  0  0
  150.3047  132.3947  192.6121 C   0  0  0  0  0  0  0  0  0  0  0  0
  150.7262  131.5573  191.5996 C   0  0  0  0  0  0  0  0  0  0  0  0
  151.0652  132.0714  190.3626 C   0  0  0  0  0  0  0  0  0  0  0  0
  151.0026  133.4222  190.0812 C   0  0  0  0  0  0  0  0  0  0  0  0
  150.5814  134.2569  191.0907 C   0  0  0  0  0  0  0  0  0  0  0  0
  150.2378  133.7507  192.3379 C   0  0  0  0  0  0  0  0  0  0  0  0
  148.9388  130.7545  193.8756 C   0  0  0  0  0  0  0  0  0  0  0  0
  149.9450  131.9021  193.9614 C   0  0  0  0  0  0  0  0  0  0  0  0
  149.2924  132.9562  194.8298 C   0  0  0  0  0  0  0  0  0  0  0  0
  151.1753  131.3252  194.6706 C   0  0  0  0  0  0  0  0  0  0  0  0
  151.7672  136.0036  183.1834 C   0  0  0  0  0  0  0  0  0  0  0  0
  150.6932  135.5575  182.6122 O   0  0  0  0  0  0  0  0  0  0  0  0
  152.5692  136.8629  182.4182 N   0  0  0  0  0  0  0  0  0  0  0  0
  153.4382  137.2598  182.8241 H   0  0  0  0  0  0  0  0  0  0  0  0
  152.1918  137.2012  181.0697 C   0  0  0  0  0  0  0  0  0  0  0  0
  150.6891  137.4713  181.1115 C   0  0  0  0  0  0  0  0  0  0  0  0
  150.4225  138.7741  181.7823 C   0  0  0  0  0  0  0  0  0  0  0  0
  150.9748  139.8940  180.9066 C   0  0  0  0  0  0  0  0  0  0  0  0
  151.9751  139.4059  179.9050 C   0  0  0  0  0  0  0  0  0  0  0  0
  152.9223  138.3446  180.4692 C   0  0  0  0  0  0  0  0  0  0  0  0
  149.8092  140.4726  180.1942 C   0  0  0  0  0  0  0  0  0  0  0  0
  148.5571  139.9008  180.3866 O   0  0  0  0  0  0  0  0  0  0  0  0
  149.8739  141.4486  179.4244 O   0  0  0  0  0  0  0  0  0  0  0  0
  148.0533  140.2485  181.2139 H   0  0  0  0  0  0  0  0  0  0  0  0
 17 18  1  0  0  0
 18 19  1  0  0  0
 18 20  1  0  0  0
 18 11  1  0  0  0
 11 12  2  0  0  0
 12 13  1  0  0  0
 13 14  2  0  0  0
 14 15  1  0  0  0
 15 16  2  0  0  0
 14  1  1  0  0  0
  1  2  2  0  0  0
  2  3  1  0  0  0
  3  4  2  0  0  0
  4  5  1  0  0  0
  5  6  2  0  0  0
  6  7  1  0  0  0
  7  8  2  0  0  0
  8  9  1  0  0  0
  5 21  1  0  0  0
 21 22  2  0  0  0
 21 23  1  0  0  0
 23 25  1  0  0  0
 25 26  1  0  0  0
 26 27  1  0  0  0
 27 28  1  0  0  0
 28 29  1  0  0  0
 29 30  1  0  0  0
 28 31  1  0  0  0
 31 32  1  0  0  0
 31 33  2  0  0  0
 16 11  1  0  0  0
  9  1  1  0  0  0
 30 25  1  0  0  0
  8  3  1  0  0  0
  9 10  1  0  0  0
 23 24  1  0  0  0
 32 34  1  0  0  0
M  END
> <minimizedAffinity>
-0.68364

> <CNNscore>
0.5043406487

> <CNNaffinity>
5.5968980789

> <CNN_VS>
2.8227431774

> <CNNaffinity_variance>
1.9859184027

$$$$
[H]OC(=O)[C@]1([H])C([H])([H])C([H])([H])[C@@]([H])(N([H])C(=O)c2c([H])c([H])c3c(nc(-c4c([H])c([H])c(C(C([H])([H])[H])(C([H])([H])[H])C([H])([H])[H])c([H])c4[H])n3[H])c2[H])C([H])([H])C1([H])[H]


 34 37  0  0  0  0  0  0  0  0999 V2000
  156.3123  136.5938  187.7122 C   0  0  0  0  0  0  0  0  0  0  0  0
  155.9461  136.7865  186.4347 N   0  0  0  0  0  0  0  0  0  0  0  0
  156.2519  138.0378  186.0434 C   0  0  0  0  0  0  0  0  0  0  0  0
  156.0916  138.7690  184.8698 C   0  0  0  0  0  0  0  0  0  0  0  0
  156.4971  140.0710  184.7655 C   0  0  0  0  0  0  0  0  0  0  0  0
  157.0782  140.6375  185.8778 C   0  0  0  0  0  0  0  0  0  0  0  0
  157.2712  139.9787  187.0710 C   0  0  0  0  0  0  0  0  0  0  0  0
  156.8369  138.6482  187.1266 C   0  0  0  0  0  0  0  0  0  0  0  0
  156.8610  137.7443  188.1315 N   0  0  0  0  0  0  0  0  0  0  0  0
  157.2428  137.9180  189.0675 H   0  0  0  0  0  0  0  0  0  0  0  0
  155.8449  133.0669  190.1151 C   0  0  0  0  0  0  0  0  0  0  0  0
  156.7931  133.1333  189.1149 C   0  0  0  0  0  0  0  0  0  0  0  0
  156.9227  134.2760  188.3489 C   0  0  0  0  0  0  0  0  0  0  0  0
  156.1275  135.3889  188.5412 C   0  0  0  0  0  0  0  0  0  0  0  0
  155.1814  135.3222  189.5381 C   0  0  0  0  0  0  0  0  0  0  0  0
  155.0423  134.1781  190.3138 C   0  0  0  0  0  0  0  0  0  0  0  0
  155.9035  132.2252  192.4476 C   0  0  0  0  0  0  0  0  0  0  0  0
  155.6723  131.8757  190.9775 C   0  0  0  0  0  0  0  0  0  0  0  0
  156.6471  130.7614  190.6622 C   0  0  0  0  0  0  0  0  0  0  0  0
  154.2334  131.3539  190.8947 C   0  0  0  0  0  0  0  0  0  0  0  0
  156.3406  140.8823  183.5809 C   0  0  0  0  0  0  0  0  0  0  0  0
  156.6974  140.3389  182.4602 O   0  0  0  0  0  0  0  0  0  0  0  0
  155.8476  142.1935  183.5089 N   0  0  0  0  0  0  0  0  0  0  0  0
  155.5376  142.6791  184.3723 H   0  0  0  0  0  0  0  0  0  0  0  0
  155.7663  142.8710  182.2402 C   0  0  0  0  0  0  0  0  0  0  0  0
  157.0542  143.6829  182.1165 C   0  0  0  0  0  0  0  0  0  0  0  0
  158.2051  142.7772  181.8455 C   0  0  0  0  0  0  0  0  0  0  0  0
  158.0233  142.1601  180.4627 C   0  0  0  0  0  0  0  0  0  0  0  0
  156.6137  142.2554  179.9670 C   0  0  0  0  0  0  0  0  0  0  0  0
  155.5735  141.9944  181.0587 C   0  0  0  0  0  0  0  0  0  0  0  0
  158.9158  142.9190  179.5526 C   0  0  0  0  0  0  0  0  0  0  0  0
  158.4473  143.2624  178.2899 O   0  0  0  0  0  0  0  0  0  0  0  0
  160.0724  143.2755  179.8437 O   0  0  0  0  0  0  0  0  0  0  0  0
  157.9005  144.1338  178.2616 H   0  0  0  0  0  0  0  0  0  0  0  0
 17 18  1  0  0  0
 18 19  1  0  0  0
 18 20  1  0  0  0
 18 11  1  0  0  0
 11 12  2  0  0  0
 12 13  1  0  0  0
 13 14  2  0  0  0
 14 15  1  0  0  0
 15 16  2  0  0  0
 14  1  1  0  0  0
  1  2  2  0  0  0
  2  3  1  0  0  0
  3  4  2  0  0  0
  4  5  1  0  0  0
  5  6  2  0  0  0
  6  7  1  0  0  0
  7  8  2  0  0  0
  8  9  1  0  0  0
  5 21  1  0  0  0
 21 22  2  0  0  0
 21 23  1  0  0  0
 23 25  1  0  0  0
 25 26  1  0  0  0
 26 27  1  0  0  0
 27 28  1  0  0  0
 28 29  1  0  0  0
 29 30  1  0  0  0
 28 31  1  0  0  0
 31 32  1  0  0  0
 31 33  2  0  0  0
 16 11  1  0  0  0
  9  1  1  0  0  0
 30 25  1  0  0  0
  8  3  1  0  0  0
  9 10  1  0  0  0
 23 24  1  0  0  0
 32 34  1  0  0  0
M  END
> <minimizedAffinity>
2.75011

> <CNNscore>
0.3881682754

> <CNNaffinity>
6.1870508194

> <CNN_VS>
2.4016168118

> <CNNaffinity_variance>
2.3191094398

$$$$
[H]OC(=O)[C@]1([H])C([H])([H])C([H])([H])[C@@]([H])(N([H])C(=O)c2c([H])c([H])c3c(nc(-c4c([H])c([H])c(C(C([H])([H])[H])(C([H])([H])[H])C([H])([H])[H])c([H])c4[H])n3[H])c2[H])C([H])([H])C1([H])[H]


 34 37  0  0  0  0  0  0  0  0999 V2000
  154.3067  134.5341  187.4216 C   0  0  0  0  0  0  0  0  0  0  0  0
  153.7926  134.3788  186.1909 N   0  0  0  0  0  0  0  0  0  0  0  0
  152.7351  135.1939  186.0186 C   0  0  0  0  0  0  0  0  0  0  0  0
  151.8370  135.4355  184.9829 C   0  0  0  0  0  0  0  0  0  0  0  0
  150.8177  136.3394  185.1032 C   0  0  0  0  0  0  0  0  0  0  0  0
  150.7131  137.0105  186.3009 C   0  0  0  0  0  0  0  0  0  0  0  0
  151.5625  136.8264  187.3684 C   0  0  0  0  0  0  0  0  0  0  0  0
  152.5883  135.8885  187.1950 C   0  0  0  0  0  0  0  0  0  0  0  0
  153.5606  135.4662  188.0340 N   0  0  0  0  0  0  0  0  0  0  0  0
  153.7009  135.8107  188.9898 H   0  0  0  0  0  0  0  0  0  0  0  0
  157.5588  132.4243  189.2666 C   0  0  0  0  0  0  0  0  0  0  0  0
  156.6042  133.0739  190.0222 C   0  0  0  0  0  0  0  0  0  0  0  0
  155.5690  133.7524  189.4080 C   0  0  0  0  0  0  0  0  0  0  0  0
  155.4375  133.8136  188.0344 C   0  0  0  0  0  0  0  0  0  0  0  0
  156.3900  133.1666  187.2811 C   0  0  0  0  0  0  0  0  0  0  0  0
  157.4351  132.4818  187.8883 C   0  0  0  0  0  0  0  0  0  0  0  0
  159.3489  130.7621  188.8365 C   0  0  0  0  0  0  0  0  0  0  0  0
  158.6799  131.6682  189.8701 C   0  0  0  0  0  0  0  0  0  0  0  0
  158.2485  130.7556  190.9981 C   0  0  0  0  0  0  0  0  0  0  0  0
  159.7747  132.6240  190.3571 C   0  0  0  0  0  0  0  0  0  0  0  0
  149.8474  136.6178  184.0701 C   0  0  0  0  0  0  0  0  0  0  0  0
  149.2005  135.5989  183.5990 O   0  0  0  0  0  0  0  0  0  0  0  0
  149.5292  137.8676  183.5186 N   0  0  0  0  0  0  0  0  0  0  0  0
  150.0078  138.7226  183.8613 H   0  0  0  0  0  0  0  0  0  0  0  0
  148.5378  137.9723  182.4788 C   0  0  0  0  0  0  0  0  0  0  0  0
  148.8583  139.2609  181.7239 C   0  0  0  0  0  0  0  0  0  0  0  0
  150.0789  139.0749  180.8908 C   0  0  0  0  0  0  0  0  0  0  0  0
  149.7664  138.0688  179.7880 C   0  0  0  0  0  0  0  0  0  0  0  0
  148.5531  137.2430  180.0846 C   0  0  0  0  0  0  0  0  0  0  0  0
  148.4597  136.8168  181.5514 C   0  0  0  0  0  0  0  0  0  0  0  0
  149.5295  138.8652  178.5590 C   0  0  0  0  0  0  0  0  0  0  0  0
  150.3753  139.9325  178.2808 O   0  0  0  0  0  0  0  0  0  0  0  0
  148.6129  138.6423  177.7469 O   0  0  0  0  0  0  0  0  0  0  0  0
  151.2385  139.6729  177.7842 H   0  0  0  0  0  0  0  0  0  0  0  0
 17 18  1  0  0  0
 18 19  1  0  0  0
 18 20  1  0  0  0
 18 11  1  0  0  0
 11 12  2  0  0  0
 12 13  1  0  0  0
 13 14  2  0  0  0
 14 15  1  0  0  0
 15 16  2  0  0  0
 14  1  1  0  0  0
  1  2  2  0  0  0
  2  3  1  0  0  0
  3  4  2  0  0  0
  4  5  1  0  0  0
  5  6  2  0  0  0
  6  7  1  0  0  0
  7  8  2  0  0  0
  8  9  1  0  0  0
  5 21  1  0  0  0
 21 22  2  0  0  0
 21 23  1  0  0  0
 23 25  1  0  0  0
 25 26  1  0  0  0
 26 27  1  0  0  0
 27 28  1  0  0  0
 28 29  1  0  0  0
 29 30  1  0  0  0
 28 31  1  0  0  0
 31 32  1  0  0  0
 31 33  2  0  0  0
 16 11  1  0  0  0
  9  1  1  0  0  0
 30 25  1  0  0  0
  8  3  1  0  0  0
  9 10  1  0  0  0
 23 24  1  0  0  0
 32 34  1  0  0  0
M  END
> <minimizedAffinity>
-4.23028

> <CNNscore>
0.3617654443

> <CNNaffinity>
5.5676283836

> <CNN_VS>
2.0141756535

> <CNNaffinity_variance>
1.5161544085

$$$$
[H]OC(=O)[C@]1([H])C([H])([H])C([H])([H])[C@@]([H])(N([H])C(=O)c2c([H])c([H])c3c(nc(-c4c([H])c([H])c(C(C([H])([H])[H])(C([H])([H])[H])C([H])([H])[H])c([H])c4[H])n3[H])c2[H])C([H])([H])C1([H])[H]


 34 37  0  0  0  0  0  0  0  0999 V2000
  151.8889  136.1612  188.5828 C   0  0  0  0  0  0  0  0  0  0  0  0
  151.0886  136.0144  187.5145 N   0  0  0  0  0  0  0  0  0  0  0  0
  151.6205  136.6311  186.4425 C   0  0  0  0  0  0  0  0  0  0  0  0
  151.2316  136.8138  185.1185 C   0  0  0  0  0  0  0  0  0  0  0  0
  151.9919  137.5240  184.2308 C   0  0  0  0  0  0  0  0  0  0  0  0
  153.1711  138.0567  184.7013 C   0  0  0  0  0  0  0  0  0  0  0  0
  153.6219  137.9177  185.9946 C   0  0  0  0  0  0  0  0  0  0  0  0
  152.8059  137.1832  186.8643 C   0  0  0  0  0  0  0  0  0  0  0  0
  152.9450  136.8812  188.1747 N   0  0  0  0  0  0  0  0  0  0  0  0
  153.7391  137.1618  188.7601 H   0  0  0  0  0  0  0  0  0  0  0  0
  151.3204  134.7651  192.6026 C   0  0  0  0  0  0  0  0  0  0  0  0
  152.4979  134.5324  191.9219 C   0  0  0  0  0  0  0  0  0  0  0  0
  152.6578  134.9851  190.6263 C   0  0  0  0  0  0  0  0  0  0  0  0
  151.6686  135.6810  189.9591 C   0  0  0  0  0  0  0  0  0  0  0  0
  150.4942  135.9122  190.6378 C   0  0  0  0  0  0  0  0  0  0  0  0
  150.3227  135.4612  191.9405 C   0  0  0  0  0  0  0  0  0  0  0  0
  150.0385  135.1768  194.6858 C   0  0  0  0  0  0  0  0  0  0  0  0
  151.0995  134.3185  193.9970 C   0  0  0  0  0  0  0  0  0  0  0  0
  152.3369  134.4222  194.8625 C   0  0  0  0  0  0  0  0  0  0  0  0
  150.5578  132.8848  194.0246 C   0  0  0  0  0  0  0  0  0  0  0  0
  151.6304  137.7602  182.8525 C   0  0  0  0  0  0  0  0  0  0  0  0
  152.5975  137.7298  181.9909 O   0  0  0  0  0  0  0  0  0  0  0  0
  150.3498  138.0210  182.3433 N   0  0  0  0  0  0  0  0  0  0  0  0
  149.5331  138.0493  182.9833 H   0  0  0  0  0  0  0  0  0  0  0  0
  150.1602  138.2475  180.9333 C   0  0  0  0  0  0  0  0  0  0  0  0
  149.9245  136.8701  180.3167 C   0  0  0  0  0  0  0  0  0  0  0  0
  148.5670  136.3744  180.6772 C   0  0  0  0  0  0  0  0  0  0  0  0
  147.5289  137.2642  180.0014 C   0  0  0  0  0  0  0  0  0  0  0  0
  148.0917  138.5810  179.5642 C   0  0  0  0  0  0  0  0  0  0  0  0
  149.0663  139.1848  180.5779 C   0  0  0  0  0  0  0  0  0  0  0  0
  147.0550  136.5141  178.8125 C   0  0  0  0  0  0  0  0  0  0  0  0
  146.8553  137.2042  177.6227 O   0  0  0  0  0  0  0  0  0  0  0  0
  146.8196  135.2918  178.8046 O   0  0  0  0  0  0  0  0  0  0  0  0
  147.7018  137.3149  177.0479 H   0  0  0  0  0  0  0  0  0  0  0  0
 17 18  1  0  0  0
 18 19  1  0  0  0
 18 20  1  0  0  0
 18 11  1  0  0  0
 11 12  2  0  0  0
 12 13  1  0  0  0
 13 14  2  0  0  0
 14 15  1  0  0  0
 15 16  2  0  0  0
 14  1  1  0  0  0
  1  2  2  0  0  0
  2  3  1  0  0  0
  3  4  2  0  0  0
  4  5  1  0  0  0
  5  6  2  0  0  0
  6  7  1  0  0  0
  7  8  2  0  0  0
  8  9  1  0  0  0
  5 21  1  0  0  0
 21 22  2  0  0  0
 21 23  1  0  0  0
 23 25  1  0  0  0
 25 26  1  0  0  0
 26 27  1  0  0  0
 27 28  1  0  0  0
 28 29  1  0  0  0
 29 30  1  0  0  0
 28 31  1  0  0  0
 31 32  1  0  0  0
 31 33  2  0  0  0
 16 11  1  0  0  0
  9  1  1  0  0  0
 30 25  1  0  0  0
  8  3  1  0  0  0
  9 10  1  0  0  0
 23 24  1  0  0  0
 32 34  1  0  0  0
M  END
> <minimizedAffinity>
-5.17230

> <CNNscore>
0.3152317107

> <CNNaffinity>
5.2563409805

> <CNN_VS>
1.6569653749

> <CNNaffinity_variance>
0.1562214196

$$$$
[H]OC(=O)[C@]1([H])C([H])([H])C([H])([H])[C@@]([H])(N([H])C(=O)c2c([H])c([H])c3c(nc(-c4c([H])c([H])c(C(C([H])([H])[H])(C([H])([H])[H])C([H])([H])[H])c([H])c4[H])n3[H])c2[H])C([H])([H])C1([H])[H]


 34 37  0  0  0  0  0  0  0  0999 V2000
  155.5929  139.0799  185.1348 C   0  0  0  0  0  0  0  0  0  0  0  0
  154.3699  138.6014  184.8549 N   0  0  0  0  0  0  0  0  0  0  0  0
  154.0593  137.5923  185.6901 C   0  0  0  0  0  0  0  0  0  0  0  0
  152.9669  136.7434  185.8448 C   0  0  0  0  0  0  0  0  0  0  0  0
  152.9374  135.7668  186.8018 C   0  0  0  0  0  0  0  0  0  0  0  0
  154.0413  135.6544  187.6170 C   0  0  0  0  0  0  0  0  0  0  0  0
  155.1564  136.4565  187.5253 C   0  0  0  0  0  0  0  0  0  0  0  0
  155.1375  137.4398  186.5280 C   0  0  0  0  0  0  0  0  0  0  0  0
  156.0592  138.3604  186.1669 N   0  0  0  0  0  0  0  0  0  0  0  0
  156.9720  138.4846  186.6180 H   0  0  0  0  0  0  0  0  0  0  0  0
  157.7995  142.1530  183.1054 C   0  0  0  0  0  0  0  0  0  0  0  0
  158.4364  141.0699  183.6759 C   0  0  0  0  0  0  0  0  0  0  0  0
  157.7076  140.0950  184.3299 C   0  0  0  0  0  0  0  0  0  0  0  0
  156.3322  140.1517  184.4434 C   0  0  0  0  0  0  0  0  0  0  0  0
  155.6974  141.2323  183.8753 C   0  0  0  0  0  0  0  0  0  0  0  0
  156.4204  142.2183  183.2157 C   0  0  0  0  0  0  0  0  0  0  0  0
  157.6024  144.3930  182.0585 C   0  0  0  0  0  0  0  0  0  0  0  0
  158.5269  143.2184  182.3784 C   0  0  0  0  0  0  0  0  0  0  0  0
  159.0859  142.7616  181.0480 C   0  0  0  0  0  0  0  0  0  0  0  0
  159.6485  143.7961  183.2489 C   0  0  0  0  0  0  0  0  0  0  0  0
  151.8405  134.8477  186.9966 C   0  0  0  0  0  0  0  0  0  0  0  0
  151.2143  134.9307  188.1278 O   0  0  0  0  0  0  0  0  0  0  0  0
  151.3790  133.8738  186.0987 N   0  0  0  0  0  0  0  0  0  0  0  0
  151.8347  133.7651  185.1724 H   0  0  0  0  0  0  0  0  0  0  0  0
  150.2719  133.0234  186.4541 C   0  0  0  0  0  0  0  0  0  0  0  0
  149.0741  133.5437  185.6619 C   0  0  0  0  0  0  0  0  0  0  0  0
  149.2172  133.1836  184.2238 C   0  0  0  0  0  0  0  0  0  0  0  0
  149.1183  131.6677  184.0898 C   0  0  0  0  0  0  0  0  0  0  0  0
  149.3515  130.9554  185.3860 C   0  0  0  0  0  0  0  0  0  0  0  0
  150.4781  131.5733  186.2173 C   0  0  0  0  0  0  0  0  0  0  0  0
  147.7412  131.3852  183.6156 C   0  0  0  0  0  0  0  0  0  0  0  0
  147.3892  131.7589  182.3240 O   0  0  0  0  0  0  0  0  0  0  0  0
  146.8651  130.8289  184.3029 O   0  0  0  0  0  0  0  0  0  0  0  0
  147.6352  131.0702  181.6000 H   0  0  0  0  0  0  0  0  0  0  0  0
 17 18  1  0  0  0
 18 19  1  0  0  0
 18 20  1  0  0  0
 18 11  1  0  0  0
 11 12  2  0  0  0
 12 13  1  0  0  0
 13 14  2  0  0  0
 14 15  1  0  0  0
 15 16  2  0  0  0
 14  1  1  0  0  0
  1  2  2  0  0  0
  2  3  1  0  0  0
  3  4  2  0  0  0
  4  5  1  0  0  0
  5  6  2  0  0  0
  6  7  1  0  0  0
  7  8  2  0  0  0
  8  9  1  0  0  0
  5 21  1  0  0  0
 21 22  2  0  0  0
 21 23  1  0  0  0
 23 25  1  0  0  0
 25 26  1  0  0  0
 26 27  1  0  0  0
 27 28  1  0  0  0
 28 29  1  0  0  0
 29 30  1  0  0  0
 28 31  1  0  0  0
 31 32  1  0  0  0
 31 33  2  0  0  0
 16 11  1  0  0  0
  9  1  1  0  0  0
 30 25  1  0  0  0
  8  3  1  0  0  0
  9 10  1  0  0  0
 23 24  1  0  0  0
 32 34  1  0  0  0
M  END
> <minimizedAffinity>
-5.13249

> <CNNscore>
0.2698597014

> <CNNaffinity>
5.7315225601

> <CNN_VS>
1.5467069149

> <CNNaffinity_variance>
0.8254049420

$$$$
[H]OC(=O)[C@]1([H])C([H])([H])C([H])([H])[C@@]([H])(N([H])C(=O)c2c([H])c([H])c3c(nc(-c4c([H])c([H])c(C(C([H])([H])[H])(C([H])([H])[H])C([H])([H])[H])c([H])c4[H])n3[H])c2[H])C([H])([H])C1([H])[H]


 34 37  0  0  0  0  0  0  0  0999 V2000
  155.9474  139.3616  185.1592 C   0  0  0  0  0  0  0  0  0  0  0  0
  154.6704  138.9805  185.3247 N   0  0  0  0  0  0  0  0  0  0  0  0
  154.5384  138.2636  186.4566 C   0  0  0  0  0  0  0  0  0  0  0  0
  153.4825  137.6224  187.0981 C   0  0  0  0  0  0  0  0  0  0  0  0
  153.6551  136.9334  188.2668 C   0  0  0  0  0  0  0  0  0  0  0  0
  154.9274  136.8987  188.7920 C   0  0  0  0  0  0  0  0  0  0  0  0
  156.0194  137.5084  188.2167 C   0  0  0  0  0  0  0  0  0  0  0  0
  155.7899  138.1994  187.0202 C   0  0  0  0  0  0  0  0  0  0  0  0
  156.6308  138.8777  186.2076 N   0  0  0  0  0  0  0  0  0  0  0  0
  157.6354  139.0005  186.3742 H   0  0  0  0  0  0  0  0  0  0  0  0
  157.5938  141.6213  181.9012 C   0  0  0  0  0  0  0  0  0  0  0  0
  156.2301  141.5105  182.0809 C   0  0  0  0  0  0  0  0  0  0  0  0
  155.7210  140.7730  183.1327 C   0  0  0  0  0  0  0  0  0  0  0  0
  156.5334  140.1229  184.0411 C   0  0  0  0  0  0  0  0  0  0  0  0
  157.8932  140.2327  183.8612 C   0  0  0  0  0  0  0  0  0  0  0  0
  158.4157  140.9713  182.8070 C   0  0  0  0  0  0  0  0  0  0  0  0
  159.7175  142.2701  180.7963 C   0  0  0  0  0  0  0  0  0  0  0  0
  158.1954  142.4112  180.8028 C   0  0  0  0  0  0  0  0  0  0  0  0
  157.9212  143.8958  180.9126 C   0  0  0  0  0  0  0  0  0  0  0  0
  157.7228  141.8890  179.4414 C   0  0  0  0  0  0  0  0  0  0  0  0
  152.6016  136.2354  188.9662 C   0  0  0  0  0  0  0  0  0  0  0  0
  152.3468  136.6372  190.1712 O   0  0  0  0  0  0  0  0  0  0  0  0
  151.8254  135.1699  188.4870 N   0  0  0  0  0  0  0  0  0  0  0  0
  151.9768  134.8093  187.5256 H   0  0  0  0  0  0  0  0  0  0  0  0
  150.8148  134.5733  189.3225 C   0  0  0  0  0  0  0  0  0  0  0  0
  149.4749  135.0243  188.7446 C   0  0  0  0  0  0  0  0  0  0  0  0
  149.2019  134.3077  187.4678 C   0  0  0  0  0  0  0  0  0  0  0  0
  148.9923  132.8287  187.7753 C   0  0  0  0  0  0  0  0  0  0  0  0
  149.5331  132.4336  189.1144 C   0  0  0  0  0  0  0  0  0  0  0  0
  150.8738  133.0954  189.4406 C   0  0  0  0  0  0  0  0  0  0  0  0
  147.5255  132.6074  187.7537 C   0  0  0  0  0  0  0  0  0  0  0  0
  146.8369  132.5736  188.9605 O   0  0  0  0  0  0  0  0  0  0  0  0
  146.8575  132.4472  186.7157 O   0  0  0  0  0  0  0  0  0  0  0  0
  146.5565  133.4977  189.3162 H   0  0  0  0  0  0  0  0  0  0  0  0
 17 18  1  0  0  0
 18 19  1  0  0  0
 18 20  1  0  0  0
 18 11  1  0  0  0
 11 12  2  0  0  0
 12 13  1  0  0  0
 13 14  2  0  0  0
 14 15  1  0  0  0
 15 16  2  0  0  0
 14  1  1  0  0  0
  1  2  2  0  0  0
  2  3  1  0  0  0
  3  4  2  0  0  0
  4  5  1  0  0  0
  5  6  2  0  0  0
  6  7  1  0  0  0
  7  8  2  0  0  0
  8  9  1  0  0  0
  5 21  1  0  0  0
 21 22  2  0  0  0
 21 23  1  0  0  0
 23 25  1  0  0  0
 25 26  1  0  0  0
 26 27  1  0  0  0
 27 28  1  0  0  0
 28 29  1  0  0  0
 29 30  1  0  0  0
 28 31  1  0  0  0
 31 32  1  0  0  0
 31 33  2  0  0  0
 16 11  1  0  0  0
  9  1  1  0  0  0
 30 25  1  0  0  0
  8  3  1  0  0  0
  9 10  1  0  0  0
 23 24  1  0  0  0
 32 34  1  0  0  0
M  END
> <minimizedAffinity>
-5.75888

> <CNNscore>
0.2518041432

> <CNNaffinity>
5.7403459549

> <CNN_VS>
1.4454429150

> <CNNaffinity_variance>
0.5913192034

$$$$
[H]OC(=O)[C@]1([H])C([H])([H])C([H])([H])[C@@]([H])(N([H])C(=O)c2c([H])c([H])c3c(nc(-c4c([H])c([H])c(C(C([H])([H])[H])(C([H])([H])[H])C([H])([H])[H])c([H])c4[H])n3[H])c2[H])C([H])([H])C1([H])[H]


 34 37  0  0  0  0  0  0  0  0999 V2000
  155.7256  139.3696  185.0961 C   0  0  0  0  0  0  0  0  0  0  0  0
  154.4178  139.1945  185.3452 N   0  0  0  0  0  0  0  0  0  0  0  0
  154.2471  138.3682  186.3942 C   0  0  0  0  0  0  0  0  0  0  0  0
  153.1461  137.8387  187.0611 C   0  0  0  0  0  0  0  0  0  0  0  0
  153.2820  136.9825  188.1190 C   0  0  0  0  0  0  0  0  0  0  0  0
  154.5640  136.6616  188.5050 C   0  0  0  0  0  0  0  0  0  0  0  0
  155.6999  137.1455  187.8962 C   0  0  0  0  0  0  0  0  0  0  0  0
  155.5065  138.0169  186.8168 C   0  0  0  0  0  0  0  0  0  0  0  0
  156.3901  138.6421  186.0069 N   0  0  0  0  0  0  0  0  0  0  0  0
  157.4102  138.5679  186.0838 H   0  0  0  0  0  0  0  0  0  0  0  0
  157.6014  141.6225  181.9596 C   0  0  0  0  0  0  0  0  0  0  0  0
  158.3421  140.8468  182.8278 C   0  0  0  0  0  0  0  0  0  0  0  0
  157.7190  140.1344  183.8344 C   0  0  0  0  0  0  0  0  0  0  0  0
  156.3505  140.1597  184.0197 C   0  0  0  0  0  0  0  0  0  0  0  0
  155.6120  140.9339  183.1545 C   0  0  0  0  0  0  0  0  0  0  0  0
  156.2284  141.6545  182.1392 C   0  0  0  0  0  0  0  0  0  0  0  0
  159.7372  142.2801  180.8836 C   0  0  0  0  0  0  0  0  0  0  0  0
  158.2131  142.3933  180.8531 C   0  0  0  0  0  0  0  0  0  0  0  0
  157.9100  143.8749  180.9160 C   0  0  0  0  0  0  0  0  0  0  0  0
  157.7802  141.8256  179.4968 C   0  0  0  0  0  0  0  0  0  0  0  0
  152.1774  136.3896  188.8363 C   0  0  0  0  0  0  0  0  0  0  0  0
  151.1856  135.9668  188.1179 O   0  0  0  0  0  0  0  0  0  0  0  0
  152.0579  136.2226  190.2239 N   0  0  0  0  0  0  0  0  0  0  0  0
  152.8239  136.5337  190.8515 H   0  0  0  0  0  0  0  0  0  0  0  0
  150.8766  135.6180  190.7843 C   0  0  0  0  0  0  0  0  0  0  0  0
  151.3072  134.2381  191.2778 C   0  0  0  0  0  0  0  0  0  0  0  0
  152.1319  134.3708  192.5110 C   0  0  0  0  0  0  0  0  0  0  0  0
  151.2472  134.9046  193.6327 C   0  0  0  0  0  0  0  0  0  0  0  0
  149.9935  135.5471  193.1252 C   0  0  0  0  0  0  0  0  0  0  0  0
  150.2162  136.3888  191.8667 C   0  0  0  0  0  0  0  0  0  0  0  0
  150.8934  133.7330  194.4711 C   0  0  0  0  0  0  0  0  0  0  0  0
  149.5693  133.5636  194.8583 O   0  0  0  0  0  0  0  0  0  0  0  0
  151.7106  132.8777  194.8585 O   0  0  0  0  0  0  0  0  0  0  0  0
  148.9830  133.0762  194.1671 H   0  0  0  0  0  0  0  0  0  0  0  0
 17 18  1  0  0  0
 18 19  1  0  0  0
 18 20  1  0  0  0
 18 11  1  0  0  0
 11 12  2  0  0  0
 12 13  1  0  0  0
 13 14  2  0  0  0
 14 15  1  0  0  0
 15 16  2  0  0  0
 14  1  1  0  0  0
  1  2  2  0  0  0
  2  3  1  0  0  0
  3  4  2  0  0  0
  4  5  1  0  0  0
  5  6  2  0  0  0
  6  7  1  0  0  0
  7  8  2  0  0  0
  8  9  1  0  0  0
  5 21  1  0  0  0
 21 22  2  0  0  0
 21 23  1  0  0  0
 23 25  1  0  0  0
 25 26  1  0  0  0
 26 27  1  0  0  0
 27 28  1  0  0  0
 28 29  1  0  0  0
 29 30  1  0  0  0
 28 31  1  0  0  0
 31 32  1  0  0  0
 31 33  2  0  0  0
 16 11  1  0  0  0
  9  1  1  0  0  0
 30 25  1  0  0  0
  8  3  1  0  0  0
  9 10  1  0  0  0
 23 24  1  0  0  0
 32 34  1  0  0  0
M  END
> <minimizedAffinity>
-7.20316

> <CNNscore>
0.2441188544

> <CNNaffinity>
5.6758537292

> <CNN_VS>
1.3855829239

> <CNNaffinity_variance>
0.2875671983

$$$$
[H]OC(=O)[C@]1([H])C([H])([H])C([H])([H])[C@@]([H])(N([H])C(=O)c2c([H])c([H])c3c(nc(-c4c([H])c([H])c(C(C([H])([H])[H])(C([H])([H])[H])C([H])([H])[H])c([H])c4[H])n3[H])c2[H])C([H])([H])C1([H])[H]


 34 37  0  0  0  0  0  0  0  0999 V2000
  155.0726  138.7656  184.9137 C   0  0  0  0  0  0  0  0  0  0  0  0
  155.0102  138.6129  186.2463 N   0  0  0  0  0  0  0  0  0  0  0  0
  154.2902  137.5192  186.5593 C   0  0  0  0  0  0  0  0  0  0  0  0
  153.8968  136.9061  187.7454 C   0  0  0  0  0  0  0  0  0  0  0  0
  153.1267  135.7758  187.7566 C   0  0  0  0  0  0  0  0  0  0  0  0
  152.7521  135.2605  186.5360 C   0  0  0  0  0  0  0  0  0  0  0  0
  153.1027  135.8094  185.3233 C   0  0  0  0  0  0  0  0  0  0  0  0
  153.8902  136.9669  185.3665 C   0  0  0  0  0  0  0  0  0  0  0  0
  154.3814  137.7478  184.3783 N   0  0  0  0  0  0  0  0  0  0  0  0
  154.2438  137.5808  183.3757 H   0  0  0  0  0  0  0  0  0  0  0  0
  156.9243  141.9608  182.7242 C   0  0  0  0  0  0  0  0  0  0  0  0
  155.6407  142.0780  183.2169 C   0  0  0  0  0  0  0  0  0  0  0  0
  155.0612  141.0350  183.9137 C   0  0  0  0  0  0  0  0  0  0  0  0
  155.7230  139.8458  184.1498 C   0  0  0  0  0  0  0  0  0  0  0  0
  157.0026  139.7287  183.6577 C   0  0  0  0  0  0  0  0  0  0  0  0
  157.5947  140.7710  182.9555 C   0  0  0  0  0  0  0  0  0  0  0  0
  157.9065  142.6313  180.5476 C   0  0  0  0  0  0  0  0  0  0  0  0
  157.6015  143.0509  181.9855 C   0  0  0  0  0  0  0  0  0  0  0  0
  158.9321  143.4469  182.5887 C   0  0  0  0  0  0  0  0  0  0  0  0
  156.6881  144.2770  181.8768 C   0  0  0  0  0  0  0  0  0  0  0  0
  152.6748  135.1078  188.9548 C   0  0  0  0  0  0  0  0  0  0  0  0
  152.6791  133.8125  188.9277 O   0  0  0  0  0  0  0  0  0  0  0  0
  152.2297  135.7050  190.1434 N   0  0  0  0  0  0  0  0  0  0  0  0
  152.2115  136.7393  190.2289 H   0  0  0  0  0  0  0  0  0  0  0  0
  151.7990  134.8894  191.2499 C   0  0  0  0  0  0  0  0  0  0  0  0
  150.4368  135.4388  191.6688 C   0  0  0  0  0  0  0  0  0  0  0  0
  149.4038  135.0651  190.6630 C   0  0  0  0  0  0  0  0  0  0  0  0
  149.2177  133.5518  190.6961 C   0  0  0  0  0  0  0  0  0  0  0  0
  150.3630  132.8418  191.3488 C   0  0  0  0  0  0  0  0  0  0  0  0
  151.7256  133.4323  190.9795 C   0  0  0  0  0  0  0  0  0  0  0  0
  147.9796  133.3060  191.4756 C   0  0  0  0  0  0  0  0  0  0  0  0
  148.0927  132.9387  192.8114 O   0  0  0  0  0  0  0  0  0  0  0  0
  146.8291  133.4068  191.0114 O   0  0  0  0  0  0  0  0  0  0  0  0
  148.1856  133.7294  193.4635 H   0  0  0  0  0  0  0  0  0  0  0  0
 17 18  1  0  0  0
 18 19  1  0  0  0
 18 20  1  0  0  0
 18 11  1  0  0  0
 11 12  2  0  0  0
 12 13  1  0  0  0
 13 14  2  0  0  0
 14 15  1  0  0  0
 15 16  2  0  0  0
 14  1  1  0  0  0
  1  2  2  0  0  0
  2  3  1  0  0  0
  3  4  2  0  0  0
  4  5  1  0  0  0
  5  6  2  0  0  0
  6  7  1  0  0  0
  7  8  2  0  0  0
  8  9  1  0  0  0
  5 21  1  0  0  0
 21 22  2  0  0  0
 21 23  1  0  0  0
 23 25  1  0  0  0
 25 26  1  0  0  0
 26 27  1  0  0  0
 27 28  1  0  0  0
 28 29  1  0  0  0
 29 30  1  0  0  0
 28 31  1  0  0  0
 31 32  1  0  0  0
 31 33  2  0  0  0
 16 11  1  0  0  0
  9  1  1  0  0  0
 30 25  1  0  0  0
  8  3  1  0  0  0
  9 10  1  0  0  0
 23 24  1  0  0  0
 32 34  1  0  0  0
M  END
> <minimizedAffinity>
-6.13717

> <CNNscore>
0.2384840697

> <CNNaffinity>
5.7048392296

> <CNN_VS>
1.3605133295

> <CNNaffinity_variance>
0.5332220197

$$$$
[H]c1nc(Oc2c([H])c([H])c(C(F)(F)F)c([H])c2C(=O)N([H])c2c([H])c([H])n([H])c(=O)c2[H])c([H])c([H])c1F


 30 32  0  0  0  0  0  0  0  0999 V2000
  155.8821  140.0328  183.6197 C   0  0  0  0  0  0  0  0  0  0  0  0
  157.0734  140.5126  184.2087 C   0  0  0  0  0  0  0  0  0  0  0  0
  157.6249  141.7082  183.7986 C   0  0  0  0  0  0  0  0  0  0  0  0
  157.0426  142.4701  182.8133 C   0  0  0  0  0  0  0  0  0  0  0  0
  155.8834  142.0094  182.2459 C   0  0  0  0  0  0  0  0  0  0  0  0
  155.2997  140.7656  182.6717 C   0  0  0  0  0  0  0  0  0  0  0  0
  153.9125  140.5990  182.1893 C   0  0  0  0  0  0  0  0  0  0  0  0
  153.1757  141.5905  182.1297 O   0  0  0  0  0  0  0  0  0  0  0  0
  153.3820  139.3565  181.7813 N   0  0  0  0  0  0  0  0  0  0  0  0
  153.8627  138.4434  181.8178 H   0  0  0  0  0  0  0  0  0  0  0  0
  152.0264  139.2635  181.2676 C   0  0  0  0  0  0  0  0  0  0  0  0
  151.7999  139.5023  179.9288 C   0  0  0  0  0  0  0  0  0  0  0  0
  150.4984  139.4699  179.4616 C   0  0  0  0  0  0  0  0  0  0  0  0
  149.4323  139.2181  180.2374 N   0  0  0  0  0  0  0  0  0  0  0  0
  149.6726  138.9870  181.5391 C   0  0  0  0  0  0  0  0  0  0  0  0
  148.6870  138.7445  182.3026 O   0  0  0  0  0  0  0  0  0  0  0  0
  150.9425  139.0051  182.0697 C   0  0  0  0  0  0  0  0  0  0  0  0
  148.4583  139.2012  179.8693 H   0  0  0  0  0  0  0  0  0  0  0  0
  157.6769  143.7614  182.3706 C   0  0  0  0  0  0  0  0  0  0  0  0
  158.0224  143.6590  181.0173 F   0  0  0  0  0  0  0  0  0  0  0  0
  158.8637  143.8951  183.0453 F   0  0  0  0  0  0  0  0  0  0  0  0
  156.8289  144.8182  182.4802 F   0  0  0  0  0  0  0  0  0  0  0  0
  155.4072  138.8067  184.0826 O   0  0  0  0  0  0  0  0  0  0  0  0
  153.6166  138.1306  189.2559 F   0  0  0  0  0  0  0  0  0  0  0  0
  154.0431  138.2996  187.9954 C   0  0  0  0  0  0  0  0  0  0  0  0
  153.1500  138.7395  187.0543 C   0  0  0  0  0  0  0  0  0  0  0  0
  153.6392  138.9009  185.7473 C   0  0  0  0  0  0  0  0  0  0  0  0
  154.9016  138.6564  185.3711 C   0  0  0  0  0  0  0  0  0  0  0  0
  155.7573  138.2163  186.3513 N   0  0  0  0  0  0  0  0  0  0  0  0
  155.3396  138.0482  187.6031 C   0  0  0  0  0  0  0  0  0  0  0  0
 24 25  1  0  0  0
 25 26  2  0  0  0
 26 27  1  0  0  0
 27 28  2  0  0  0
 28 23  1  0  0  0
 23  1  1  0  0  0
  1  2  2  0  0  0
  2  3  1  0  0  0
  3  4  2  0  0  0
  4  5  1  0  0  0
  5  6  2  0  0  0
  6  7  1  0  0  0
  7  8  2  0  0  0
  7  9  1  0  0  0
  9 11  1  0  0  0
 11 12  1  0  0  0
 12 13  2  0  0  0
 13 14  1  0  0  0
 14 15  1  0  0  0
 15 16  2  0  0  0
 15 17  1  0  0  0
  4 19  1  0  0  0
 19 20  1  0  0  0
 19 21  1  0  0  0
 19 22  1  0  0  0
 28 29  1  0  0  0
 29 30  2  0  0  0
 30 25  1  0  0  0
  6  1  1  0  0  0
 17 11  2  0  0  0
  9 10  1  0  0  0
 14 18  1  0  0  0
M  END
> <minimizedAffinity>
-8.35117

> <CNNscore>
0.5261543989

> <CNNaffinity>
6.0853586197

> <CNN_VS>
3.2018382549

> <CNNaffinity_variance>
0.0443567708

$$$$
[H]c1nc(Oc2c([H])c([H])c(C(F)(F)F)c([H])c2C(=O)N([H])c2c([H])c([H])n([H])c(=O)c2[H])c([H])c([H])c1F


 30 32  0  0  0  0  0  0  0  0999 V2000
  155.7920  141.9274  183.2060 C   0  0  0  0  0  0  0  0  0  0  0  0
  154.4244  141.7265  182.9133 C   0  0  0  0  0  0  0  0  0  0  0  0
  153.8195  140.5184  183.1895 C   0  0  0  0  0  0  0  0  0  0  0  0
  154.5159  139.4762  183.7544 C   0  0  0  0  0  0  0  0  0  0  0  0
  155.8407  139.6718  184.0451 C   0  0  0  0  0  0  0  0  0  0  0  0
  156.4774  140.9306  183.7642 C   0  0  0  0  0  0  0  0  0  0  0  0
  157.7904  141.0598  184.4307 C   0  0  0  0  0  0  0  0  0  0  0  0
  158.2967  140.0612  184.9560 O   0  0  0  0  0  0  0  0  0  0  0  0
  158.5075  142.2738  184.4926 N   0  0  0  0  0  0  0  0  0  0  0  0
  158.1910  143.1910  184.1395 H   0  0  0  0  0  0  0  0  0  0  0  0
  159.8179  142.3281  185.1170 C   0  0  0  0  0  0  0  0  0  0  0  0
  159.9138  142.6995  186.4412 C   0  0  0  0  0  0  0  0  0  0  0  0
  161.1704  142.8058  187.0095 C   0  0  0  0  0  0  0  0  0  0  0  0
  162.3129  142.5679  186.3462 N   0  0  0  0  0  0  0  0  0  0  0  0
  162.1995  142.2065  185.0569 C   0  0  0  0  0  0  0  0  0  0  0  0
  163.2603  141.9729  184.3986 O   0  0  0  0  0  0  0  0  0  0  0  0
  160.9807  142.0827  184.4295 C   0  0  0  0  0  0  0  0  0  0  0  0
  163.2512  142.6565  186.7891 H   0  0  0  0  0  0  0  0  0  0  0  0
  153.8358  138.1612  184.0266 C   0  0  0  0  0  0  0  0  0  0  0  0
  152.8888  137.9215  183.0230 F   0  0  0  0  0  0  0  0  0  0  0  0
  153.1172  138.2963  185.1871 F   0  0  0  0  0  0  0  0  0  0  0  0
  154.7043  137.1156  184.0044 F   0  0  0  0  0  0  0  0  0  0  0  0
  156.3243  143.1725  182.8757 O   0  0  0  0  0  0  0  0  0  0  0  0
  160.2492  143.9314  179.0749 F   0  0  0  0  0  0  0  0  0  0  0  0
  159.2923  143.7378  179.9947 C   0  0  0  0  0  0  0  0  0  0  0  0
  158.4163  142.6989  179.8212 C   0  0  0  0  0  0  0  0  0  0  0  0
  157.4297  142.5342  180.8076 C   0  0  0  0  0  0  0  0  0  0  0  0
  157.2950  143.3154  181.8878 C   0  0  0  0  0  0  0  0  0  0  0  0
  158.1969  144.3435  182.0151 N   0  0  0  0  0  0  0  0  0  0  0  0
  159.1486  144.5389  181.1062 C   0  0  0  0  0  0  0  0  0  0  0  0
 24 25  1  0  0  0
 25 26  2  0  0  0
 26 27  1  0  0  0
 27 28  2  0  0  0
 28 23  1  0  0  0
 23  1  1  0  0  0
  1  2  2  0  0  0
  2  3  1  0  0  0
  3  4  2  0  0  0
  4  5  1  0  0  0
  5  6  2  0  0  0
  6  7  1  0  0  0
  7  8  2  0  0  0
  7  9  1  0  0  0
  9 11  1  0  0  0
 11 12  1  0  0  0
 12 13  2  0  0  0
 13 14  1  0  0  0
 14 15  1  0  0  0
 15 16  2  0  0  0
 15 17  1  0  0  0
  4 19  1  0  0  0
 19 20  1  0  0  0
 19 21  1  0  0  0
 19 22  1  0  0  0
 28 29  1  0  0  0
 29 30  2  0  0  0
 30 25  1  0  0  0
  6  1  1  0  0  0
 17 11  2  0  0  0
  9 10  1  0  0  0
 14 18  1  0  0  0
M  END
> <minimizedAffinity>
-9.82302

> <CNNscore>
0.5030437708

> <CNNaffinity>
6.9234046936

> <CNN_VS>
3.4827756882

> <CNNaffinity_variance>
0.1512937844

$$$$
[H]c1nc(Oc2c([H])c([H])c(C(F)(F)F)c([H])c2C(=O)N([H])c2c([H])c([H])n([H])c(=O)c2[H])c([H])c([H])c1F


 30 32  0  0  0  0  0  0  0  0999 V2000
  153.5358  136.8423  185.7531 C   0  0  0  0  0  0  0  0  0  0  0  0
  154.4734  137.5308  184.9511 C   0  0  0  0  0  0  0  0  0  0  0  0
  154.0622  138.2244  183.8324 C   0  0  0  0  0  0  0  0  0  0  0  0
  152.7395  138.2725  183.4600 C   0  0  0  0  0  0  0  0  0  0  0  0
  151.8281  137.6109  184.2406 C   0  0  0  0  0  0  0  0  0  0  0  0
  152.2488  136.8891  185.4115 C   0  0  0  0  0  0  0  0  0  0  0  0
  151.1151  136.5232  186.2865 C   0  0  0  0  0  0  0  0  0  0  0  0
  150.0859  137.2082  186.2517 O   0  0  0  0  0  0  0  0  0  0  0  0
  151.1429  135.4170  187.1625 N   0  0  0  0  0  0  0  0  0  0  0  0
  151.9439  134.7870  187.3284 H   0  0  0  0  0  0  0  0  0  0  0  0
  149.9784  135.0761  187.9611 C   0  0  0  0  0  0  0  0  0  0  0  0
  149.8886  135.5527  189.2516 C   0  0  0  0  0  0  0  0  0  0  0  0
  148.8052  135.1736  190.0234 C   0  0  0  0  0  0  0  0  0  0  0  0
  147.8267  134.3631  189.5904 N   0  0  0  0  0  0  0  0  0  0  0  0
  147.9308  133.9091  188.3299 C   0  0  0  0  0  0  0  0  0  0  0  0
  147.0221  133.1403  187.8868 O   0  0  0  0  0  0  0  0  0  0  0  0
  148.9825  134.2463  187.5087 C   0  0  0  0  0  0  0  0  0  0  0  0
  147.0195  134.0848  190.1867 H   0  0  0  0  0  0  0  0  0  0  0  0
  152.3208  139.0202  182.2225 C   0  0  0  0  0  0  0  0  0  0  0  0
  150.9222  139.0334  182.1493 F   0  0  0  0  0  0  0  0  0  0  0  0
  152.7402  138.2955  181.1361 F   0  0  0  0  0  0  0  0  0  0  0  0
  152.7250  140.3181  182.2411 F   0  0  0  0  0  0  0  0  0  0  0  0
  154.0430  136.1526  186.8530 O   0  0  0  0  0  0  0  0  0  0  0  0
  156.3727  138.6341  191.1937 F   0  0  0  0  0  0  0  0  0  0  0  0
  155.7992  138.0383  190.1375 C   0  0  0  0  0  0  0  0  0  0  0  0
  154.6102  138.5336  189.6708 C   0  0  0  0  0  0  0  0  0  0  0  0
  154.0448  137.8781  188.5643 C   0  0  0  0  0  0  0  0  0  0  0  0
  154.5864  136.8188  187.9482 C   0  0  0  0  0  0  0  0  0  0  0  0
  155.7777  136.3599  188.4549 N   0  0  0  0  0  0  0  0  0  0  0  0
  156.3512  136.9481  189.5014 C   0  0  0  0  0  0  0  0  0  0  0  0
 24 25  1  0  0  0
 25 26  2  0  0  0
 26 27  1  0  0  0
 27 28  2  0  0  0
 28 23  1  0  0  0
 23  1  1  0  0  0
  1  2  2  0  0  0
  2  3  1  0  0  0
  3  4  2  0  0  0
  4  5  1  0  0  0
  5  6  2  0  0  0
  6  7  1  0  0  0
  7  8  2  0  0  0
  7  9  1  0  0  0
  9 11  1  0  0  0
 11 12  1  0  0  0
 12 13  2  0  0  0
 13 14  1  0  0  0
 14 15  1  0  0  0
 15 16  2  0  0  0
 15 17  1  0  0  0
  4 19  1  0  0  0
 19 20  1  0  0  0
 19 21  1  0  0  0
 19 22  1  0  0  0
 28 29  1  0  0  0
 29 30  2  0  0  0
 30 25  1  0  0  0
  6  1  1  0  0  0
 17 11  2  0  0  0
  9 10  1  0  0  0
 14 18  1  0  0  0
M  END
> <minimizedAffinity>
-5.38754

> <CNNscore>
0.4852678478

> <CNNaffinity>
5.5517611504

> <CNN_VS>
2.6940910816

> <CNNaffinity_variance>
0.1522140205

$$$$
[H]c1nc(Oc2c([H])c([H])c(C(F)(F)F)c([H])c2C(=O)N([H])c2c([H])c([H])n([H])c(=O)c2[H])c([H])c([H])c1F


 30 32  0  0  0  0  0  0  0  0999 V2000
  156.0175  139.5175  184.3545 C   0  0  0  0  0  0  0  0  0  0  0  0
  157.2299  139.8010  185.0224 C   0  0  0  0  0  0  0  0  0  0  0  0
  158.0486  140.8207  184.5845 C   0  0  0  0  0  0  0  0  0  0  0  0
  157.7193  141.5917  183.4948 C   0  0  0  0  0  0  0  0  0  0  0  0
  156.5405  141.3223  182.8501 C   0  0  0  0  0  0  0  0  0  0  0  0
  155.6792  140.2634  183.3037 C   0  0  0  0  0  0  0  0  0  0  0  0
  154.3319  140.3343  182.7000 C   0  0  0  0  0  0  0  0  0  0  0  0
  153.7536  141.4264  182.6515 O   0  0  0  0  0  0  0  0  0  0  0  0
  153.6675  139.2108  182.1632 N   0  0  0  0  0  0  0  0  0  0  0  0
  154.0067  138.2356  182.1735 H   0  0  0  0  0  0  0  0  0  0  0  0
  152.3648  139.3513  181.5360 C   0  0  0  0  0  0  0  0  0  0  0  0
  151.2451  138.9182  182.2137 C   0  0  0  0  0  0  0  0  0  0  0  0
  150.0165  139.0016  181.5838 C   0  0  0  0  0  0  0  0  0  0  0  0
  149.8447  139.4823  180.3423 N   0  0  0  0  0  0  0  0  0  0  0  0
  150.9471  139.9003  179.6977 C   0  0  0  0  0  0  0  0  0  0  0  0
  150.8216  140.3620  178.5211 O   0  0  0  0  0  0  0  0  0  0  0  0
  152.1997  139.8447  180.2654 C   0  0  0  0  0  0  0  0  0  0  0  0
  148.9122  139.5345  179.8817 H   0  0  0  0  0  0  0  0  0  0  0  0
  158.6413  142.6853  183.0258 C   0  0  0  0  0  0  0  0  0  0  0  0
  159.4644  143.0749  184.0898 F   0  0  0  0  0  0  0  0  0  0  0  0
  157.8714  143.7825  182.7340 F   0  0  0  0  0  0  0  0  0  0  0  0
  159.4632  142.2744  182.0239 F   0  0  0  0  0  0  0  0  0  0  0  0
  155.2630  138.4575  184.8545 O   0  0  0  0  0  0  0  0  0  0  0  0
  153.9583  138.0349  190.1974 F   0  0  0  0  0  0  0  0  0  0  0  0
  154.2846  138.1331  188.9000 C   0  0  0  0  0  0  0  0  0  0  0  0
  155.5630  137.8200  188.5198 C   0  0  0  0  0  0  0  0  0  0  0  0
  155.8612  137.9384  187.1520 C   0  0  0  0  0  0  0  0  0  0  0  0
  154.9890  138.3307  186.2137 C   0  0  0  0  0  0  0  0  0  0  0  0
  153.7211  138.6342  186.6460 N   0  0  0  0  0  0  0  0  0  0  0  0
  153.3922  138.5373  187.9315 C   0  0  0  0  0  0  0  0  0  0  0  0
 24 25  1  0  0  0
 25 26  2  0  0  0
 26 27  1  0  0  0
 27 28  2  0  0  0
 28 23  1  0  0  0
 23  1  1  0  0  0
  1  2  2  0  0  0
  2  3  1  0  0  0
  3  4  2  0  0  0
  4  5  1  0  0  0
  5  6  2  0  0  0
  6  7  1  0  0  0
  7  8  2  0  0  0
  7  9  1  0  0  0
  9 11  1  0  0  0
 11 12  1  0  0  0
 12 13  2  0  0  0
 13 14  1  0  0  0
 14 15  1  0  0  0
 15 16  2  0  0  0
 15 17  1  0  0  0
  4 19  1  0  0  0
 19 20  1  0  0  0
 19 21  1  0  0  0
 19 22  1  0  0  0
 28 29  1  0  0  0
 29 30  2  0  0  0
 30 25  1  0  0  0
  6  1  1  0  0  0
 17 11  2  0  0  0
  9 10  1  0  0  0
 14 18  1  0  0  0
M  END
> <minimizedAffinity>
-8.40600

> <CNNscore>
0.4692406952

> <CNNaffinity>
6.1058135033

> <CNN_VS>
2.8650960922

> <CNNaffinity_variance>
0.0663367137

$$$$
[H]c1nc(Oc2c([H])c([H])c(C(F)(F)F)c([H])c2C(=O)N([H])c2c([H])c([H])n([H])c(=O)c2[H])c([H])c([H])c1F


 30 32  0  0  0  0  0  0  0  0999 V2000
  152.6983  135.9477  186.1819 C   0  0  0  0  0  0  0  0  0  0  0  0
  153.1993  136.4874  184.9761 C   0  0  0  0  0  0  0  0  0  0  0  0
  152.3400  137.0107  184.0330 C   0  0  0  0  0  0  0  0  0  0  0  0
  150.9791  137.0277  184.2286 C   0  0  0  0  0  0  0  0  0  0  0  0
  150.4923  136.5107  185.4006 C   0  0  0  0  0  0  0  0  0  0  0  0
  151.3827  135.9675  186.3910 C   0  0  0  0  0  0  0  0  0  0  0  0
  150.7179  135.7615  187.6951 C   0  0  0  0  0  0  0  0  0  0  0  0
  149.5861  136.2279  187.8710 O   0  0  0  0  0  0  0  0  0  0  0  0
  151.3100  135.0463  188.7579 N   0  0  0  0  0  0  0  0  0  0  0  0
  152.2600  134.6418  188.7700 H   0  0  0  0  0  0  0  0  0  0  0  0
  150.5868  134.8323  189.9993 C   0  0  0  0  0  0  0  0  0  0  0  0
  149.6927  133.7862  190.0817 C   0  0  0  0  0  0  0  0  0  0  0  0
  148.9655  133.6271  191.2475 C   0  0  0  0  0  0  0  0  0  0  0  0
  149.0769  134.4352  192.3135 N   0  0  0  0  0  0  0  0  0  0  0  0
  149.9536  135.4487  192.2151 C   0  0  0  0  0  0  0  0  0  0  0  0
  150.0854  136.2330  193.2055 O   0  0  0  0  0  0  0  0  0  0  0  0
  150.7081  135.6648  191.0844 C   0  0  0  0  0  0  0  0  0  0  0  0
  148.5184  134.3028  193.1825 H   0  0  0  0  0  0  0  0  0  0  0  0
  150.0624  137.5865  183.1735 C   0  0  0  0  0  0  0  0  0  0  0  0
  148.8716  138.0056  183.7799 F   0  0  0  0  0  0  0  0  0  0  0  0
  149.7092  136.5557  182.3403 F   0  0  0  0  0  0  0  0  0  0  0  0
  150.5909  138.6745  182.5530 F   0  0  0  0  0  0  0  0  0  0  0  0
  153.6376  135.4236  187.0685 O   0  0  0  0  0  0  0  0  0  0  0  0
  157.0116  138.5098  190.1537 F   0  0  0  0  0  0  0  0  0  0  0  0
  156.1845  137.7672  189.4027 C   0  0  0  0  0  0  0  0  0  0  0  0
  154.9417  138.2634  189.1094 C   0  0  0  0  0  0  0  0  0  0  0  0
  154.1083  137.4519  188.3217 C   0  0  0  0  0  0  0  0  0  0  0  0
  154.4474  136.2454  187.8479 C   0  0  0  0  0  0  0  0  0  0  0  0
  155.7032  135.7925  188.1709 N   0  0  0  0  0  0  0  0  0  0  0  0
  156.5276  136.5256  188.9144 C   0  0  0  0  0  0  0  0  0  0  0  0
 24 25  1  0  0  0
 25 26  2  0  0  0
 26 27  1  0  0  0
 27 28  2  0  0  0
 28 23  1  0  0  0
 23  1  1  0  0  0
  1  2  2  0  0  0
  2  3  1  0  0  0
  3  4  2  0  0  0
  4  5  1  0  0  0
  5  6  2  0  0  0
  6  7  1  0  0  0
  7  8  2  0  0  0
  7  9  1  0  0  0
  9 11  1  0  0  0
 11 12  1  0  0  0
 12 13  2  0  0  0
 13 14  1  0  0  0
 14 15  1  0  0  0
 15 16  2  0  0  0
 15 17  1  0  0  0
  4 19  1  0  0  0
 19 20  1  0  0  0
 19 21  1  0  0  0
 19 22  1  0  0  0
 28 29  1  0  0  0
 29 30  2  0  0  0
 30 25  1  0  0  0
  6  1  1  0  0  0
 17 11  2  0  0  0
  9 10  1  0  0  0
 14 18  1  0  0  0
M  END
> <minimizedAffinity>
-4.92875

> <CNNscore>
0.4630956948

> <CNNaffinity>
5.6928548813

> <CNN_VS>
2.6363365650

> <CNNaffinity_variance>
0.5693609118

$$$$
[H]c1nc(Oc2c([H])c([H])c(C(F)(F)F)c([H])c2C(=O)N([H])c2c([H])c([H])n([H])c(=O)c2[H])c([H])c([H])c1F


 30 32  0  0  0  0  0  0  0  0999 V2000
  155.9847  140.1297  183.1158 C   0  0  0  0  0  0  0  0  0  0  0  0
  154.5858  139.9333  183.0834 C   0  0  0  0  0  0  0  0  0  0  0  0
  153.9321  139.3748  184.1616 C   0  0  0  0  0  0  0  0  0  0  0  0
  154.6087  138.9935  185.2961 C   0  0  0  0  0  0  0  0  0  0  0  0
  155.9645  139.1896  185.3317 C   0  0  0  0  0  0  0  0  0  0  0  0
  156.6527  139.7758  184.2129 C   0  0  0  0  0  0  0  0  0  0  0  0
  158.0269  140.1992  184.5547 C   0  0  0  0  0  0  0  0  0  0  0  0
  158.9663  139.4284  184.3244 O   0  0  0  0  0  0  0  0  0  0  0  0
  158.3271  141.4532  185.1285 N   0  0  0  0  0  0  0  0  0  0  0  0
  157.6463  142.1750  185.4143 H   0  0  0  0  0  0  0  0  0  0  0  0
  159.7032  141.8344  185.3954 C   0  0  0  0  0  0  0  0  0  0  0  0
  159.9988  142.4986  186.5668 C   0  0  0  0  0  0  0  0  0  0  0  0
  161.3015  142.9098  186.7839 C   0  0  0  0  0  0  0  0  0  0  0  0
  162.3051  142.7008  185.9174 N   0  0  0  0  0  0  0  0  0  0  0  0
  161.9981  142.0513  184.7817 C   0  0  0  0  0  0  0  0  0  0  0  0
  162.9237  141.8356  183.9390 O   0  0  0  0  0  0  0  0  0  0  0  0
  160.7228  141.6157  184.5023 C   0  0  0  0  0  0  0  0  0  0  0  0
  163.2800  143.0207  186.0955 H   0  0  0  0  0  0  0  0  0  0  0  0
  153.8730  138.3676  186.4506 C   0  0  0  0  0  0  0  0  0  0  0  0
  154.7706  138.1630  187.5059 F   0  0  0  0  0  0  0  0  0  0  0  0
  153.4721  137.1155  186.0592 F   0  0  0  0  0  0  0  0  0  0  0  0
  152.8826  139.1676  186.9273 F   0  0  0  0  0  0  0  0  0  0  0  0
  156.5636  140.6824  181.9747 O   0  0  0  0  0  0  0  0  0  0  0  0
  159.0823  145.5898  181.9784 F   0  0  0  0  0  0  0  0  0  0  0  0
  158.4606  144.4012  181.9785 C   0  0  0  0  0  0  0  0  0  0  0  0
  157.1252  144.3595  182.2815 C   0  0  0  0  0  0  0  0  0  0  0  0
  156.5153  143.0940  182.2712 C   0  0  0  0  0  0  0  0  0  0  0  0
  157.1467  141.9466  181.9883 C   0  0  0  0  0  0  0  0  0  0  0  0
  158.4846  142.0418  181.6925 N   0  0  0  0  0  0  0  0  0  0  0  0
  159.1055  143.2185  181.6898 C   0  0  0  0  0  0  0  0  0  0  0  0
 24 25  1  0  0  0
 25 26  2  0  0  0
 26 27  1  0  0  0
 27 28  2  0  0  0
 28 23  1  0  0  0
 23  1  1  0  0  0
  1  2  2  0  0  0
  2  3  1  0  0  0
  3  4  2  0  0  0
  4  5  1  0  0  0
  5  6  2  0  0  0
  6  7  1  0  0  0
  7  8  2  0  0  0
  7  9  1  0  0  0
  9 11  1  0  0  0
 11 12  1  0  0  0
 12 13  2  0  0  0
 13 14  1  0  0  0
 14 15  1  0  0  0
 15 16  2  0  0  0
 15 17  1  0  0  0
  4 19  1  0  0  0
 19 20  1  0  0  0
 19 21  1  0  0  0
 19 22  1  0  0  0
 28 29  1  0  0  0
 29 30  2  0  0  0
 30 25  1  0  0  0
  6  1  1  0  0  0
 17 11  2  0  0  0
  9 10  1  0  0  0
 14 18  1  0  0  0
M  END
> <minimizedAffinity>
-9.67984

> <CNNscore>
0.4144767821

> <CNNaffinity>
6.5210952759

> <CNN_VS>
2.7028424740

> <CNNaffinity_variance>
0.2092346251

$$$$
[H]c1nc(Oc2c([H])c([H])c(C(F)(F)F)c([H])c2C(=O)N([H])c2c([H])c([H])n([H])c(=O)c2[H])c([H])c([H])c1F


 30 32  0  0  0  0  0  0  0  0999 V2000
  154.7790  140.7557  183.0200 C   0  0  0  0  0  0  0  0  0  0  0  0
  153.9585  141.3104  182.0123 C   0  0  0  0  0  0  0  0  0  0  0  0
  152.8119  140.6605  181.6065 C   0  0  0  0  0  0  0  0  0  0  0  0
  152.4277  139.4627  182.1615 C   0  0  0  0  0  0  0  0  0  0  0  0
  153.2188  138.9269  183.1437 C   0  0  0  0  0  0  0  0  0  0  0  0
  154.4137  139.6012  183.5755 C   0  0  0  0  0  0  0  0  0  0  0  0
  154.9472  139.0503  184.8391 C   0  0  0  0  0  0  0  0  0  0  0  0
  156.1442  139.2113  185.1049 O   0  0  0  0  0  0  0  0  0  0  0  0
  154.1521  138.3500  185.7714 N   0  0  0  0  0  0  0  0  0  0  0  0
  153.1551  138.1037  185.6636 H   0  0  0  0  0  0  0  0  0  0  0  0
  154.7212  137.8760  187.0210 C   0  0  0  0  0  0  0  0  0  0  0  0
  155.4743  136.7213  187.0184 C   0  0  0  0  0  0  0  0  0  0  0  0
  155.9617  136.2462  188.2225 C   0  0  0  0  0  0  0  0  0  0  0  0
  155.7453  136.8446  189.4044 N   0  0  0  0  0  0  0  0  0  0  0  0
  155.0099  137.9691  189.3871 C   0  0  0  0  0  0  0  0  0  0  0  0
  154.7857  138.5624  190.4876 O   0  0  0  0  0  0  0  0  0  0  0  0
  154.4940  138.4958  188.2248 C   0  0  0  0  0  0  0  0  0  0  0  0
  156.1171  136.4707  190.3024 H   0  0  0  0  0  0  0  0  0  0  0  0
  151.1820  138.7646  181.6854 C   0  0  0  0  0  0  0  0  0  0  0  0
  150.5207  138.2096  182.7882 F   0  0  0  0  0  0  0  0  0  0  0  0
  151.5706  137.6992  180.9138 F   0  0  0  0  0  0  0  0  0  0  0  0
  150.3061  139.6179  181.0913 F   0  0  0  0  0  0  0  0  0  0  0  0
  155.9277  141.4714  183.3532 O   0  0  0  0  0  0  0  0  0  0  0  0
  159.3820  143.1855  179.4090 F   0  0  0  0  0  0  0  0  0  0  0  0
  158.5404  142.7785  180.3710 C   0  0  0  0  0  0  0  0  0  0  0  0
  158.0901  143.6985  181.2807 C   0  0  0  0  0  0  0  0  0  0  0  0
  157.2119  143.2283  182.2714 C   0  0  0  0  0  0  0  0  0  0  0  0
  156.7947  141.9597  182.3793 C   0  0  0  0  0  0  0  0  0  0  0  0
  157.2756  141.0762  181.4440 N   0  0  0  0  0  0  0  0  0  0  0  0
  158.1095  141.4751  180.4872 C   0  0  0  0  0  0  0  0  0  0  0  0
 24 25  1  0  0  0
 25 26  2  0  0  0
 26 27  1  0  0  0
 27 28  2  0  0  0
 28 23  1  0  0  0
 23  1  1  0  0  0
  1  2  2  0  0  0
  2  3  1  0  0  0
  3  4  2  0  0  0
  4  5  1  0  0  0
  5  6  2  0  0  0
  6  7  1  0  0  0
  7  8  2  0  0  0
  7  9  1  0  0  0
  9 11  1  0  0  0
 11 12  1  0  0  0
 12 13  2  0  0  0
 13 14  1  0  0  0
 14 15  1  0  0  0
 15 16  2  0  0  0
 15 17  1  0  0  0
  4 19  1  0  0  0
 19 20  1  0  0  0
 19 21  1  0  0  0
 19 22  1  0  0  0
 28 29  1  0  0  0
 29 30  2  0  0  0
 30 25  1  0  0  0
  6  1  1  0  0  0
 17 11  2  0  0  0
  9 10  1  0  0  0
 14 18  1  0  0  0
M  END
> <minimizedAffinity>
-8.57717

> <CNNscore>
0.3927428424

> <CNNaffinity>
5.8363027573

> <CNN_VS>
2.2921662331

> <CNNaffinity_variance>
0.0653967708

$$$$
[H]c1nc(Oc2c([H])c([H])c(C(F)(F)F)c([H])c2C(=O)N([H])c2c([H])c([H])n([H])c(=O)c2[H])c([H])c([H])c1F


 30 32  0  0  0  0  0  0  0  0999 V2000
  153.9666  136.6433  188.4628 C   0  0  0  0  0  0  0  0  0  0  0  0
  155.0178  136.7094  187.5210 C   0  0  0  0  0  0  0  0  0  0  0  0
  156.1940  136.0220  187.7353 C   0  0  0  0  0  0  0  0  0  0  0  0
  156.3856  135.2544  188.8598 C   0  0  0  0  0  0  0  0  0  0  0  0
  155.3643  135.1840  189.7709 C   0  0  0  0  0  0  0  0  0  0  0  0
  154.1329  135.8944  189.5521 C   0  0  0  0  0  0  0  0  0  0  0  0
  153.0545  135.4464  190.4582 C   0  0  0  0  0  0  0  0  0  0  0  0
  153.0929  134.2970  190.9132 O   0  0  0  0  0  0  0  0  0  0  0  0
  151.9766  136.2728  190.8416 N   0  0  0  0  0  0  0  0  0  0  0  0
  151.7917  137.2325  190.5086 H   0  0  0  0  0  0  0  0  0  0  0  0
  150.9731  135.7939  191.7764 C   0  0  0  0  0  0  0  0  0  0  0  0
  151.0623  136.1629  193.1017 C   0  0  0  0  0  0  0  0  0  0  0  0
  150.1366  135.6535  193.9944 C   0  0  0  0  0  0  0  0  0  0  0  0
  149.1478  134.8146  193.6478 N   0  0  0  0  0  0  0  0  0  0  0  0
  149.0763  134.4667  192.3518 C   0  0  0  0  0  0  0  0  0  0  0  0
  148.1523  133.6747  191.9880 O   0  0  0  0  0  0  0  0  0  0  0  0
  149.9652  134.9360  191.4116 C   0  0  0  0  0  0  0  0  0  0  0  0
  148.4613  134.4376  194.3341 H   0  0  0  0  0  0  0  0  0  0  0  0
  157.6872  134.5308  189.0784 C   0  0  0  0  0  0  0  0  0  0  0  0
  157.9569  134.4827  190.4519 F   0  0  0  0  0  0  0  0  0  0  0  0
  158.6861  135.2964  188.5329 F   0  0  0  0  0  0  0  0  0  0  0  0
  157.6430  133.2441  188.6419 F   0  0  0  0  0  0  0  0  0  0  0  0
  152.8224  137.3850  188.1736 O   0  0  0  0  0  0  0  0  0  0  0  0
  149.1769  135.7571  184.3675 F   0  0  0  0  0  0  0  0  0  0  0  0
  150.0592  136.1463  185.2999 C   0  0  0  0  0  0  0  0  0  0  0  0
  149.8892  135.7090  186.5869 C   0  0  0  0  0  0  0  0  0  0  0  0
  150.8354  136.1423  187.5306 C   0  0  0  0  0  0  0  0  0  0  0  0
  151.8749  136.9414  187.2550 C   0  0  0  0  0  0  0  0  0  0  0  0
  152.0005  137.3532  185.9507 N   0  0  0  0  0  0  0  0  0  0  0  0
  151.1288  136.9689  185.0220 C   0  0  0  0  0  0  0  0  0  0  0  0
 24 25  1  0  0  0
 25 26  2  0  0  0
 26 27  1  0  0  0
 27 28  2  0  0  0
 28 23  1  0  0  0
 23  1  1  0  0  0
  1  2  2  0  0  0
  2  3  1  0  0  0
  3  4  2  0  0  0
  4  5  1  0  0  0
  5  6  2  0  0  0
  6  7  1  0  0  0
  7  8  2  0  0  0
  7  9  1  0  0  0
  9 11  1  0  0  0
 11 12  1  0  0  0
 12 13  2  0  0  0
 13 14  1  0  0  0
 14 15  1  0  0  0
 15 16  2  0  0  0
 15 17  1  0  0  0
  4 19  1  0  0  0
 19 20  1  0  0  0
 19 21  1  0  0  0
 19 22  1  0  0  0
 28 29  1  0  0  0
 29 30  2  0  0  0
 30 25  1  0  0  0
  6  1  1  0  0  0
 17 11  2  0  0  0
  9 10  1  0  0  0
 14 18  1  0  0  0
M  END
> <minimizedAffinity>
-4.85750

> <CNNscore>
0.3915722370

> <CNNaffinity>
5.7008447647

> <CNN_VS>
2.2322926521

> <CNNaffinity_variance>
0.6444296837

$$$$
[H]c1nc(Oc2c([H])c([H])c(C(F)(F)F)c([H])c2C(=O)N([H])c2c([H])c([H])n([H])c(=O)c2[H])c([H])c([H])c1F


 30 32  0  0  0  0  0  0  0  0999 V2000
  154.4400  140.1163  183.5563 C   0  0  0  0  0  0  0  0  0  0  0  0
  153.5589  139.0157  183.6500 C   0  0  0  0  0  0  0  0  0  0  0  0
  152.6201  138.7849  182.6666 C   0  0  0  0  0  0  0  0  0  0  0  0
  152.5080  139.6066  181.5700 C   0  0  0  0  0  0  0  0  0  0  0  0
  153.3664  140.6705  181.4744 C   0  0  0  0  0  0  0  0  0  0  0  0
  154.3513  140.9151  182.4938 C   0  0  0  0  0  0  0  0  0  0  0  0
  155.3759  141.8907  182.0659 C   0  0  0  0  0  0  0  0  0  0  0  0
  155.2074  143.0886  182.3235 O   0  0  0  0  0  0  0  0  0  0  0  0
  156.5523  141.5221  181.3788 N   0  0  0  0  0  0  0  0  0  0  0  0
  156.8038  140.5727  181.0603 H   0  0  0  0  0  0  0  0  0  0  0  0
  157.5483  142.5199  181.0290 C   0  0  0  0  0  0  0  0  0  0  0  0
  158.1636  142.4487  179.7973 C   0  0  0  0  0  0  0  0  0  0  0  0
  159.1530  143.3676  179.4975 C   0  0  0  0  0  0  0  0  0  0  0  0
  159.5552  144.3334  180.3385 N   0  0  0  0  0  0  0  0  0  0  0  0
  158.9437  144.3877  181.5338 C   0  0  0  0  0  0  0  0  0  0  0  0
  159.2988  145.2896  182.3547 O   0  0  0  0  0  0  0  0  0  0  0  0
  157.9527  143.5041  181.8966 C   0  0  0  0  0  0  0  0  0  0  0  0
  160.3047  145.0151  180.0975 H   0  0  0  0  0  0  0  0  0  0  0  0
  151.4607  139.3431  180.5215 C   0  0  0  0  0  0  0  0  0  0  0  0
  150.2464  139.9019  180.9396 F   0  0  0  0  0  0  0  0  0  0  0  0
  151.2476  137.9888  180.4768 F   0  0  0  0  0  0  0  0  0  0  0  0
  151.7673  139.9185  179.3285 F   0  0  0  0  0  0  0  0  0  0  0  0
  155.3430  140.2834  184.6049 O   0  0  0  0  0  0  0  0  0  0  0  0
  160.7724  140.8604  183.8198 F   0  0  0  0  0  0  0  0  0  0  0  0
  159.4527  140.7102  184.0076 C   0  0  0  0  0  0  0  0  0  0  0  0
  158.8548  139.5581  183.5695 C   0  0  0  0  0  0  0  0  0  0  0  0
  157.4714  139.4438  183.7855 C   0  0  0  0  0  0  0  0  0  0  0  0
  156.7145  140.3741  184.3828 C   0  0  0  0  0  0  0  0  0  0  0  0
  157.3610  141.5110  184.8027 N   0  0  0  0  0  0  0  0  0  0  0  0
  158.6698  141.6642  184.6198 C   0  0  0  0  0  0  0  0  0  0  0  0
 24 25  1  0  0  0
 25 26  2  0  0  0
 26 27  1  0  0  0
 27 28  2  0  0  0
 28 23  1  0  0  0
 23  1  1  0  0  0
  1  2  2  0  0  0
  2  3  1  0  0  0
  3  4  2  0  0  0
  4  5  1  0  0  0
  5  6  2  0  0  0
  6  7  1  0  0  0
  7  8  2  0  0  0
  7  9  1  0  0  0
  9 11  1  0  0  0
 11 12  1  0  0  0
 12 13  2  0  0  0
 13 14  1  0  0  0
 14 15  1  0  0  0
 15 16  2  0  0  0
 15 17  1  0  0  0
  4 19  1  0  0  0
 19 20  1  0  0  0
 19 21  1  0  0  0
 19 22  1  0  0  0
 28 29  1  0  0  0
 29 30  2  0  0  0
 30 25  1  0  0  0
  6  1  1  0  0  0
 17 11  2  0  0  0
  9 10  1  0  0  0
 14 18  1  0  0  0
M  END
> <minimizedAffinity>
-9.10493

> <CNNscore>
0.3660170436

> <CNNaffinity>
6.3898735046

> <CNN_VS>
2.3388025761

> <CNNaffinity_variance>
0.2462659776

$$$$
[H]N=C(N([H])[H])N([H])C([H])([H])C([H])([H])C([H])([H])[C@@]1([H])C(=O)N([H])[C@]([H])(C([H])([H])c2c([H])c([H])c([H])c([H])c2[H])C(=O)N2C([H])([H])C([H])([H])C([H])([H])[C@@]2([H])C(=O)N1[H]


 35 37  0  0  0  0  0  0  0  0999 V2000
  153.9063  136.5988  186.6171 C   0  0  0  0  0  0  0  0  0  0  0  0
  155.1420  135.8752  186.8024 N   0  0  0  0  0  0  0  0  0  0  0  0
  155.9827  136.3690  187.8559 C   0  0  0  0  0  0  0  0  0  0  0  0
  157.1983  135.9897  187.8144 O   0  0  0  0  0  0  0  0  0  0  0  0
  155.4647  137.2512  188.9056 C   0  0  0  0  0  0  0  0  0  0  0  0
  156.6986  137.8715  189.5838 C   0  0  0  0  0  0  0  0  0  0  0  0
  156.3132  138.0853  191.0096 C   0  0  0  0  0  0  0  0  0  0  0  0
  154.8491  137.6288  191.0605 C   0  0  0  0  0  0  0  0  0  0  0  0
  154.8850  136.5588  190.0474 N   0  0  0  0  0  0  0  0  0  0  0  0
  154.4962  135.2233  190.1293 C   0  0  0  0  0  0  0  0  0  0  0  0
  155.1402  134.4934  191.0102 O   0  0  0  0  0  0  0  0  0  0  0  0
  153.4741  134.4771  189.3880 C   0  0  0  0  0  0  0  0  0  0  0  0
  152.7084  135.1562  188.4066 N   0  0  0  0  0  0  0  0  0  0  0  0
  152.9172  136.3184  187.6740 C   0  0  0  0  0  0  0  0  0  0  0  0
  152.1321  137.3085  187.9480 O   0  0  0  0  0  0  0  0  0  0  0  0
  155.3811  135.0697  186.2125 H   0  0  0  0  0  0  0  0  0  0  0  0
  151.7521  134.6776  188.1601 H   0  0  0  0  0  0  0  0  0  0  0  0
  153.3567  136.3171  185.2336 C   0  0  0  0  0  0  0  0  0  0  0  0
  153.7608  137.4306  184.2821 C   0  0  0  0  0  0  0  0  0  0  0  0
  153.9280  138.7415  184.9999 C   0  0  0  0  0  0  0  0  0  0  0  0
  154.0882  139.8526  184.0987 N   0  0  0  0  0  0  0  0  0  0  0  0
  153.2783  140.4231  183.7765 H   0  0  0  0  0  0  0  0  0  0  0  0
  155.6558  140.7098  182.3606 N   0  0  0  0  0  0  0  0  0  0  0  0
  155.3830  140.1763  183.6399 C   0  0  0  0  0  0  0  0  0  0  0  0
  156.3698  139.9704  184.4404 N   0  0  0  0  0  0  0  0  0  0  0  0
  156.4004  140.2902  181.7634 H   0  0  0  0  0  0  0  0  0  0  0  0
  155.1400  141.5238  181.9667 H   0  0  0  0  0  0  0  0  0  0  0  0
  157.3501  140.1864  184.1670 H   0  0  0  0  0  0  0  0  0  0  0  0
  152.4941  133.8410  190.3918 C   0  0  0  0  0  0  0  0  0  0  0  0
  152.0088  134.7608  191.4207 C   0  0  0  0  0  0  0  0  0  0  0  0
  151.1338  135.8042  191.0944 C   0  0  0  0  0  0  0  0  0  0  0  0
  150.6640  136.6605  192.0846 C   0  0  0  0  0  0  0  0  0  0  0  0
  151.0291  136.5255  193.4048 C   0  0  0  0  0  0  0  0  0  0  0  0
  151.8822  135.5103  193.7353 C   0  0  0  0  0  0  0  0  0  0  0  0
  152.3470  134.6608  192.7477 C   0  0  0  0  0  0  0  0  0  0  0  0
 23 24  1  0  0  0
 24 25  2  0  0  0
 24 21  1  0  0  0
 21 20  1  0  0  0
 20 19  1  0  0  0
 19 18  1  0  0  0
 18  1  1  0  0  0
  1  2  1  0  0  0
  2  3  1  0  0  0
  3  4  2  0  0  0
  3  5  1  0  0  0
  5  6  1  0  0  0
  6  7  1  0  0  0
  7  8  1  0  0  0
  8  9  1  0  0  0
  9 10  1  0  0  0
 10 11  2  0  0  0
 10 12  1  0  0  0
 12 29  1  0  0  0
 29 30  1  0  0  0
 30 31  2  0  0  0
 31 32  1  0  0  0
 32 33  2  0  0  0
 33 34  1  0  0  0
 34 35  2  0  0  0
 12 13  1  0  0  0
 13 14  1  0  0  0
 14 15  2  0  0  0
 14  1  1  0  0  0
  9  5  1  0  0  0
 35 30  1  0  0  0
 23 26  1  0  0  0
 23 27  1  0  0  0
 25 28  1  0  0  0
 21 22  1  0  0  0
  2 16  1  0  0  0
 13 17  1  0  0  0
M  END
> <minimizedAffinity>
-5.63665

> <CNNscore>
0.4049704075

> <CNNaffinity>
5.2327823639

> <CNN_VS>
2.1191220284

> <CNNaffinity_variance>
0.0341581628

$$$$
[H]N=C(N([H])[H])N([H])C([H])([H])C([H])([H])C([H])([H])[C@@]1([H])C(=O)N([H])[C@]([H])(C([H])([H])c2c([H])c([H])c([H])c([H])c2[H])C(=O)N2C([H])([H])C([H])([H])C([H])([H])[C@@]2([H])C(=O)N1[H]


 35 37  0  0  0  0  0  0  0  0999 V2000
  150.8310  135.0039  187.8184 C   0  0  0  0  0  0  0  0  0  0  0  0
  149.8315  135.9707  188.2074 N   0  0  0  0  0  0  0  0  0  0  0  0
  148.8309  135.4793  189.1117 C   0  0  0  0  0  0  0  0  0  0  0  0
  147.7692  136.1792  189.1920 O   0  0  0  0  0  0  0  0  0  0  0  0
  149.0294  134.2513  189.8870 C   0  0  0  0  0  0  0  0  0  0  0  0
  147.6373  133.8475  190.4033 C   0  0  0  0  0  0  0  0  0  0  0  0
  147.8701  133.1800  191.7177 C   0  0  0  0  0  0  0  0  0  0  0  0
  149.3981  133.1829  191.8588 C   0  0  0  0  0  0  0  0  0  0  0  0
  149.7119  134.4415  191.1588 N   0  0  0  0  0  0  0  0  0  0  0  0
  150.4454  135.5498  191.5772 C   0  0  0  0  0  0  0  0  0  0  0  0
  149.9774  136.1811  192.6288 O   0  0  0  0  0  0  0  0  0  0  0  0
  151.6718  136.1452  191.0366 C   0  0  0  0  0  0  0  0  0  0  0  0
  152.2762  135.5525  189.8990 N   0  0  0  0  0  0  0  0  0  0  0  0
  151.7989  134.7201  188.8938 C   0  0  0  0  0  0  0  0  0  0  0  0
  152.2674  133.5150  188.8874 O   0  0  0  0  0  0  0  0  0  0  0  0
  149.8545  136.9331  187.8510 H   0  0  0  0  0  0  0  0  0  0  0  0
  153.3389  135.7927  189.7678 H   0  0  0  0  0  0  0  0  0  0  0  0
  151.5124  135.4635  186.5456 C   0  0  0  0  0  0  0  0  0  0  0  0
  151.3406  136.9643  186.3823 C   0  0  0  0  0  0  0  0  0  0  0  0
  152.5876  137.7115  186.7674 C   0  0  0  0  0  0  0  0  0  0  0  0
  153.7910  137.0160  186.3923 N   0  0  0  0  0  0  0  0  0  0  0  0
  153.8824  136.5249  185.4781 H   0  0  0  0  0  0  0  0  0  0  0  0
  155.9109  137.9645  187.2972 N   0  0  0  0  0  0  0  0  0  0  0  0
  154.8779  137.0011  187.2924 C   0  0  0  0  0  0  0  0  0  0  0  0
  154.9241  136.0497  188.1582 N   0  0  0  0  0  0  0  0  0  0  0  0
  156.9096  137.6651  187.3111 H   0  0  0  0  0  0  0  0  0  0  0  0
  155.7274  138.9893  187.2874 H   0  0  0  0  0  0  0  0  0  0  0  0
  155.6967  135.9779  188.8513 H   0  0  0  0  0  0  0  0  0  0  0  0
  152.7311  136.2070  192.1531 C   0  0  0  0  0  0  0  0  0  0  0  0
  154.0135  136.7715  191.7322 C   0  0  0  0  0  0  0  0  0  0  0  0
  154.0957  138.0843  191.2521 C   0  0  0  0  0  0  0  0  0  0  0  0
  155.3236  138.6164  190.8730 C   0  0  0  0  0  0  0  0  0  0  0  0
  156.4919  137.8929  190.9506 C   0  0  0  0  0  0  0  0  0  0  0  0
  156.4240  136.6105  191.4183 C   0  0  0  0  0  0  0  0  0  0  0  0
  155.2010  136.0852  191.7943 C   0  0  0  0  0  0  0  0  0  0  0  0
 23 24  1  0  0  0
 24 25  2  0  0  0
 24 21  1  0  0  0
 21 20  1  0  0  0
 20 19  1  0  0  0
 19 18  1  0  0  0
 18  1  1  0  0  0
  1  2  1  0  0  0
  2  3  1  0  0  0
  3  4  2  0  0  0
  3  5  1  0  0  0
  5  6  1  0  0  0
  6  7  1  0  0  0
  7  8  1  0  0  0
  8  9  1  0  0  0
  9 10  1  0  0  0
 10 11  2  0  0  0
 10 12  1  0  0  0
 12 29  1  0  0  0
 29 30  1  0  0  0
 30 31  2  0  0  0
 31 32  1  0  0  0
 32 33  2  0  0  0
 33 34  1  0  0  0
 34 35  2  0  0  0
 12 13  1  0  0  0
 13 14  1  0  0  0
 14 15  2  0  0  0
 14  1  1  0  0  0
  9  5  1  0  0  0
 35 30  1  0  0  0
 23 26  1  0  0  0
 23 27  1  0  0  0
 25 28  1  0  0  0
 21 22  1  0  0  0
  2 16  1  0  0  0
 13 17  1  0  0  0
M  END
> <minimizedAffinity>
-5.27492

> <CNNscore>
0.3899915814

> <CNNaffinity>
4.7194418907

> <CNN_VS>
1.8405425549

> <CNNaffinity_variance>
0.4652723670

$$$$
[H]N=C(N([H])[H])N([H])C([H])([H])C([H])([H])C([H])([H])[C@@]1([H])C(=O)N([H])[C@]([H])(C([H])([H])c2c([H])c([H])c([H])c([H])c2[H])C(=O)N2C([H])([H])C([H])([H])C([H])([H])[C@@]2([H])C(=O)N1[H]


 35 37  0  0  0  0  0  0  0  0999 V2000
  156.1172  136.9760  187.6724 C   0  0  0  0  0  0  0  0  0  0  0  0
  155.6174  135.7330  187.1340 N   0  0  0  0  0  0  0  0  0  0  0  0
  156.4859  134.6033  187.3075 C   0  0  0  0  0  0  0  0  0  0  0  0
  156.2445  133.6023  186.5571 O   0  0  0  0  0  0  0  0  0  0  0  0
  157.5756  134.6126  188.2878 C   0  0  0  0  0  0  0  0  0  0  0  0
  158.4967  133.4404  187.9074 C   0  0  0  0  0  0  0  0  0  0  0  0
  159.0759  132.9465  189.1911 C   0  0  0  0  0  0  0  0  0  0  0  0
  158.4991  133.9060  190.2405 C   0  0  0  0  0  0  0  0  0  0  0  0
  157.1897  134.1908  189.6267 N   0  0  0  0  0  0  0  0  0  0  0  0
  155.9029  134.0787  190.1494 C   0  0  0  0  0  0  0  0  0  0  0  0
  155.5371  132.8717  190.5135 O   0  0  0  0  0  0  0  0  0  0  0  0
  154.8666  135.0935  190.3665 C   0  0  0  0  0  0  0  0  0  0  0  0
  155.1417  136.4388  190.0130 N   0  0  0  0  0  0  0  0  0  0  0  0
  156.0537  137.0264  189.1446 C   0  0  0  0  0  0  0  0  0  0  0  0
  156.9898  137.7268  189.6967 O   0  0  0  0  0  0  0  0  0  0  0  0
  154.7052  135.6840  186.6656 H   0  0  0  0  0  0  0  0  0  0  0  0
  154.5115  137.1826  190.5169 H   0  0  0  0  0  0  0  0  0  0  0  0
  155.3850  138.1369  187.0308 C   0  0  0  0  0  0  0  0  0  0  0  0
  154.6791  137.6674  185.7699 C   0  0  0  0  0  0  0  0  0  0  0  0
  153.2398  138.1025  185.7441 C   0  0  0  0  0  0  0  0  0  0  0  0
  152.6305  138.0869  187.0484 N   0  0  0  0  0  0  0  0  0  0  0  0
  152.5655  138.9437  187.6374 H   0  0  0  0  0  0  0  0  0  0  0  0
  151.5108  135.8833  186.7271 N   0  0  0  0  0  0  0  0  0  0  0  0
  152.1063  136.8726  187.5408 C   0  0  0  0  0  0  0  0  0  0  0  0
  152.1786  136.6606  188.8084 N   0  0  0  0  0  0  0  0  0  0  0  0
  150.5843  135.4792  186.9830 H   0  0  0  0  0  0  0  0  0  0  0  0
  151.9575  135.5225  185.8587 H   0  0  0  0  0  0  0  0  0  0  0  0
  151.8122  135.7871  189.2386 H   0  0  0  0  0  0  0  0  0  0  0  0
  154.4505  135.0727  191.8494 C   0  0  0  0  0  0  0  0  0  0  0  0
  153.0735  135.5034  192.0917 C   0  0  0  0  0  0  0  0  0  0  0  0
  151.9966  134.6545  191.8083 C   0  0  0  0  0  0  0  0  0  0  0  0
  150.6928  135.0679  192.0610 C   0  0  0  0  0  0  0  0  0  0  0  0
  150.4054  136.3052  192.5910 C   0  0  0  0  0  0  0  0  0  0  0  0
  151.4486  137.1421  192.8723 C   0  0  0  0  0  0  0  0  0  0  0  0
  152.7436  136.7272  192.6197 C   0  0  0  0  0  0  0  0  0  0  0  0
 23 24  1  0  0  0
 24 25  2  0  0  0
 24 21  1  0  0  0
 21 20  1  0  0  0
 20 19  1  0  0  0
 19 18  1  0  0  0
 18  1  1  0  0  0
  1  2  1  0  0  0
  2  3  1  0  0  0
  3  4  2  0  0  0
  3  5  1  0  0  0
  5  6  1  0  0  0
  6  7  1  0  0  0
  7  8  1  0  0  0
  8  9  1  0  0  0
  9 10  1  0  0  0
 10 11  2  0  0  0
 10 12  1  0  0  0
 12 29  1  0  0  0
 29 30  1  0  0  0
 30 31  2  0  0  0
 31 32  1  0  0  0
 32 33  2  0  0  0
 33 34  1  0  0  0
 34 35  2  0  0  0
 12 13  1  0  0  0
 13 14  1  0  0  0
 14 15  2  0  0  0
 14  1  1  0  0  0
  9  5  1  0  0  0
 35 30  1  0  0  0
 23 26  1  0  0  0
 23 27  1  0  0  0
 25 28  1  0  0  0
 21 22  1  0  0  0
  2 16  1  0  0  0
 13 17  1  0  0  0
M  END
> <minimizedAffinity>
-5.16946

> <CNNscore>
0.3766156435

> <CNNaffinity>
4.9189057350

> <CNN_VS>
1.8525367975

> <CNNaffinity_variance>
0.2775256932

$$$$
[H]N=C(N([H])[H])N([H])C([H])([H])C([H])([H])C([H])([H])[C@@]1([H])C(=O)N([H])[C@]([H])(C([H])([H])c2c([H])c([H])c([H])c([H])c2[H])C(=O)N2C([H])([H])C([H])([H])C([H])([H])[C@@]2([H])C(=O)N1[H]


 35 37  0  0  0  0  0  0  0  0999 V2000
  155.7611  137.1185  187.4547 C   0  0  0  0  0  0  0  0  0  0  0  0
  155.0215  135.9011  187.2186 N   0  0  0  0  0  0  0  0  0  0  0  0
  155.7296  134.6911  187.5268 C   0  0  0  0  0  0  0  0  0  0  0  0
  155.2529  133.6274  187.0121 O   0  0  0  0  0  0  0  0  0  0  0  0
  156.9218  134.6918  188.3795 C   0  0  0  0  0  0  0  0  0  0  0  0
  157.6065  133.3332  188.1502 C   0  0  0  0  0  0  0  0  0  0  0  0
  158.2615  132.9854  189.4453 C   0  0  0  0  0  0  0  0  0  0  0  0
  157.9662  134.1989  190.3369 C   0  0  0  0  0  0  0  0  0  0  0  0
  156.6470  134.5853  189.8051 N   0  0  0  0  0  0  0  0  0  0  0  0
  155.4324  134.7849  190.4583 C   0  0  0  0  0  0  0  0  0  0  0  0
  154.9414  133.7404  191.0837 O   0  0  0  0  0  0  0  0  0  0  0  0
  154.5912  135.9810  190.5697 C   0  0  0  0  0  0  0  0  0  0  0  0
  155.0148  137.1768  189.9362 N   0  0  0  0  0  0  0  0  0  0  0  0
  155.8885  137.4396  188.8881 C   0  0  0  0  0  0  0  0  0  0  0  0
  156.9784  138.0602  189.2023 O   0  0  0  0  0  0  0  0  0  0  0  0
  154.0612  135.9232  186.8567 H   0  0  0  0  0  0  0  0  0  0  0  0
  154.5680  138.0932  190.3423 H   0  0  0  0  0  0  0  0  0  0  0  0
  155.1335  138.2529  186.6706 C   0  0  0  0  0  0  0  0  0  0  0  0
  156.1323  138.7977  185.6635 C   0  0  0  0  0  0  0  0  0  0  0  0
  155.4451  139.3899  184.4641 C   0  0  0  0  0  0  0  0  0  0  0  0
  156.0985  140.5773  183.9786 N   0  0  0  0  0  0  0  0  0  0  0  0
  155.9954  141.4980  184.4552 H   0  0  0  0  0  0  0  0  0  0  0  0
  158.1518  139.8307  182.7790 N   0  0  0  0  0  0  0  0  0  0  0  0
  156.9022  140.4881  182.8220 C   0  0  0  0  0  0  0  0  0  0  0  0
  156.4642  141.0411  181.7454 N   0  0  0  0  0  0  0  0  0  0  0  0
  158.9829  140.3067  182.3667 H   0  0  0  0  0  0  0  0  0  0  0  0
  158.2961  138.8675  183.1470 H   0  0  0  0  0  0  0  0  0  0  0  0
  157.0051  141.0134  180.8571 H   0  0  0  0  0  0  0  0  0  0  0  0
  154.3635  136.2941  192.0606 C   0  0  0  0  0  0  0  0  0  0  0  0
  152.9749  136.1504  192.4980 C   0  0  0  0  0  0  0  0  0  0  0  0
  152.6601  135.4392  193.6624 C   0  0  0  0  0  0  0  0  0  0  0  0
  151.3379  135.3258  194.0787 C   0  0  0  0  0  0  0  0  0  0  0  0
  150.2977  135.8957  193.3803 C   0  0  0  0  0  0  0  0  0  0  0  0
  150.5929  136.5928  192.2425 C   0  0  0  0  0  0  0  0  0  0  0  0
  151.9091  136.7034  191.8321 C   0  0  0  0  0  0  0  0  0  0  0  0
 23 24  1  0  0  0
 24 25  2  0  0  0
 24 21  1  0  0  0
 21 20  1  0  0  0
 20 19  1  0  0  0
 19 18  1  0  0  0
 18  1  1  0  0  0
  1  2  1  0  0  0
  2  3  1  0  0  0
  3  4  2  0  0  0
  3  5  1  0  0  0
  5  6  1  0  0  0
  6  7  1  0  0  0
  7  8  1  0  0  0
  8  9  1  0  0  0
  9 10  1  0  0  0
 10 11  2  0  0  0
 10 12  1  0  0  0
 12 29  1  0  0  0
 29 30  1  0  0  0
 30 31  2  0  0  0
 31 32  1  0  0  0
 32 33  2  0  0  0
 33 34  1  0  0  0
 34 35  2  0  0  0
 12 13  1  0  0  0
 13 14  1  0  0  0
 14 15  2  0  0  0
 14  1  1  0  0  0
  9  5  1  0  0  0
 35 30  1  0  0  0
 23 26  1  0  0  0
 23 27  1  0  0  0
 25 28  1  0  0  0
 21 22  1  0  0  0
  2 16  1  0  0  0
 13 17  1  0  0  0
M  END
> <minimizedAffinity>
-5.97041

> <CNNscore>
0.3364477754

> <CNNaffinity>
5.3869428635

> <CNN_VS>
1.8124248981

> <CNNaffinity_variance>
0.1263726652

$$$$
[H]N=C(N([H])[H])N([H])C([H])([H])C([H])([H])C([H])([H])[C@@]1([H])C(=O)N([H])[C@]([H])(C([H])([H])c2c([H])c([H])c([H])c([H])c2[H])C(=O)N2C([H])([H])C([H])([H])C([H])([H])[C@@]2([H])C(=O)N1[H]


 35 37  0  0  0  0  0  0  0  0999 V2000
  154.8218  137.3876  187.8092 C   0  0  0  0  0  0  0  0  0  0  0  0
  155.1299  136.1968  187.0531 N   0  0  0  0  0  0  0  0  0  0  0  0
  156.0743  135.3112  187.6729 C   0  0  0  0  0  0  0  0  0  0  0  0
  156.6193  134.4579  186.8995 O   0  0  0  0  0  0  0  0  0  0  0  0
  156.3830  135.3929  189.1035 C   0  0  0  0  0  0  0  0  0  0  0  0
  157.6829  134.5941  189.3020 C   0  0  0  0  0  0  0  0  0  0  0  0
  157.5943  134.0090  190.6721 C   0  0  0  0  0  0  0  0  0  0  0  0
  156.2666  134.5559  191.2133 C   0  0  0  0  0  0  0  0  0  0  0  0
  155.4935  134.6219  189.9601 N   0  0  0  0  0  0  0  0  0  0  0  0
  154.2492  134.0848  189.6365 C   0  0  0  0  0  0  0  0  0  0  0  0
  154.1591  132.7764  189.6937 O   0  0  0  0  0  0  0  0  0  0  0  0
  152.9997  134.7392  189.2347 C   0  0  0  0  0  0  0  0  0  0  0  0
  152.9689  136.1535  189.1367 N   0  0  0  0  0  0  0  0  0  0  0  0
  153.9566  137.1169  188.9721 C   0  0  0  0  0  0  0  0  0  0  0  0
  154.1550  137.9015  189.9804 O   0  0  0  0  0  0  0  0  0  0  0  0
  154.6936  136.0172  186.1413 H   0  0  0  0  0  0  0  0  0  0  0  0
  151.9661  136.5949  189.1980 H   0  0  0  0  0  0  0  0  0  0  0  0
  154.2271  138.4332  186.8881 C   0  0  0  0  0  0  0  0  0  0  0  0
  154.8804  138.3454  185.5191 C   0  0  0  0  0  0  0  0  0  0  0  0
  154.3572  139.4015  184.5850 C   0  0  0  0  0  0  0  0  0  0  0  0
  153.7698  138.8481  183.3928 N   0  0  0  0  0  0  0  0  0  0  0  0
  153.6836  137.8203  183.2459 H   0  0  0  0  0  0  0  0  0  0  0  0
  154.0808  140.7435  181.8042 N   0  0  0  0  0  0  0  0  0  0  0  0
  153.2974  139.7272  182.3950 C   0  0  0  0  0  0  0  0  0  0  0  0
  152.0786  139.5891  182.0047 N   0  0  0  0  0  0  0  0  0  0  0  0
  153.7125  141.7162  181.7308 H   0  0  0  0  0  0  0  0  0  0  0  0
  155.0354  140.5722  181.4255 H   0  0  0  0  0  0  0  0  0  0  0  0
  151.6657  140.2026  181.2729 H   0  0  0  0  0  0  0  0  0  0  0  0
  151.8787  134.3104  190.2001 C   0  0  0  0  0  0  0  0  0  0  0  0
  151.8797  135.0266  191.4758 C   0  0  0  0  0  0  0  0  0  0  0  0
  150.9679  136.0614  191.7176 C   0  0  0  0  0  0  0  0  0  0  0  0
  150.9658  136.7221  192.9415 C   0  0  0  0  0  0  0  0  0  0  0  0
  151.8414  136.3964  193.9523 C   0  0  0  0  0  0  0  0  0  0  0  0
  152.7356  135.3874  193.7280 C   0  0  0  0  0  0  0  0  0  0  0  0
  152.7343  134.7330  192.5095 C   0  0  0  0  0  0  0  0  0  0  0  0
 23 24  1  0  0  0
 24 25  2  0  0  0
 24 21  1  0  0  0
 21 20  1  0  0  0
 20 19  1  0  0  0
 19 18  1  0  0  0
 18  1  1  0  0  0
  1  2  1  0  0  0
  2  3  1  0  0  0
  3  4  2  0  0  0
  3  5  1  0  0  0
  5  6  1  0  0  0
  6  7  1  0  0  0
  7  8  1  0  0  0
  8  9  1  0  0  0
  9 10  1  0  0  0
 10 11  2  0  0  0
 10 12  1  0  0  0
 12 29  1  0  0  0
 29 30  1  0  0  0
 30 31  2  0  0  0
 31 32  1  0  0  0
 32 33  2  0  0  0
 33 34  1  0  0  0
 34 35  2  0  0  0
 12 13  1  0  0  0
 13 14  1  0  0  0
 14 15  2  0  0  0
 14  1  1  0  0  0
  9  5  1  0  0  0
 35 30  1  0  0  0
 23 26  1  0  0  0
 23 27  1  0  0  0
 25 28  1  0  0  0
 21 22  1  0  0  0
  2 16  1  0  0  0
 13 17  1  0  0  0
M  END
> <minimizedAffinity>
-5.54130

> <CNNscore>
0.3334264457

> <CNNaffinity>
4.8908338547

> <CNN_VS>
1.6307333708

> <CNNaffinity_variance>
0.0831169039

$$$$
[H]N=C(N([H])[H])N([H])C([H])([H])C([H])([H])C([H])([H])[C@@]1([H])C(=O)N([H])[C@]([H])(C([H])([H])c2c([H])c([H])c([H])c([H])c2[H])C(=O)N2C([H])([H])C([H])([H])C([H])([H])[C@@]2([H])C(=O)N1[H]


 35 37  0  0  0  0  0  0  0  0999 V2000
  154.1799  133.8591  191.6064 C   0  0  0  0  0  0  0  0  0  0  0  0
  153.0920  134.6813  191.1316 N   0  0  0  0  0  0  0  0  0  0  0  0
  153.3719  136.0882  191.0800 C   0  0  0  0  0  0  0  0  0  0  0  0
  152.3533  136.8504  191.0076 O   0  0  0  0  0  0  0  0  0  0  0  0
  154.7442  136.6024  191.1090 C   0  0  0  0  0  0  0  0  0  0  0  0
  154.6276  138.1006  191.4395 C   0  0  0  0  0  0  0  0  0  0  0  0
  155.7688  138.7604  190.7397 C   0  0  0  0  0  0  0  0  0  0  0  0
  156.5190  137.5902  190.0895 C   0  0  0  0  0  0  0  0  0  0  0  0
  155.3850  136.6927  189.8050 N   0  0  0  0  0  0  0  0  0  0  0  0
  154.9874  136.0883  188.6141 C   0  0  0  0  0  0  0  0  0  0  0  0
  154.6634  136.9053  187.6389 O   0  0  0  0  0  0  0  0  0  0  0  0
  154.8649  134.6719  188.2543 C   0  0  0  0  0  0  0  0  0  0  0  0
  155.1875  133.6892  189.2243 N   0  0  0  0  0  0  0  0  0  0  0  0
  155.2583  133.7101  190.6120 C   0  0  0  0  0  0  0  0  0  0  0  0
  156.4397  133.5773  191.1201 O   0  0  0  0  0  0  0  0  0  0  0  0
  152.1933  134.2684  190.8565 H   0  0  0  0  0  0  0  0  0  0  0  0
  155.4309  132.7017  188.8122 H   0  0  0  0  0  0  0  0  0  0  0  0
  153.6400  132.5201  192.0659 C   0  0  0  0  0  0  0  0  0  0  0  0
  152.2712  132.7061  192.6987 C   0  0  0  0  0  0  0  0  0  0  0  0
  152.3724  132.9562  194.1782 C   0  0  0  0  0  0  0  0  0  0  0  0
  152.0964  134.3243  194.5312 N   0  0  0  0  0  0  0  0  0  0  0  0
  152.8098  134.9314  194.9870 H   0  0  0  0  0  0  0  0  0  0  0  0
  149.6275  134.4108  194.8629 N   0  0  0  0  0  0  0  0  0  0  0  0
  150.8197  134.8560  194.2499 C   0  0  0  0  0  0  0  0  0  0  0  0
  150.7447  135.8033  193.3816 N   0  0  0  0  0  0  0  0  0  0  0  0
  148.7937  134.1752  194.2828 H   0  0  0  0  0  0  0  0  0  0  0  0
  149.5296  134.3005  195.8936 H   0  0  0  0  0  0  0  0  0  0  0  0
  149.8359  136.2408  193.1265 H   0  0  0  0  0  0  0  0  0  0  0  0
  155.7226  134.3982  187.0045 C   0  0  0  0  0  0  0  0  0  0  0  0
  157.1138  134.0521  187.2963 C   0  0  0  0  0  0  0  0  0  0  0  0
  158.0179  135.0269  187.7357 C   0  0  0  0  0  0  0  0  0  0  0  0
  159.3331  134.6820  188.0285 C   0  0  0  0  0  0  0  0  0  0  0  0
  159.7985  133.3928  187.9032 C   0  0  0  0  0  0  0  0  0  0  0  0
  158.9249  132.4326  187.4757 C   0  0  0  0  0  0  0  0  0  0  0  0
  157.6178  132.7798  187.1858 C   0  0  0  0  0  0  0  0  0  0  0  0
 23 24  1  0  0  0
 24 25  2  0  0  0
 24 21  1  0  0  0
 21 20  1  0  0  0
 20 19  1  0  0  0
 19 18  1  0  0  0
 18  1  1  0  0  0
  1  2  1  0  0  0
  2  3  1  0  0  0
  3  4  2  0  0  0
  3  5  1  0  0  0
  5  6  1  0  0  0
  6  7  1  0  0  0
  7  8  1  0  0  0
  8  9  1  0  0  0
  9 10  1  0  0  0
 10 11  2  0  0  0
 10 12  1  0  0  0
 12 29  1  0  0  0
 29 30  1  0  0  0
 30 31  2  0  0  0
 31 32  1  0  0  0
 32 33  2  0  0  0
 33 34  1  0  0  0
 34 35  2  0  0  0
 12 13  1  0  0  0
 13 14  1  0  0  0
 14 15  2  0  0  0
 14  1  1  0  0  0
  9  5  1  0  0  0
 35 30  1  0  0  0
 23 26  1  0  0  0
 23 27  1  0  0  0
 25 28  1  0  0  0
 21 22  1  0  0  0
  2 16  1  0  0  0
 13 17  1  0  0  0
M  END
> <minimizedAffinity>
-5.43577

> <CNNscore>
0.3157232404

> <CNNaffinity>
4.7126102448

> <CNN_VS>
1.4878805876

> <CNNaffinity_variance>
0.2746940255

$$$$
[H]N=C(N([H])[H])N([H])C([H])([H])C([H])([H])C([H])([H])[C@@]1([H])C(=O)N([H])[C@]([H])(C([H])([H])c2c([H])c([H])c([H])c([H])c2[H])C(=O)N2C([H])([H])C([H])([H])C([H])([H])[C@@]2([H])C(=O)N1[H]


 35 37  0  0  0  0  0  0  0  0999 V2000
  153.8293  136.8945  184.6519 C   0  0  0  0  0  0  0  0  0  0  0  0
  153.0596  135.6753  184.5742 N   0  0  0  0  0  0  0  0  0  0  0  0
  153.7564  134.4900  184.9865 C   0  0  0  0  0  0  0  0  0  0  0  0
  153.2419  133.3880  184.6063 O   0  0  0  0  0  0  0  0  0  0  0  0
  154.9789  134.5559  185.7924 C   0  0  0  0  0  0  0  0  0  0  0  0
  155.6301  133.1658  185.6875 C   0  0  0  0  0  0  0  0  0  0  0  0
  156.3257  132.9444  186.9893 C   0  0  0  0  0  0  0  0  0  0  0  0
  156.0853  134.2527  187.7544 C   0  0  0  0  0  0  0  0  0  0  0  0
  154.7547  134.6087  187.2299 N   0  0  0  0  0  0  0  0  0  0  0  0
  153.5687  134.9038  187.8992 C   0  0  0  0  0  0  0  0  0  0  0  0
  153.0821  133.9433  188.6503 O   0  0  0  0  0  0  0  0  0  0  0  0
  152.7540  136.1232  187.9100 C   0  0  0  0  0  0  0  0  0  0  0  0
  153.1757  137.2346  187.1370 N   0  0  0  0  0  0  0  0  0  0  0  0
  154.0150  137.3643  186.0372 C   0  0  0  0  0  0  0  0  0  0  0  0
  155.1267  137.9909  186.2448 O   0  0  0  0  0  0  0  0  0  0  0  0
  152.0872  135.6795  184.2454 H   0  0  0  0  0  0  0  0  0  0  0  0
  152.7608  138.1988  187.4571 H   0  0  0  0  0  0  0  0  0  0  0  0
  153.1940  137.9518  183.7723 C   0  0  0  0  0  0  0  0  0  0  0  0
  151.7930  137.5182  183.3754 C   0  0  0  0  0  0  0  0  0  0  0  0
  151.4713  137.9070  181.9587 C   0  0  0  0  0  0  0  0  0  0  0  0
  151.4672  139.3329  181.7605 N   0  0  0  0  0  0  0  0  0  0  0  0
  150.7549  139.9498  182.2047 H   0  0  0  0  0  0  0  0  0  0  0  0
  153.4959  140.7404  181.4195 N   0  0  0  0  0  0  0  0  0  0  0  0
  152.4596  139.9093  180.9391 C   0  0  0  0  0  0  0  0  0  0  0  0
  152.4113  139.6584  179.6775 N   0  0  0  0  0  0  0  0  0  0  0  0
  153.6942  141.6542  180.9582 H   0  0  0  0  0  0  0  0  0  0  0  0
  154.0926  140.4854  182.2337 H   0  0  0  0  0  0  0  0  0  0  0  0
  153.1109  140.0503  179.0147 H   0  0  0  0  0  0  0  0  0  0  0  0
  152.5868  136.5991  189.3654 C   0  0  0  0  0  0  0  0  0  0  0  0
  153.8436  136.9372  190.0336 C   0  0  0  0  0  0  0  0  0  0  0  0
  154.4195  136.0621  190.9627 C   0  0  0  0  0  0  0  0  0  0  0  0
  155.6246  136.3858  191.5771 C   0  0  0  0  0  0  0  0  0  0  0  0
  156.2945  137.5573  191.3063 C   0  0  0  0  0  0  0  0  0  0  0  0
  155.7423  138.4189  190.4006 C   0  0  0  0  0  0  0  0  0  0  0  0
  154.5439  138.0932  189.7917 C   0  0  0  0  0  0  0  0  0  0  0  0
 23 24  1  0  0  0
 24 25  2  0  0  0
 24 21  1  0  0  0
 21 20  1  0  0  0
 20 19  1  0  0  0
 19 18  1  0  0  0
 18  1  1  0  0  0
  1  2  1  0  0  0
  2  3  1  0  0  0
  3  4  2  0  0  0
  3  5  1  0  0  0
  5  6  1  0  0  0
  6  7  1  0  0  0
  7  8  1  0  0  0
  8  9  1  0  0  0
  9 10  1  0  0  0
 10 11  2  0  0  0
 10 12  1  0  0  0
 12 29  1  0  0  0
 29 30  1  0  0  0
 30 31  2  0  0  0
 31 32  1  0  0  0
 32 33  2  0  0  0
 33 34  1  0  0  0
 34 35  2  0  0  0
 12 13  1  0  0  0
 13 14  1  0  0  0
 14 15  2  0  0  0
 14  1  1  0  0  0
  9  5  1  0  0  0
 35 30  1  0  0  0
 23 26  1  0  0  0
 23 27  1  0  0  0
 25 28  1  0  0  0
 21 22  1  0  0  0
  2 16  1  0  0  0
 13 17  1  0  0  0
M  END
> <minimizedAffinity>
-5.46079

> <CNNscore>
0.2810675800

> <CNNaffinity>
4.9832258224

> <CNN_VS>
1.4006232023

> <CNNaffinity_variance>
0.0848057643

$$$$
[H]N=C(N([H])[H])N([H])C([H])([H])C([H])([H])C([H])([H])[C@@]1([H])C(=O)N([H])[C@]([H])(C([H])([H])c2c([H])c([H])c([H])c([H])c2[H])C(=O)N2C([H])([H])C([H])([H])C([H])([H])[C@@]2([H])C(=O)N1[H]


 35 37  0  0  0  0  0  0  0  0999 V2000
  157.4669  142.0411  180.5057 C   0  0  0  0  0  0  0  0  0  0  0  0
  156.7664  142.9879  181.3409 N   0  0  0  0  0  0  0  0  0  0  0  0
  155.6278  142.4582  182.0363 C   0  0  0  0  0  0  0  0  0  0  0  0
  154.8059  143.3217  182.4859 O   0  0  0  0  0  0  0  0  0  0  0  0
  155.4346  141.0158  182.2116 C   0  0  0  0  0  0  0  0  0  0  0  0
  153.9634  140.8332  182.6235 C   0  0  0  0  0  0  0  0  0  0  0  0
  153.9378  139.6384  183.5175 C   0  0  0  0  0  0  0  0  0  0  0  0
  155.3959  139.1602  183.5232 C   0  0  0  0  0  0  0  0  0  0  0  0
  156.0851  140.4559  183.3875 N   0  0  0  0  0  0  0  0  0  0  0  0
  157.0834  141.0348  184.1685 C   0  0  0  0  0  0  0  0  0  0  0  0
  156.7668  141.2661  185.4214 O   0  0  0  0  0  0  0  0  0  0  0  0
  158.4513  141.4389  183.8275 C   0  0  0  0  0  0  0  0  0  0  0  0
  158.9132  141.2397  182.5018 N   0  0  0  0  0  0  0  0  0  0  0  0
  158.2651  141.0758  181.2836 C   0  0  0  0  0  0  0  0  0  0  0  0
  158.3722  139.9082  180.7385 O   0  0  0  0  0  0  0  0  0  0  0  0
  157.0775  143.9633  181.4168 H   0  0  0  0  0  0  0  0  0  0  0  0
  160.0052  141.2095  182.3971 H   0  0  0  0  0  0  0  0  0  0  0  0
  158.3072  142.7867  179.4892 C   0  0  0  0  0  0  0  0  0  0  0  0
  159.6148  143.2272  180.1253 C   0  0  0  0  0  0  0  0  0  0  0  0
  159.7164  144.7255  180.2061 C   0  0  0  0  0  0  0  0  0  0  0  0
  159.0046  145.2713  181.3321 N   0  0  0  0  0  0  0  0  0  0  0  0
  158.1240  145.8160  181.2170 H   0  0  0  0  0  0  0  0  0  0  0  0
  160.4763  145.8964  183.2442 N   0  0  0  0  0  0  0  0  0  0  0  0
  159.5178  145.0602  182.6297 C   0  0  0  0  0  0  0  0  0  0  0  0
  159.0819  144.0429  183.2869 N   0  0  0  0  0  0  0  0  0  0  0  0
  161.3236  145.4852  183.6917 H   0  0  0  0  0  0  0  0  0  0  0  0
  160.3831  146.9328  183.2773 H   0  0  0  0  0  0  0  0  0  0  0  0
  159.4172  143.8280  184.2480 H   0  0  0  0  0  0  0  0  0  0  0  0
  159.4332  140.7297  184.7790 C   0  0  0  0  0  0  0  0  0  0  0  0
  160.3386  141.6335  185.4888 C   0  0  0  0  0  0  0  0  0  0  0  0
  159.9313  142.2804  186.6620 C   0  0  0  0  0  0  0  0  0  0  0  0
  160.8075  143.1224  187.3386 C   0  0  0  0  0  0  0  0  0  0  0  0
  162.0901  143.3546  186.8963 C   0  0  0  0  0  0  0  0  0  0  0  0
  162.4990  142.7281  185.7525 C   0  0  0  0  0  0  0  0  0  0  0  0
  161.6246  141.8915  185.0829 C   0  0  0  0  0  0  0  0  0  0  0  0
 23 24  1  0  0  0
 24 25  2  0  0  0
 24 21  1  0  0  0
 21 20  1  0  0  0
 20 19  1  0  0  0
 19 18  1  0  0  0
 18  1  1  0  0  0
  1  2  1  0  0  0
  2  3  1  0  0  0
  3  4  2  0  0  0
  3  5  1  0  0  0
  5  6  1  0  0  0
  6  7  1  0  0  0
  7  8  1  0  0  0
  8  9  1  0  0  0
  9 10  1  0  0  0
 10 11  2  0  0  0
 10 12  1  0  0  0
 12 29  1  0  0  0
 29 30  1  0  0  0
 30 31  2  0  0  0
 31 32  1  0  0  0
 32 33  2  0  0  0
 33 34  1  0  0  0
 34 35  2  0  0  0
 12 13  1  0  0  0
 13 14  1  0  0  0
 14 15  2  0  0  0
 14  1  1  0  0  0
  9  5  1  0  0  0
 35 30  1  0  0  0
 23 26  1  0  0  0
 23 27  1  0  0  0
 25 28  1  0  0  0
 21 22  1  0  0  0
  2 16  1  0  0  0
 13 17  1  0  0  0
M  END
> <minimizedAffinity>
-6.95428

> <CNNscore>
0.2595050037

> <CNNaffinity>
6.6292738914

> <CNN_VS>
1.7203297615

> <CNNaffinity_variance>
0.1370787472

$$$$
[H]N=C(N([H])[H])N([H])C([H])([H])C([H])([H])C([H])([H])[C@@]1([H])C(=O)N([H])[C@]([H])(C([H])([H])c2c([H])c([H])c([H])c([H])c2[H])C(=O)N2C([H])([H])C([H])([H])C([H])([H])[C@@]2([H])C(=O)N1[H]


 35 37  0  0  0  0  0  0  0  0999 V2000
  152.7198  139.2813  182.7436 C   0  0  0  0  0  0  0  0  0  0  0  0
  154.0639  139.1932  183.2636 N   0  0  0  0  0  0  0  0  0  0  0  0
  154.1550  138.8756  184.6605 C   0  0  0  0  0  0  0  0  0  0  0  0
  155.2745  139.1323  185.2122 O   0  0  0  0  0  0  0  0  0  0  0  0
  153.0268  138.2938  185.3935 C   0  0  0  0  0  0  0  0  0  0  0  0
  153.3551  138.4722  186.8860 C   0  0  0  0  0  0  0  0  0  0  0  0
  152.7374  137.3040  187.5797 C   0  0  0  0  0  0  0  0  0  0  0  0
  152.0319  136.5439  186.4486 C   0  0  0  0  0  0  0  0  0  0  0  0
  152.9513  136.8411  185.3356 N   0  0  0  0  0  0  0  0  0  0  0  0
  153.6092  135.9859  184.4539 C   0  0  0  0  0  0  0  0  0  0  0  0
  154.4486  135.1372  185.0002 O   0  0  0  0  0  0  0  0  0  0  0  0
  153.5259  135.8675  182.9945 C   0  0  0  0  0  0  0  0  0  0  0  0
  152.6514  136.7307  182.2869 N   0  0  0  0  0  0  0  0  0  0  0  0
  152.0809  137.9616  182.5879 C   0  0  0  0  0  0  0  0  0  0  0  0
  150.7990  137.9648  182.7563 O   0  0  0  0  0  0  0  0  0  0  0  0
  154.8797  139.3499  182.6604 H   0  0  0  0  0  0  0  0  0  0  0  0
  152.3567  136.3698  181.2933 H   0  0  0  0  0  0  0  0  0  0  0  0
  152.7282  140.0664  181.4478 C   0  0  0  0  0  0  0  0  0  0  0  0
  152.1571  139.2155  180.3261 C   0  0  0  0  0  0  0  0  0  0  0  0
  150.9508  139.8589  179.6996 C   0  0  0  0  0  0  0  0  0  0  0  0
  149.9656  138.8987  179.2753 N   0  0  0  0  0  0  0  0  0  0  0  0
  150.1364  138.2471  178.4806 H   0  0  0  0  0  0  0  0  0  0  0  0
  147.5792  138.2011  179.4522 N   0  0  0  0  0  0  0  0  0  0  0  0
  148.7322  138.8410  179.9588 C   0  0  0  0  0  0  0  0  0  0  0  0
  148.6608  139.4075  181.1125 N   0  0  0  0  0  0  0  0  0  0  0  0
  146.6611  138.6954  179.4501 H   0  0  0  0  0  0  0  0  0  0  0  0
  147.5931  137.2334  179.0685 H   0  0  0  0  0  0  0  0  0  0  0  0
  147.7829  139.4030  181.6707 H   0  0  0  0  0  0  0  0  0  0  0  0
  153.1512  134.4182  182.6317 C   0  0  0  0  0  0  0  0  0  0  0  0
  154.0656  133.7822  181.6833 C   0  0  0  0  0  0  0  0  0  0  0  0
  153.5773  133.1263  180.5466 C   0  0  0  0  0  0  0  0  0  0  0  0
  154.4575  132.5420  179.6420 C   0  0  0  0  0  0  0  0  0  0  0  0
  155.8221  132.5803  179.8175 C   0  0  0  0  0  0  0  0  0  0  0  0
  156.3105  133.2183  180.9231 C   0  0  0  0  0  0  0  0  0  0  0  0
  155.4317  133.7982  181.8200 C   0  0  0  0  0  0  0  0  0  0  0  0
 23 24  1  0  0  0
 24 25  2  0  0  0
 24 21  1  0  0  0
 21 20  1  0  0  0
 20 19  1  0  0  0
 19 18  1  0  0  0
 18  1  1  0  0  0
  1  2  1  0  0  0
  2  3  1  0  0  0
  3  4  2  0  0  0
  3  5  1  0  0  0
  5  6  1  0  0  0
  6  7  1  0  0  0
  7  8  1  0  0  0
  8  9  1  0  0  0
  9 10  1  0  0  0
 10 11  2  0  0  0
 10 12  1  0  0  0
 12 29  1  0  0  0
 29 30  1  0  0  0
 30 31  2  0  0  0
 31 32  1  0  0  0
 32 33  2  0  0  0
 33 34  1  0  0  0
 34 35  2  0  0  0
 12 13  1  0  0  0
 13 14  1  0  0  0
 14 15  2  0  0  0
 14  1  1  0  0  0
  9  5  1  0  0  0
 35 30  1  0  0  0
 23 26  1  0  0  0
 23 27  1  0  0  0
 25 28  1  0  0  0
 21 22  1  0  0  0
  2 16  1  0  0  0
 13 17  1  0  0  0
M  END
> <minimizedAffinity>
-5.48012

> <CNNscore>
0.2576515973

> <CNNaffinity>
4.8916254044

> <CNN_VS>
1.2603350878

> <CNNaffinity_variance>
0.2767218947

$$$$
[H]OC(=O)[C@@]([H])(N([H])C(=O)[C@@]([H])(N([H])C(=O)[C@@]([H])(N([H])C(=O)[C@@]([H])(N([H])C(=O)[C@@]([H])(N([H])C(=O)c1c([H])c([H])c(S(=O)(=O)N([H])[H])c([H])c1[H])C([H])([H])c1c([H])c([H])c([H])c([H])c1[H])C([H])([H])c1c([H])c([H])c([H])c([H])c1[H])C([H])([H])c1c([H])c([H])c(O[H])c([H])c1[H])C([H])([H])c1c([H])c([H])c([H])c([H])c1[H])C([H])([H])c1c([H])c([H])c([H])c([H])c1[H]


 78 83  0  0  0  0  0  0  0  0999 V2000
  152.8701  135.2407  184.7630 C   0  0  0  0  0  0  0  0  0  0  0  0
  153.0747  134.0480  185.0846 O   0  0  0  0  0  0  0  0  0  0  0  0
  152.6552  136.2469  185.6939 N   0  0  0  0  0  0  0  0  0  0  0  0
  152.4959  137.2444  185.3115 H   0  0  0  0  0  0  0  0  0  0  0  0
  152.6132  136.1726  187.1228 C   0  0  0  0  0  0  0  0  0  0  0  0
  151.4463  135.4832  187.6558 C   0  0  0  0  0  0  0  0  0  0  0  0
  150.5740  135.1125  186.7944 O   0  0  0  0  0  0  0  0  0  0  0  0
  151.1585  135.1703  189.0121 N   0  0  0  0  0  0  0  0  0  0  0  0
  151.8680  135.4434  189.7251 H   0  0  0  0  0  0  0  0  0  0  0  0
  149.9456  134.5009  189.3807 C   0  0  0  0  0  0  0  0  0  0  0  0
  148.7294  135.2197  189.0499 C   0  0  0  0  0  0  0  0  0  0  0  0
  148.5197  136.3546  189.5527 O   0  0  0  0  0  0  0  0  0  0  0  0
  147.7633  134.6823  188.1804 N   0  0  0  0  0  0  0  0  0  0  0  0
  147.9465  133.7570  187.7387 H   0  0  0  0  0  0  0  0  0  0  0  0
  146.5408  135.3647  187.8812 C   0  0  0  0  0  0  0  0  0  0  0  0
  145.3697  134.7675  188.5431 C   0  0  0  0  0  0  0  0  0  0  0  0
  144.3772  135.4714  189.1739 O   0  0  0  0  0  0  0  0  0  0  0  0
  145.2893  133.5000  188.5179 O   0  0  0  0  0  0  0  0  0  0  0  0
  143.8779  136.2335  188.7644 H   0  0  0  0  0  0  0  0  0  0  0  0
  146.3474  135.5381  186.4050 C   0  0  0  0  0  0  0  0  0  0  0  0
  146.6107  136.8725  185.8983 C   0  0  0  0  0  0  0  0  0  0  0  0
  147.7843  137.5430  186.1025 C   0  0  0  0  0  0  0  0  0  0  0  0
  147.9446  138.8276  185.5668 C   0  0  0  0  0  0  0  0  0  0  0  0
  146.9440  139.4264  184.8395 C   0  0  0  0  0  0  0  0  0  0  0  0
  145.7722  138.7562  184.6357 C   0  0  0  0  0  0  0  0  0  0  0  0
  145.6191  137.4956  185.1634 C   0  0  0  0  0  0  0  0  0  0  0  0
  149.9136  134.2117  190.8862 C   0  0  0  0  0  0  0  0  0  0  0  0
  150.9195  134.9755  191.6472 C   0  0  0  0  0  0  0  0  0  0  0  0
  152.1655  134.4787  191.9432 C   0  0  0  0  0  0  0  0  0  0  0  0
  153.0452  135.2390  192.6749 C   0  0  0  0  0  0  0  0  0  0  0  0
  152.6895  136.4982  193.1162 C   0  0  0  0  0  0  0  0  0  0  0  0
  151.4630  137.0199  192.8405 C   0  0  0  0  0  0  0  0  0  0  0  0
  150.5816  136.2302  192.0937 C   0  0  0  0  0  0  0  0  0  0  0  0
  152.6437  137.6420  187.6594 C   0  0  0  0  0  0  0  0  0  0  0  0
  153.8513  137.8031  188.5098 C   0  0  0  0  0  0  0  0  0  0  0  0
  155.0972  137.9520  187.9762 C   0  0  0  0  0  0  0  0  0  0  0  0
  156.1882  138.1033  188.8041 C   0  0  0  0  0  0  0  0  0  0  0  0
  156.0480  138.1080  190.1733 C   0  0  0  0  0  0  0  0  0  0  0  0
  157.1356  138.2595  191.0343 O   0  0  0  0  0  0  0  0  0  0  0  0
  154.7850  137.9578  190.7325 C   0  0  0  0  0  0  0  0  0  0  0  0
  153.7091  137.8081  189.8954 C   0  0  0  0  0  0  0  0  0  0  0  0
  158.0830  138.3733  190.7051 H   0  0  0  0  0  0  0  0  0  0  0  0
  152.8617  135.5828  183.3032 C   0  0  0  0  0  0  0  0  0  0  0  0
  152.5483  137.6778  181.9518 C   0  0  0  0  0  0  0  0  0  0  0  0
  152.4074  137.1375  180.8272 O   0  0  0  0  0  0  0  0  0  0  0  0
  152.7634  136.9651  183.1313 N   0  0  0  0  0  0  0  0  0  0  0  0
  152.8781  137.5479  184.0462 H   0  0  0  0  0  0  0  0  0  0  0  0
  152.4767  139.1627  181.9966 C   0  0  0  0  0  0  0  0  0  0  0  0
  154.3788  139.7581  183.5265 C   0  0  0  0  0  0  0  0  0  0  0  0
  153.7292  139.2928  184.5200 O   0  0  0  0  0  0  0  0  0  0  0  0
  153.7880  139.7060  182.2481 N   0  0  0  0  0  0  0  0  0  0  0  0
  154.3608  140.0997  181.4386 H   0  0  0  0  0  0  0  0  0  0  0  0
  158.2346  141.4234  184.2604 C   0  0  0  0  0  0  0  0  0  0  0  0
  157.3086  142.0791  183.4948 C   0  0  0  0  0  0  0  0  0  0  0  0
  156.0369  141.5423  183.2365 C   0  0  0  0  0  0  0  0  0  0  0  0
  155.6941  140.3233  183.7597 C   0  0  0  0  0  0  0  0  0  0  0  0
  156.6340  139.6600  184.5344 C   0  0  0  0  0  0  0  0  0  0  0  0
  157.8747  140.1948  184.7799 C   0  0  0  0  0  0  0  0  0  0  0  0
  161.0477  141.1401  183.8671 N   0  0  0  0  0  0  0  0  0  0  0  0
  159.8186  142.1026  184.5826 S   0  0  0  0  0  0  0  0  0  0  0  0
  160.0518  142.0595  186.0779 O   0  0  0  0  0  0  0  0  0  0  0  0
  159.8861  143.5341  184.1205 O   0  0  0  0  0  0  0  0  0  0  0  0
  160.6281  140.2632  183.4337 H   0  0  0  0  0  0  0  0  0  0  0  0
  161.5681  141.6794  183.1306 H   0  0  0  0  0  0  0  0  0  0  0  0
  151.6749  139.8402  180.9669 C   0  0  0  0  0  0  0  0  0  0  0  0
  150.3305  139.3772  180.6815 C   0  0  0  0  0  0  0  0  0  0  0  0
  149.9450  138.9742  179.4355 C   0  0  0  0  0  0  0  0  0  0  0  0
  148.6625  138.5198  179.1581 C   0  0  0  0  0  0  0  0  0  0  0  0
  147.7346  138.4668  180.1638 C   0  0  0  0  0  0  0  0  0  0  0  0
  148.0866  138.8643  181.4346 C   0  0  0  0  0  0  0  0  0  0  0  0
  149.3614  139.3117  181.6907 C   0  0  0  0  0  0  0  0  0  0  0  0
  154.0093  134.8960  182.6861 C   0  0  0  0  0  0  0  0  0  0  0  0
  153.8284  134.1097  181.4782 C   0  0  0  0  0  0  0  0  0  0  0  0
  152.6554  133.5828  181.0616 C   0  0  0  0  0  0  0  0  0  0  0  0
  152.5855  132.8461  179.9026 C   0  0  0  0  0  0  0  0  0  0  0  0
  153.7155  132.6234  179.1313 C   0  0  0  0  0  0  0  0  0  0  0  0
  154.9027  133.1681  179.5714 C   0  0  0  0  0  0  0  0  0  0  0  0
  154.9876  133.9000  180.7160 C   0  0  0  0  0  0  0  0  0  0  0  0
 59 60  1  0  0  0
 60 61  2  0  0  0
 60 62  2  0  0  0
 60 53  1  0  0  0
 53 54  2  0  0  0
 54 55  1  0  0  0
 55 56  2  0  0  0
 56 57  1  0  0  0
 57 58  2  0  0  0
 56 49  1  0  0  0
 49 50  2  0  0  0
 49 51  1  0  0  0
 51 48  1  0  0  0
 48 65  1  0  0  0
 65 66  1  0  0  0
 66 67  2  0  0  0
 67 68  1  0  0  0
 68 69  2  0  0  0
 69 70  1  0  0  0
 70 71  2  0  0  0
 48 44  1  0  0  0
 44 45  2  0  0  0
 44 46  1  0  0  0
 46 43  1  0  0  0
 43 72  1  0  0  0
 72 73  1  0  0  0
 73 74  2  0  0  0
 74 75  1  0  0  0
 75 76  2  0  0  0
 76 77  1  0  0  0
 77 78  2  0  0  0
 43  1  1  0  0  0
  1  2  2  0  0  0
  1  3  1  0  0  0
  3  5  1  0  0  0
  5 34  1  0  0  0
 34 35  1  0  0  0
 35 36  2  0  0  0
 36 37  1  0  0  0
 37 38  2  0  0  0
 38 39  1  0  0  0
 38 40  1  0  0  0
 40 41  2  0  0  0
  5  6  1  0  0  0
  6  7  2  0  0  0
  6  8  1  0  0  0
  8 10  1  0  0  0
 10 27  1  0  0  0
 27 28  1  0  0  0
 28 29  2  0  0  0
 29 30  1  0  0  0
 30 31  2  0  0  0
 31 32  1  0  0  0
 32 33  2  0  0  0
 10 11  1  0  0  0
 11 12  2  0  0  0
 11 13  1  0  0  0
 13 15  1  0  0  0
 15 20  1  0  0  0
 20 21  1  0  0  0
 21 22  2  0  0  0
 22 23  1  0  0  0
 23 24  2  0  0  0
 24 25  1  0  0  0
 25 26  2  0  0  0
 15 16  1  0  0  0
 16 17  1  0  0  0
 16 18  2  0  0  0
 58 53  1  0  0  0
 71 66  1  0  0  0
 78 73  1  0  0  0
 41 35  1  0  0  0
 33 28  1  0  0  0
 26 21  1  0  0  0
 59 63  1  0  0  0
 59 64  1  0  0  0
 51 52  1  0  0  0
 46 47  1  0  0  0
  3  4  1  0  0  0
 39 42  1  0  0  0
  8  9  1  0  0  0
 13 14  1  0  0  0
 17 19  1  0  0  0
M  END
> <minimizedAffinity>
-9.14099

> <CNNscore>
0.2949575484

> <CNNaffinity>
7.3614645004

> <CNN_VS>
2.1713194847

> <CNNaffinity_variance>
1.4653095007

$$$$
[H]OC(=O)[C@@]([H])(N([H])C(=O)[C@@]([H])(N([H])C(=O)[C@@]([H])(N([H])C(=O)[C@@]([H])(N([H])C(=O)[C@@]([H])(N([H])C(=O)c1c([H])c([H])c(S(=O)(=O)N([H])[H])c([H])c1[H])C([H])([H])c1c([H])c([H])c([H])c([H])c1[H])C([H])([H])c1c([H])c([H])c([H])c([H])c1[H])C([H])([H])c1c([H])c([H])c(O[H])c([H])c1[H])C([H])([H])c1c([H])c([H])c([H])c([H])c1[H])C([H])([H])c1c([H])c([H])c([H])c([H])c1[H]


 78 83  0  0  0  0  0  0  0  0999 V2000
  154.9682  138.3157  186.2520 C   0  0  0  0  0  0  0  0  0  0  0  0
  155.3775  138.5548  187.4108 O   0  0  0  0  0  0  0  0  0  0  0  0
  153.7645  137.6756  185.9941 N   0  0  0  0  0  0  0  0  0  0  0  0
  153.5004  137.5242  184.9578 H   0  0  0  0  0  0  0  0  0  0  0  0
  152.7857  137.1720  186.9093 C   0  0  0  0  0  0  0  0  0  0  0  0
  153.3404  136.5849  188.1211 C   0  0  0  0  0  0  0  0  0  0  0  0
  153.5637  135.3244  188.0801 O   0  0  0  0  0  0  0  0  0  0  0  0
  153.6651  137.2384  189.3409 N   0  0  0  0  0  0  0  0  0  0  0  0
  153.5120  138.2684  189.3851 H   0  0  0  0  0  0  0  0  0  0  0  0
  154.1877  136.5103  190.4596 C   0  0  0  0  0  0  0  0  0  0  0  0
  153.4827  136.7265  191.7092 C   0  0  0  0  0  0  0  0  0  0  0  0
  153.4162  137.8860  192.1950 O   0  0  0  0  0  0  0  0  0  0  0  0
  152.8684  135.6707  192.4066 N   0  0  0  0  0  0  0  0  0  0  0  0
  152.8952  134.7151  191.9934 H   0  0  0  0  0  0  0  0  0  0  0  0
  152.2073  135.8665  193.6612 C   0  0  0  0  0  0  0  0  0  0  0  0
  152.3252  134.7090  194.5626 C   0  0  0  0  0  0  0  0  0  0  0  0
  152.0867  134.7336  195.9120 O   0  0  0  0  0  0  0  0  0  0  0  0
  152.6767  133.6100  194.0310 O   0  0  0  0  0  0  0  0  0  0  0  0
  151.2569  135.0982  196.3320 H   0  0  0  0  0  0  0  0  0  0  0  0
  150.7896  136.3176  193.4786 C   0  0  0  0  0  0  0  0  0  0  0  0
  149.9908  135.5025  192.5818 C   0  0  0  0  0  0  0  0  0  0  0  0
  149.9205  135.7067  191.2320 C   0  0  0  0  0  0  0  0  0  0  0  0
  149.1240  134.8607  190.4491 C   0  0  0  0  0  0  0  0  0  0  0  0
  148.4121  133.8290  191.0128 C   0  0  0  0  0  0  0  0  0  0  0  0
  148.4829  133.6256  192.3609 C   0  0  0  0  0  0  0  0  0  0  0  0
  149.2657  134.4584  193.1255 C   0  0  0  0  0  0  0  0  0  0  0  0
  155.6627  136.8548  190.6986 C   0  0  0  0  0  0  0  0  0  0  0  0
  156.5840  135.7717  190.3079 C   0  0  0  0  0  0  0  0  0  0  0  0
  156.9663  134.7716  191.1686 C   0  0  0  0  0  0  0  0  0  0  0  0
  157.8452  133.8057  190.7422 C   0  0  0  0  0  0  0  0  0  0  0  0
  158.3487  133.8299  189.4565 C   0  0  0  0  0  0  0  0  0  0  0  0
  157.9906  134.8066  188.5791 C   0  0  0  0  0  0  0  0  0  0  0  0
  157.0941  135.7809  189.0322 C   0  0  0  0  0  0  0  0  0  0  0  0
  151.9503  136.0954  186.1406 C   0  0  0  0  0  0  0  0  0  0  0  0
  150.5366  136.5499  186.0910 C   0  0  0  0  0  0  0  0  0  0  0  0
  149.9880  137.0849  184.9632 C   0  0  0  0  0  0  0  0  0  0  0  0
  148.6705  137.4884  184.9621 C   0  0  0  0  0  0  0  0  0  0  0  0
  147.8860  137.3620  186.0860 C   0  0  0  0  0  0  0  0  0  0  0  0
  146.5495  137.7624  186.1120 O   0  0  0  0  0  0  0  0  0  0  0  0
  148.4302  136.8183  187.2430 C   0  0  0  0  0  0  0  0  0  0  0  0
  149.7429  136.4216  187.2284 C   0  0  0  0  0  0  0  0  0  0  0  0
  146.0830  138.1660  185.3129 H   0  0  0  0  0  0  0  0  0  0  0  0
  155.8265  138.7476  185.1010 C   0  0  0  0  0  0  0  0  0  0  0  0
  154.1654  139.1441  183.2578 C   0  0  0  0  0  0  0  0  0  0  0  0
  153.8570  137.9460  183.0436 O   0  0  0  0  0  0  0  0  0  0  0  0
  155.0906  139.5446  184.2217 N   0  0  0  0  0  0  0  0  0  0  0  0
  155.2803  140.6153  184.3088 H   0  0  0  0  0  0  0  0  0  0  0  0
  153.4892  140.1710  182.4209 C   0  0  0  0  0  0  0  0  0  0  0  0
  151.6610  139.4691  180.8467 C   0  0  0  0  0  0  0  0  0  0  0  0
  152.4663  139.5671  179.8631 O   0  0  0  0  0  0  0  0  0  0  0  0
  152.1368  139.7576  182.1414 N   0  0  0  0  0  0  0  0  0  0  0  0
  151.4379  139.6611  182.9418 H   0  0  0  0  0  0  0  0  0  0  0  0
  147.6284  138.3348  180.0524 C   0  0  0  0  0  0  0  0  0  0  0  0
  148.0445  138.6497  181.3178 C   0  0  0  0  0  0  0  0  0  0  0  0
  149.3703  139.0180  181.5989 C   0  0  0  0  0  0  0  0  0  0  0  0
  150.2913  139.0694  180.5859 C   0  0  0  0  0  0  0  0  0  0  0  0
  149.8680  138.7491  179.3045 C   0  0  0  0  0  0  0  0  0  0  0  0
  148.5689  138.3900  179.0418 C   0  0  0  0  0  0  0  0  0  0  0  0
  145.7388  137.6635  178.0209 N   0  0  0  0  0  0  0  0  0  0  0  0
  145.9701  137.8808  179.7086 S   0  0  0  0  0  0  0  0  0  0  0  0
  145.0743  139.0288  180.1230 O   0  0  0  0  0  0  0  0  0  0  0  0
  145.5827  136.6540  180.4910 O   0  0  0  0  0  0  0  0  0  0  0  0
  146.6211  137.9278  177.4876 H   0  0  0  0  0  0  0  0  0  0  0  0
  145.4819  136.6687  177.8005 H   0  0  0  0  0  0  0  0  0  0  0  0
  153.6793  141.5830  182.7844 C   0  0  0  0  0  0  0  0  0  0  0  0
  154.8877  142.2743  182.3778 C   0  0  0  0  0  0  0  0  0  0  0  0
  155.1342  143.5744  182.7133 C   0  0  0  0  0  0  0  0  0  0  0  0
  156.2940  144.2387  182.3363 C   0  0  0  0  0  0  0  0  0  0  0  0
  157.2393  143.5775  181.5984 C   0  0  0  0  0  0  0  0  0  0  0  0
  157.0263  142.2644  181.2415 C   0  0  0  0  0  0  0  0  0  0  0  0
  155.8717  141.6227  181.6237 C   0  0  0  0  0  0  0  0  0  0  0  0
  157.0637  139.3133  185.6657 C   0  0  0  0  0  0  0  0  0  0  0  0
  157.9936  140.0347  184.8143 C   0  0  0  0  0  0  0  0  0  0  0  0
  158.4665  139.5913  183.6282 C   0  0  0  0  0  0  0  0  0  0  0  0
  159.3506  140.3470  182.8947 C   0  0  0  0  0  0  0  0  0  0  0  0
  159.7812  141.5827  183.3521 C   0  0  0  0  0  0  0  0  0  0  0  0
  159.2887  142.0188  184.5633 C   0  0  0  0  0  0  0  0  0  0  0  0
  158.4127  141.2823  185.3004 C   0  0  0  0  0  0  0  0  0  0  0  0
 59 60  1  0  0  0
 60 61  2  0  0  0
 60 62  2  0  0  0
 60 53  1  0  0  0
 53 54  2  0  0  0
 54 55  1  0  0  0
 55 56  2  0  0  0
 56 57  1  0  0  0
 57 58  2  0  0  0
 56 49  1  0  0  0
 49 50  2  0  0  0
 49 51  1  0  0  0
 51 48  1  0  0  0
 48 65  1  0  0  0
 65 66  1  0  0  0
 66 67  2  0  0  0
 67 68  1  0  0  0
 68 69  2  0  0  0
 69 70  1  0  0  0
 70 71  2  0  0  0
 48 44  1  0  0  0
 44 45  2  0  0  0
 44 46  1  0  0  0
 46 43  1  0  0  0
 43 72  1  0  0  0
 72 73  1  0  0  0
 73 74  2  0  0  0
 74 75  1  0  0  0
 75 76  2  0  0  0
 76 77  1  0  0  0
 77 78  2  0  0  0
 43  1  1  0  0  0
  1  2  2  0  0  0
  1  3  1  0  0  0
  3  5  1  0  0  0
  5 34  1  0  0  0
 34 35  1  0  0  0
 35 36  2  0  0  0
 36 37  1  0  0  0
 37 38  2  0  0  0
 38 39  1  0  0  0
 38 40  1  0  0  0
 40 41  2  0  0  0
  5  6  1  0  0  0
  6  7  2  0  0  0
  6  8  1  0  0  0
  8 10  1  0  0  0
 10 27  1  0  0  0
 27 28  1  0  0  0
 28 29  2  0  0  0
 29 30  1  0  0  0
 30 31  2  0  0  0
 31 32  1  0  0  0
 32 33  2  0  0  0
 10 11  1  0  0  0
 11 12  2  0  0  0
 11 13  1  0  0  0
 13 15  1  0  0  0
 15 20  1  0  0  0
 20 21  1  0  0  0
 21 22  2  0  0  0
 22 23  1  0  0  0
 23 24  2  0  0  0
 24 25  1  0  0  0
 25 26  2  0  0  0
 15 16  1  0  0  0
 16 17  1  0  0  0
 16 18  2  0  0  0
 58 53  1  0  0  0
 71 66  1  0  0  0
 78 73  1  0  0  0
 41 35  1  0  0  0
 33 28  1  0  0  0
 26 21  1  0  0  0
 59 63  1  0  0  0
 59 64  1  0  0  0
 51 52  1  0  0  0
 46 47  1  0  0  0
  3  4  1  0  0  0
 39 42  1  0  0  0
  8  9  1  0  0  0
 13 14  1  0  0  0
 17 19  1  0  0  0
M  END
> <minimizedAffinity>
-9.49817

> <CNNscore>
0.2265538573

> <CNNaffinity>
7.3287725449

> <CNN_VS>
1.6603616476

> <CNNaffinity_variance>
1.0758764744

$$$$
[H]OC(=O)[C@@]([H])(N([H])C(=O)[C@@]([H])(N([H])C(=O)[C@@]([H])(N([H])C(=O)[C@@]([H])(N([H])C(=O)[C@@]([H])(N([H])C(=O)c1c([H])c([H])c(S(=O)(=O)N([H])[H])c([H])c1[H])C([H])([H])c1c([H])c([H])c([H])c([H])c1[H])C([H])([H])c1c([H])c([H])c([H])c([H])c1[H])C([H])([H])c1c([H])c([H])c(O[H])c([H])c1[H])C([H])([H])c1c([H])c([H])c([H])c([H])c1[H])C([H])([H])c1c([H])c([H])c([H])c([H])c1[H]


 78 83  0  0  0  0  0  0  0  0999 V2000
  153.9577  136.4790  187.5993 C   0  0  0  0  0  0  0  0  0  0  0  0
  155.0396  136.9992  187.2436 O   0  0  0  0  0  0  0  0  0  0  0  0
  153.6717  136.1604  188.9191 N   0  0  0  0  0  0  0  0  0  0  0  0
  152.7056  135.7215  189.1206 H   0  0  0  0  0  0  0  0  0  0  0  0
  154.4750  136.3288  190.0919 C   0  0  0  0  0  0  0  0  0  0  0  0
  154.5886  135.1363  190.9202 C   0  0  0  0  0  0  0  0  0  0  0  0
  155.4464  135.1945  191.8695 O   0  0  0  0  0  0  0  0  0  0  0  0
  153.8643  133.9187  190.8053 N   0  0  0  0  0  0  0  0  0  0  0  0
  153.1452  133.8612  190.0530 H   0  0  0  0  0  0  0  0  0  0  0  0
  154.1095  132.8198  191.6926 C   0  0  0  0  0  0  0  0  0  0  0  0
  155.1882  131.9387  191.2860 C   0  0  0  0  0  0  0  0  0  0  0  0
  154.9867  131.0798  190.3880 O   0  0  0  0  0  0  0  0  0  0  0  0
  156.4647  132.0094  191.8723 N   0  0  0  0  0  0  0  0  0  0  0  0
  156.6445  132.7383  192.5943 H   0  0  0  0  0  0  0  0  0  0  0  0
  157.5230  131.1167  191.5084 C   0  0  0  0  0  0  0  0  0  0  0  0
  157.6525  129.9715  192.4238 C   0  0  0  0  0  0  0  0  0  0  0  0
  158.7345  129.7238  193.2277 O   0  0  0  0  0  0  0  0  0  0  0  0
  156.6758  129.1599  192.4580 O   0  0  0  0  0  0  0  0  0  0  0  0
  159.1391  130.3912  193.8511 H   0  0  0  0  0  0  0  0  0  0  0  0
  158.8176  131.8434  191.3015 C   0  0  0  0  0  0  0  0  0  0  0  0
  158.9175  132.5900  190.0609 C   0  0  0  0  0  0  0  0  0  0  0  0
  158.4028  133.8445  189.8875 C   0  0  0  0  0  0  0  0  0  0  0  0
  158.5561  134.4859  188.6514 C   0  0  0  0  0  0  0  0  0  0  0  0
  159.2144  133.8775  187.6096 C   0  0  0  0  0  0  0  0  0  0  0  0
  159.7282  132.6248  187.7834 C   0  0  0  0  0  0  0  0  0  0  0  0
  159.5755  131.9988  188.9982 C   0  0  0  0  0  0  0  0  0  0  0  0
  152.8518  131.9590  191.8616 C   0  0  0  0  0  0  0  0  0  0  0  0
  152.0840  132.2828  193.0782 C   0  0  0  0  0  0  0  0  0  0  0  0
  152.5963  133.0403  194.1033 C   0  0  0  0  0  0  0  0  0  0  0  0
  151.8306  133.2849  195.2173 C   0  0  0  0  0  0  0  0  0  0  0  0
  150.5504  132.7767  195.3173 C   0  0  0  0  0  0  0  0  0  0  0  0
  150.0131  132.0224  194.3200 C   0  0  0  0  0  0  0  0  0  0  0  0
  150.8087  131.7850  193.1936 C   0  0  0  0  0  0  0  0  0  0  0  0
  153.8322  137.4863  190.9257 C   0  0  0  0  0  0  0  0  0  0  0  0
  152.6493  136.9436  191.6425 C   0  0  0  0  0  0  0  0  0  0  0  0
  152.5684  136.9370  193.0036 C   0  0  0  0  0  0  0  0  0  0  0  0
  151.4492  136.4278  193.6253 C   0  0  0  0  0  0  0  0  0  0  0  0
  150.3983  135.9199  192.8958 C   0  0  0  0  0  0  0  0  0  0  0  0
  149.2536  135.3984  193.4998 O   0  0  0  0  0  0  0  0  0  0  0  0
  150.4653  135.9198  191.5079 C   0  0  0  0  0  0  0  0  0  0  0  0
  151.5859  136.4299  190.9039 C   0  0  0  0  0  0  0  0  0  0  0  0
  149.1304  135.3631  194.5011 H   0  0  0  0  0  0  0  0  0  0  0  0
  152.9339  136.1951  186.5415 C   0  0  0  0  0  0  0  0  0  0  0  0
  152.3173  137.3396  184.3912 C   0  0  0  0  0  0  0  0  0  0  0  0
  151.0950  137.0522  184.3878 O   0  0  0  0  0  0  0  0  0  0  0  0
  153.2019  136.9464  185.3953 N   0  0  0  0  0  0  0  0  0  0  0  0
  154.2432  137.2515  185.2830 H   0  0  0  0  0  0  0  0  0  0  0  0
  152.8202  138.1460  183.2471 C   0  0  0  0  0  0  0  0  0  0  0  0
  154.4633  140.0412  183.3961 C   0  0  0  0  0  0  0  0  0  0  0  0
  153.5815  140.8448  182.9466 O   0  0  0  0  0  0  0  0  0  0  0  0
  154.1188  138.6852  183.5652 N   0  0  0  0  0  0  0  0  0  0  0  0
  154.8788  138.0413  183.9475 H   0  0  0  0  0  0  0  0  0  0  0  0
  158.3508  141.5610  184.2658 C   0  0  0  0  0  0  0  0  0  0  0  0
  157.9143  140.3755  184.7927 C   0  0  0  0  0  0  0  0  0  0  0  0
  156.6346  139.8636  184.5232 C   0  0  0  0  0  0  0  0  0  0  0  0
  155.7813  140.5598  183.7082 C   0  0  0  0  0  0  0  0  0  0  0  0
  156.2251  141.7613  183.1760 C   0  0  0  0  0  0  0  0  0  0  0  0
  157.4786  142.2521  183.4470 C   0  0  0  0  0  0  0  0  0  0  0  0
  161.1557  141.2114  183.8680 N   0  0  0  0  0  0  0  0  0  0  0  0
  159.9519  142.1910  184.6030 S   0  0  0  0  0  0  0  0  0  0  0  0
  160.1823  142.1102  186.0971 O   0  0  0  0  0  0  0  0  0  0  0  0
  160.0579  143.6296  184.1712 O   0  0  0  0  0  0  0  0  0  0  0  0
  160.7135  140.3553  183.4161 H   0  0  0  0  0  0  0  0  0  0  0  0
  161.6910  141.7520  183.1432 H   0  0  0  0  0  0  0  0  0  0  0  0
  152.6557  137.5919  181.8951 C   0  0  0  0  0  0  0  0  0  0  0  0
  151.7159  138.2044  180.9759 C   0  0  0  0  0  0  0  0  0  0  0  0
  150.4351  137.7544  180.8321 C   0  0  0  0  0  0  0  0  0  0  0  0
  149.5272  138.3431  179.9617 C   0  0  0  0  0  0  0  0  0  0  0  0
  149.9158  139.4198  179.2101 C   0  0  0  0  0  0  0  0  0  0  0  0
  151.2002  139.9029  179.3284 C   0  0  0  0  0  0  0  0  0  0  0  0
  152.0857  139.3071  180.1954 C   0  0  0  0  0  0  0  0  0  0  0  0
  152.8485  134.7318  186.3965 C   0  0  0  0  0  0  0  0  0  0  0  0
  154.0470  133.9501  186.1463 C   0  0  0  0  0  0  0  0  0  0  0  0
  154.7103  133.8983  184.9698 C   0  0  0  0  0  0  0  0  0  0  0  0
  155.8367  133.1224  184.8289 C   0  0  0  0  0  0  0  0  0  0  0  0
  156.3215  132.3721  185.8889 C   0  0  0  0  0  0  0  0  0  0  0  0
  155.6325  132.4369  187.0809 C   0  0  0  0  0  0  0  0  0  0  0  0
  154.5164  133.2008  187.2357 C   0  0  0  0  0  0  0  0  0  0  0  0
 59 60  1  0  0  0
 60 61  2  0  0  0
 60 62  2  0  0  0
 60 53  1  0  0  0
 53 54  2  0  0  0
 54 55  1  0  0  0
 55 56  2  0  0  0
 56 57  1  0  0  0
 57 58  2  0  0  0
 56 49  1  0  0  0
 49 50  2  0  0  0
 49 51  1  0  0  0
 51 48  1  0  0  0
 48 65  1  0  0  0
 65 66  1  0  0  0
 66 67  2  0  0  0
 67 68  1  0  0  0
 68 69  2  0  0  0
 69 70  1  0  0  0
 70 71  2  0  0  0
 48 44  1  0  0  0
 44 45  2  0  0  0
 44 46  1  0  0  0
 46 43  1  0  0  0
 43 72  1  0  0  0
 72 73  1  0  0  0
 73 74  2  0  0  0
 74 75  1  0  0  0
 75 76  2  0  0  0
 76 77  1  0  0  0
 77 78  2  0  0  0
 43  1  1  0  0  0
  1  2  2  0  0  0
  1  3  1  0  0  0
  3  5  1  0  0  0
  5 34  1  0  0  0
 34 35  1  0  0  0
 35 36  2  0  0  0
 36 37  1  0  0  0
 37 38  2  0  0  0
 38 39  1  0  0  0
 38 40  1  0  0  0
 40 41  2  0  0  0
  5  6  1  0  0  0
  6  7  2  0  0  0
  6  8  1  0  0  0
  8 10  1  0  0  0
 10 27  1  0  0  0
 27 28  1  0  0  0
 28 29  2  0  0  0
 29 30  1  0  0  0
 30 31  2  0  0  0
 31 32  1  0  0  0
 32 33  2  0  0  0
 10 11  1  0  0  0
 11 12  2  0  0  0
 11 13  1  0  0  0
 13 15  1  0  0  0
 15 20  1  0  0  0
 20 21  1  0  0  0
 21 22  2  0  0  0
 22 23  1  0  0  0
 23 24  2  0  0  0
 24 25  1  0  0  0
 25 26  2  0  0  0
 15 16  1  0  0  0
 16 17  1  0  0  0
 16 18  2  0  0  0
 58 53  1  0  0  0
 71 66  1  0  0  0
 78 73  1  0  0  0
 41 35  1  0  0  0
 33 28  1  0  0  0
 26 21  1  0  0  0
 59 63  1  0  0  0
 59 64  1  0  0  0
 51 52  1  0  0  0
 46 47  1  0  0  0
  3  4  1  0  0  0
 39 42  1  0  0  0
  8  9  1  0  0  0
 13 14  1  0  0  0
 17 19  1  0  0  0
M  END
> <minimizedAffinity>
-8.51909

> <CNNscore>
0.1642716080

> <CNNaffinity>
6.8466749191

> <CNN_VS>
1.1247142553

> <CNNaffinity_variance>
1.3932807446

$$$$
[H]OC(=O)[C@@]([H])(N([H])C(=O)[C@@]([H])(N([H])C(=O)[C@@]([H])(N([H])C(=O)[C@@]([H])(N([H])C(=O)[C@@]([H])(N([H])C(=O)c1c([H])c([H])c(S(=O)(=O)N([H])[H])c([H])c1[H])C([H])([H])c1c([H])c([H])c([H])c([H])c1[H])C([H])([H])c1c([H])c([H])c([H])c([H])c1[H])C([H])([H])c1c([H])c([H])c(O[H])c([H])c1[H])C([H])([H])c1c([H])c([H])c([H])c([H])c1[H])C([H])([H])c1c([H])c([H])c([H])c([H])c1[H]


 78 83  0  0  0  0  0  0  0  0999 V2000
  151.5229  135.4373  184.4211 C   0  0  0  0  0  0  0  0  0  0  0  0
  151.2881  134.2159  184.5648 O   0  0  0  0  0  0  0  0  0  0  0  0
  150.7536  136.4284  185.0137 N   0  0  0  0  0  0  0  0  0  0  0  0
  151.0460  137.4521  184.8321 H   0  0  0  0  0  0  0  0  0  0  0  0
  149.6021  136.3071  185.8553 C   0  0  0  0  0  0  0  0  0  0  0  0
  149.7708  135.3958  186.9788 C   0  0  0  0  0  0  0  0  0  0  0  0
  148.6911  134.9515  187.5054 O   0  0  0  0  0  0  0  0  0  0  0  0
  150.9846  134.9388  187.5603 N   0  0  0  0  0  0  0  0  0  0  0  0
  151.8738  135.2713  187.1303 H   0  0  0  0  0  0  0  0  0  0  0  0
  150.9831  134.0519  188.6866 C   0  0  0  0  0  0  0  0  0  0  0  0
  151.9234  134.3993  189.7356 C   0  0  0  0  0  0  0  0  0  0  0  0
  153.1592  134.3790  189.4968 O   0  0  0  0  0  0  0  0  0  0  0  0
  151.4955  134.7569  191.0268 N   0  0  0  0  0  0  0  0  0  0  0  0
  150.4732  134.8041  191.2204 H   0  0  0  0  0  0  0  0  0  0  0  0
  152.4164  135.0599  192.0802 C   0  0  0  0  0  0  0  0  0  0  0  0
  152.0014  134.5165  193.3836 C   0  0  0  0  0  0  0  0  0  0  0  0
  151.5652  133.2354  193.6003 O   0  0  0  0  0  0  0  0  0  0  0  0
  152.0586  135.3110  194.3732 O   0  0  0  0  0  0  0  0  0  0  0  0
  152.0534  132.4154  193.3054 H   0  0  0  0  0  0  0  0  0  0  0  0
  152.7352  136.5234  192.1367 C   0  0  0  0  0  0  0  0  0  0  0  0
  154.0814  136.8803  191.7279 C   0  0  0  0  0  0  0  0  0  0  0  0
  155.1873  136.1346  192.0271 C   0  0  0  0  0  0  0  0  0  0  0  0
  156.4453  136.5610  191.5816 C   0  0  0  0  0  0  0  0  0  0  0  0
  156.5885  137.7151  190.8491 C   0  0  0  0  0  0  0  0  0  0  0  0
  155.4836  138.4592  190.5506 C   0  0  0  0  0  0  0  0  0  0  0  0
  154.2509  138.0372  190.9899 C   0  0  0  0  0  0  0  0  0  0  0  0
  151.2888  132.6131  188.2533 C   0  0  0  0  0  0  0  0  0  0  0  0
  150.1207  131.7176  188.3431 C   0  0  0  0  0  0  0  0  0  0  0  0
  149.9244  130.6604  187.4883 C   0  0  0  0  0  0  0  0  0  0  0  0
  148.8014  129.8799  187.6176 C   0  0  0  0  0  0  0  0  0  0  0  0
  147.8672  130.1473  188.5988 C   0  0  0  0  0  0  0  0  0  0  0  0
  148.0312  131.1870  189.4617 C   0  0  0  0  0  0  0  0  0  0  0  0
  149.1816  131.9698  189.3138 C   0  0  0  0  0  0  0  0  0  0  0  0
  148.4240  135.8125  184.9522 C   0  0  0  0  0  0  0  0  0  0  0  0
  147.3300  136.8154  185.0220 C   0  0  0  0  0  0  0  0  0  0  0  0
  146.0608  136.4772  185.3880 C   0  0  0  0  0  0  0  0  0  0  0  0
  145.0790  137.4423  185.4435 C   0  0  0  0  0  0  0  0  0  0  0  0
  145.3528  138.7554  185.1348 C   0  0  0  0  0  0  0  0  0  0  0  0
  144.3776  139.7523  185.1829 O   0  0  0  0  0  0  0  0  0  0  0  0
  146.6413  139.1161  184.7604 C   0  0  0  0  0  0  0  0  0  0  0  0
  147.6075  138.1442  184.7097 C   0  0  0  0  0  0  0  0  0  0  0  0
  143.4200  139.5695  185.4449 H   0  0  0  0  0  0  0  0  0  0  0  0
  152.6920  135.8322  183.5694 C   0  0  0  0  0  0  0  0  0  0  0  0
  152.6458  137.8651  182.0932 C   0  0  0  0  0  0  0  0  0  0  0  0
  152.6449  137.2734  180.9858 O   0  0  0  0  0  0  0  0  0  0  0  0
  152.6679  137.2064  183.3225 N   0  0  0  0  0  0  0  0  0  0  0  0
  152.6738  137.8308  184.2169 H   0  0  0  0  0  0  0  0  0  0  0  0
  152.6214  139.3518  182.0597 C   0  0  0  0  0  0  0  0  0  0  0  0
  154.4899  140.0030  183.6083 C   0  0  0  0  0  0  0  0  0  0  0  0
  153.7875  139.6458  184.6107 O   0  0  0  0  0  0  0  0  0  0  0  0
  153.9433  139.8662  182.3166 N   0  0  0  0  0  0  0  0  0  0  0  0
  154.5595  140.1703  181.5004 H   0  0  0  0  0  0  0  0  0  0  0  0
  158.4016  141.5707  184.2564 C   0  0  0  0  0  0  0  0  0  0  0  0
  158.0160  140.3718  184.7927 C   0  0  0  0  0  0  0  0  0  0  0  0
  156.7295  139.8439  184.5959 C   0  0  0  0  0  0  0  0  0  0  0  0
  155.8172  140.5377  183.8453 C   0  0  0  0  0  0  0  0  0  0  0  0
  156.2094  141.7528  183.3036 C   0  0  0  0  0  0  0  0  0  0  0  0
  157.4702  142.2591  183.5032 C   0  0  0  0  0  0  0  0  0  0  0  0
  161.1854  141.2454  183.7155 N   0  0  0  0  0  0  0  0  0  0  0  0
  160.0113  142.2207  184.5024 S   0  0  0  0  0  0  0  0  0  0  0  0
  160.3206  142.1588  185.9832 O   0  0  0  0  0  0  0  0  0  0  0  0
  160.0790  143.6555  184.0506 O   0  0  0  0  0  0  0  0  0  0  0  0
  160.7293  140.3799  183.2964 H   0  0  0  0  0  0  0  0  0  0  0  0
  161.6761  141.7834  182.9580 H   0  0  0  0  0  0  0  0  0  0  0  0
  151.8670  139.9993  180.9763 C   0  0  0  0  0  0  0  0  0  0  0  0
  150.5345  139.5307  180.6475 C   0  0  0  0  0  0  0  0  0  0  0  0
  149.5248  139.4950  181.5656 C   0  0  0  0  0  0  0  0  0  0  0  0
  148.2441  139.0577  181.2545 C   0  0  0  0  0  0  0  0  0  0  0  0
  147.9653  138.6424  179.9797 C   0  0  0  0  0  0  0  0  0  0  0  0
  148.9583  138.6648  179.0255 C   0  0  0  0  0  0  0  0  0  0  0  0
  150.2209  139.1010  179.3519 C   0  0  0  0  0  0  0  0  0  0  0  0
  153.9003  135.2704  184.1970 C   0  0  0  0  0  0  0  0  0  0  0  0
  154.7401  134.3391  183.4639 C   0  0  0  0  0  0  0  0  0  0  0  0
  154.8478  134.2829  182.1177 C   0  0  0  0  0  0  0  0  0  0  0  0
  155.6684  133.3594  181.5139 C   0  0  0  0  0  0  0  0  0  0  0  0
  156.4062  132.4612  182.2692 C   0  0  0  0  0  0  0  0  0  0  0  0
  156.2840  132.5330  183.6402 C   0  0  0  0  0  0  0  0  0  0  0  0
  155.4763  133.4419  184.2523 C   0  0  0  0  0  0  0  0  0  0  0  0
 59 60  1  0  0  0
 60 61  2  0  0  0
 60 62  2  0  0  0
 60 53  1  0  0  0
 53 54  2  0  0  0
 54 55  1  0  0  0
 55 56  2  0  0  0
 56 57  1  0  0  0
 57 58  2  0  0  0
 56 49  1  0  0  0
 49 50  2  0  0  0
 49 51  1  0  0  0
 51 48  1  0  0  0
 48 65  1  0  0  0
 65 66  1  0  0  0
 66 67  2  0  0  0
 67 68  1  0  0  0
 68 69  2  0  0  0
 69 70  1  0  0  0
 70 71  2  0  0  0
 48 44  1  0  0  0
 44 45  2  0  0  0
 44 46  1  0  0  0
 46 43  1  0  0  0
 43 72  1  0  0  0
 72 73  1  0  0  0
 73 74  2  0  0  0
 74 75  1  0  0  0
 75 76  2  0  0  0
 76 77  1  0  0  0
 77 78  2  0  0  0
 43  1  1  0  0  0
  1  2  2  0  0  0
  1  3  1  0  0  0
  3  5  1  0  0  0
  5 34  1  0  0  0
 34 35  1  0  0  0
 35 36  2  0  0  0
 36 37  1  0  0  0
 37 38  2  0  0  0
 38 39  1  0  0  0
 38 40  1  0  0  0
 40 41  2  0  0  0
  5  6  1  0  0  0
  6  7  2  0  0  0
  6  8  1  0  0  0
  8 10  1  0  0  0
 10 27  1  0  0  0
 27 28  1  0  0  0
 28 29  2  0  0  0
 29 30  1  0  0  0
 30 31  2  0  0  0
 31 32  1  0  0  0
 32 33  2  0  0  0
 10 11  1  0  0  0
 11 12  2  0  0  0
 11 13  1  0  0  0
 13 15  1  0  0  0
 15 20  1  0  0  0
 20 21  1  0  0  0
 21 22  2  0  0  0
 22 23  1  0  0  0
 23 24  2  0  0  0
 24 25  1  0  0  0
 25 26  2  0  0  0
 15 16  1  0  0  0
 16 17  1  0  0  0
 16 18  2  0  0  0
 58 53  1  0  0  0
 71 66  1  0  0  0
 78 73  1  0  0  0
 41 35  1  0  0  0
 33 28  1  0  0  0
 26 21  1  0  0  0
 59 63  1  0  0  0
 59 64  1  0  0  0
 51 52  1  0  0  0
 46 47  1  0  0  0
  3  4  1  0  0  0
 39 42  1  0  0  0
  8  9  1  0  0  0
 13 14  1  0  0  0
 17 19  1  0  0  0
M  END
> <minimizedAffinity>
-8.54979

> <CNNscore>
0.1583235115

> <CNNaffinity>
7.3544449806

> <CNN_VS>
1.1643815041

> <CNNaffinity_variance>
0.6936436892

$$$$
[H]OC(=O)[C@@]([H])(N([H])C(=O)[C@@]([H])(N([H])C(=O)[C@@]([H])(N([H])C(=O)[C@@]([H])(N([H])C(=O)[C@@]([H])(N([H])C(=O)c1c([H])c([H])c(S(=O)(=O)N([H])[H])c([H])c1[H])C([H])([H])c1c([H])c([H])c([H])c([H])c1[H])C([H])([H])c1c([H])c([H])c([H])c([H])c1[H])C([H])([H])c1c([H])c([H])c(O[H])c([H])c1[H])C([H])([H])c1c([H])c([H])c([H])c([H])c1[H])C([H])([H])c1c([H])c([H])c([H])c([H])c1[H]


 78 83  0  0  0  0  0  0  0  0999 V2000
  153.6326  137.6986  185.2190 C   0  0  0  0  0  0  0  0  0  0  0  0
  154.5920  137.0212  185.6529 O   0  0  0  0  0  0  0  0  0  0  0  0
  152.4827  137.9377  185.9578 N   0  0  0  0  0  0  0  0  0  0  0  0
  151.7168  138.5413  185.4935 H   0  0  0  0  0  0  0  0  0  0  0  0
  152.1406  137.5023  187.2778 C   0  0  0  0  0  0  0  0  0  0  0  0
  153.2779  137.3469  188.1742 C   0  0  0  0  0  0  0  0  0  0  0  0
  153.7619  138.4302  188.6564 O   0  0  0  0  0  0  0  0  0  0  0  0
  153.9142  136.1424  188.5799 N   0  0  0  0  0  0  0  0  0  0  0  0
  153.5195  135.2490  188.2161 H   0  0  0  0  0  0  0  0  0  0  0  0
  155.0468  136.1580  189.4585 C   0  0  0  0  0  0  0  0  0  0  0  0
  156.2706  135.6325  188.8826 C   0  0  0  0  0  0  0  0  0  0  0  0
  156.9299  136.3348  188.0721 O   0  0  0  0  0  0  0  0  0  0  0  0
  156.7475  134.3478  189.1993 N   0  0  0  0  0  0  0  0  0  0  0  0
  156.2214  133.7751  189.8922 H   0  0  0  0  0  0  0  0  0  0  0  0
  157.9305  133.8039  188.6042 C   0  0  0  0  0  0  0  0  0  0  0  0
  157.6938  132.5261  187.9132 C   0  0  0  0  0  0  0  0  0  0  0  0
  158.5958  131.8915  187.0995 O   0  0  0  0  0  0  0  0  0  0  0  0
  156.5598  131.9838  188.0969 O   0  0  0  0  0  0  0  0  0  0  0  0
  159.5406  131.6899  187.3533 H   0  0  0  0  0  0  0  0  0  0  0  0
  159.0636  133.7332  189.5828 C   0  0  0  0  0  0  0  0  0  0  0  0
  158.9748  132.6610  190.5570 C   0  0  0  0  0  0  0  0  0  0  0  0
  158.0802  132.6480  191.5906 C   0  0  0  0  0  0  0  0  0  0  0  0
  158.0691  131.5629  192.4767 C   0  0  0  0  0  0  0  0  0  0  0  0
  158.9406  130.5108  192.3263 C   0  0  0  0  0  0  0  0  0  0  0  0
  159.8336  130.5244  191.2938 C   0  0  0  0  0  0  0  0  0  0  0  0
  159.8413  131.5914  190.4265 C   0  0  0  0  0  0  0  0  0  0  0  0
  154.7613  135.3610  190.7370 C   0  0  0  0  0  0  0  0  0  0  0  0
  153.5263  135.7840  191.4229 C   0  0  0  0  0  0  0  0  0  0  0  0
  153.4134  136.9839  192.0821 C   0  0  0  0  0  0  0  0  0  0  0  0
  152.2381  137.3034  192.7175 C   0  0  0  0  0  0  0  0  0  0  0  0
  151.1683  136.4302  192.7003 C   0  0  0  0  0  0  0  0  0  0  0  0
  151.2473  135.2336  192.0567 C   0  0  0  0  0  0  0  0  0  0  0  0
  152.4525  134.9269  191.4153 C   0  0  0  0  0  0  0  0  0  0  0  0
  151.3986  136.1327  187.1310 C   0  0  0  0  0  0  0  0  0  0  0  0
  149.9912  136.3152  187.5710 C   0  0  0  0  0  0  0  0  0  0  0  0
  149.5078  135.7368  188.7072 C   0  0  0  0  0  0  0  0  0  0  0  0
  148.1963  135.9381  189.0789 C   0  0  0  0  0  0  0  0  0  0  0  0
  147.3531  136.7188  188.3213 C   0  0  0  0  0  0  0  0  0  0  0  0
  146.0212  136.9389  188.6747 O   0  0  0  0  0  0  0  0  0  0  0  0
  147.8308  137.3154  187.1610 C   0  0  0  0  0  0  0  0  0  0  0  0
  149.1382  137.1055  186.8042 C   0  0  0  0  0  0  0  0  0  0  0  0
  145.6010  136.5404  189.5015 H   0  0  0  0  0  0  0  0  0  0  0  0
  153.7458  138.2724  183.8385 C   0  0  0  0  0  0  0  0  0  0  0  0
  152.2545  138.4353  181.8227 C   0  0  0  0  0  0  0  0  0  0  0  0
  152.9986  139.1591  181.1163 O   0  0  0  0  0  0  0  0  0  0  0  0
  152.5862  138.0058  183.1076 N   0  0  0  0  0  0  0  0  0  0  0  0
  151.8531  137.3857  183.6253 H   0  0  0  0  0  0  0  0  0  0  0  0
  150.9530  138.0292  181.2283 C   0  0  0  0  0  0  0  0  0  0  0  0
  149.7197  136.0690  182.2031 C   0  0  0  0  0  0  0  0  0  0  0  0
  150.1077  135.3386  181.2328 O   0  0  0  0  0  0  0  0  0  0  0  0
  150.1261  137.4179  182.2386 N   0  0  0  0  0  0  0  0  0  0  0  0
  149.7874  137.9992  183.0667 H   0  0  0  0  0  0  0  0  0  0  0  0
  147.2365  134.2881  185.1765 C   0  0  0  0  0  0  0  0  0  0  0  0
  146.7723  135.2881  184.3653 C   0  0  0  0  0  0  0  0  0  0  0  0
  147.5782  135.8912  183.3860 C   0  0  0  0  0  0  0  0  0  0  0  0
  148.8743  135.4779  183.2227 C   0  0  0  0  0  0  0  0  0  0  0  0
  149.3431  134.4652  184.0462 C   0  0  0  0  0  0  0  0  0  0  0  0
  148.5457  133.8832  185.0007 C   0  0  0  0  0  0  0  0  0  0  0  0
  145.3178  132.2443  185.7148 N   0  0  0  0  0  0  0  0  0  0  0  0
  146.2225  133.5366  186.3935 S   0  0  0  0  0  0  0  0  0  0  0  0
  145.2177  134.5653  186.8669 O   0  0  0  0  0  0  0  0  0  0  0  0
  147.0491  133.0867  187.5690 O   0  0  0  0  0  0  0  0  0  0  0  0
  145.4745  132.1928  184.6634 H   0  0  0  0  0  0  0  0  0  0  0  0
  145.5835  131.3270  186.1531 H   0  0  0  0  0  0  0  0  0  0  0  0
  150.2870  138.9797  180.3255 C   0  0  0  0  0  0  0  0  0  0  0  0
  148.8881  138.7947  179.9908 C   0  0  0  0  0  0  0  0  0  0  0  0
  147.8795  139.3013  180.7588 C   0  0  0  0  0  0  0  0  0  0  0  0
  146.5384  139.1369  180.4381 C   0  0  0  0  0  0  0  0  0  0  0  0
  146.1962  138.4418  179.3090 C   0  0  0  0  0  0  0  0  0  0  0  0
  147.1862  137.9164  178.5085 C   0  0  0  0  0  0  0  0  0  0  0  0
  148.5090  138.0890  178.8419 C   0  0  0  0  0  0  0  0  0  0  0  0
  154.1564  139.6797  183.9817 C   0  0  0  0  0  0  0  0  0  0  0  0
  155.5461  140.0591  183.7953 C   0  0  0  0  0  0  0  0  0  0  0  0
  156.5698  139.6781  184.5915 C   0  0  0  0  0  0  0  0  0  0  0  0
  157.8550  140.0946  184.3353 C   0  0  0  0  0  0  0  0  0  0  0  0
  158.1349  140.9166  183.2549 C   0  0  0  0  0  0  0  0  0  0  0  0
  157.0790  141.2951  182.4539 C   0  0  0  0  0  0  0  0  0  0  0  0
  155.8017  140.8905  182.6945 C   0  0  0  0  0  0  0  0  0  0  0  0
 59 60  1  0  0  0
 60 61  2  0  0  0
 60 62  2  0  0  0
 60 53  1  0  0  0
 53 54  2  0  0  0
 54 55  1  0  0  0
 55 56  2  0  0  0
 56 57  1  0  0  0
 57 58  2  0  0  0
 56 49  1  0  0  0
 49 50  2  0  0  0
 49 51  1  0  0  0
 51 48  1  0  0  0
 48 65  1  0  0  0
 65 66  1  0  0  0
 66 67  2  0  0  0
 67 68  1  0  0  0
 68 69  2  0  0  0
 69 70  1  0  0  0
 70 71  2  0  0  0
 48 44  1  0  0  0
 44 45  2  0  0  0
 44 46  1  0  0  0
 46 43  1  0  0  0
 43 72  1  0  0  0
 72 73  1  0  0  0
 73 74  2  0  0  0
 74 75  1  0  0  0
 75 76  2  0  0  0
 76 77  1  0  0  0
 77 78  2  0  0  0
 43  1  1  0  0  0
  1  2  2  0  0  0
  1  3  1  0  0  0
  3  5  1  0  0  0
  5 34  1  0  0  0
 34 35  1  0  0  0
 35 36  2  0  0  0
 36 37  1  0  0  0
 37 38  2  0  0  0
 38 39  1  0  0  0
 38 40  1  0  0  0
 40 41  2  0  0  0
  5  6  1  0  0  0
  6  7  2  0  0  0
  6  8  1  0  0  0
  8 10  1  0  0  0
 10 27  1  0  0  0
 27 28  1  0  0  0
 28 29  2  0  0  0
 29 30  1  0  0  0
 30 31  2  0  0  0
 31 32  1  0  0  0
 32 33  2  0  0  0
 10 11  1  0  0  0
 11 12  2  0  0  0
 11 13  1  0  0  0
 13 15  1  0  0  0
 15 20  1  0  0  0
 20 21  1  0  0  0
 21 22  2  0  0  0
 22 23  1  0  0  0
 23 24  2  0  0  0
 24 25  1  0  0  0
 25 26  2  0  0  0
 15 16  1  0  0  0
 16 17  1  0  0  0
 16 18  2  0  0  0
 58 53  1  0  0  0
 71 66  1  0  0  0
 78 73  1  0  0  0
 41 35  1  0  0  0
 33 28  1  0  0  0
 26 21  1  0  0  0
 59 63  1  0  0  0
 59 64  1  0  0  0
 51 52  1  0  0  0
 46 47  1  0  0  0
  3  4  1  0  0  0
 39 42  1  0  0  0
  8  9  1  0  0  0
 13 14  1  0  0  0
 17 19  1  0  0  0
M  END
> <minimizedAffinity>
-7.81818

> <CNNscore>
0.1436966062

> <CNNaffinity>
6.8104867935

> <CNN_VS>
0.9786438346

> <CNNaffinity_variance>
1.1538139582

$$$$
[H]OC(=O)[C@@]([H])(N([H])C(=O)[C@@]([H])(N([H])C(=O)[C@@]([H])(N([H])C(=O)[C@@]([H])(N([H])C(=O)[C@@]([H])(N([H])C(=O)c1c([H])c([H])c(S(=O)(=O)N([H])[H])c([H])c1[H])C([H])([H])c1c([H])c([H])c([H])c([H])c1[H])C([H])([H])c1c([H])c([H])c([H])c([H])c1[H])C([H])([H])c1c([H])c([H])c(O[H])c([H])c1[H])C([H])([H])c1c([H])c([H])c([H])c([H])c1[H])C([H])([H])c1c([H])c([H])c([H])c([H])c1[H]


 78 83  0  0  0  0  0  0  0  0999 V2000
  154.1897  138.0326  187.8322 C   0  0  0  0  0  0  0  0  0  0  0  0
  152.9814  138.3241  187.9825 O   0  0  0  0  0  0  0  0  0  0  0  0
  154.8498  138.1544  186.6179 N   0  0  0  0  0  0  0  0  0  0  0  0
  155.8951  137.8832  186.5973 H   0  0  0  0  0  0  0  0  0  0  0  0
  154.3530  138.5986  185.3510 C   0  0  0  0  0  0  0  0  0  0  0  0
  153.5636  137.6075  184.6328 C   0  0  0  0  0  0  0  0  0  0  0  0
  154.2081  136.5927  184.1911 O   0  0  0  0  0  0  0  0  0  0  0  0
  152.1680  137.6279  184.3640 N   0  0  0  0  0  0  0  0  0  0  0  0
  151.6228  138.4346  184.7359 H   0  0  0  0  0  0  0  0  0  0  0  0
  151.5380  136.5781  183.6183 C   0  0  0  0  0  0  0  0  0  0  0  0
  150.9961  136.9842  182.3351 C   0  0  0  0  0  0  0  0  0  0  0  0
  150.5360  136.1149  181.5494 O   0  0  0  0  0  0  0  0  0  0  0  0
  150.9723  138.3318  181.9328 N   0  0  0  0  0  0  0  0  0  0  0  0
  151.3243  139.0573  182.5919 H   0  0  0  0  0  0  0  0  0  0  0  0
  150.4790  138.7380  180.6518 C   0  0  0  0  0  0  0  0  0  0  0  0
  151.4870  139.4408  179.8416 C   0  0  0  0  0  0  0  0  0  0  0  0
  152.8400  139.3965  180.0552 O   0  0  0  0  0  0  0  0  0  0  0  0
  151.0504  140.1378  178.8734 O   0  0  0  0  0  0  0  0  0  0  0  0
  153.3682  138.5548  180.1566 H   0  0  0  0  0  0  0  0  0  0  0  0
  149.1931  139.4995  180.7666 C   0  0  0  0  0  0  0  0  0  0  0  0
  148.0329  138.8468  180.1882 C   0  0  0  0  0  0  0  0  0  0  0  0
  146.7474  139.1006  180.5779 C   0  0  0  0  0  0  0  0  0  0  0  0
  145.6928  138.4217  179.9536 C   0  0  0  0  0  0  0  0  0  0  0  0
  145.9263  137.5053  178.9563 C   0  0  0  0  0  0  0  0  0  0  0  0
  147.2102  137.2524  178.5675 C   0  0  0  0  0  0  0  0  0  0  0  0
  148.2423  137.9208  179.1830 C   0  0  0  0  0  0  0  0  0  0  0  0
  150.3948  135.9445  184.4203 C   0  0  0  0  0  0  0  0  0  0  0  0
  149.3343  136.9040  184.7795 C   0  0  0  0  0  0  0  0  0  0  0  0
  149.3111  137.5755  185.9777 C   0  0  0  0  0  0  0  0  0  0  0  0
  148.2797  138.4399  186.2537 C   0  0  0  0  0  0  0  0  0  0  0  0
  147.2653  138.6409  185.3384 C   0  0  0  0  0  0  0  0  0  0  0  0
  147.2581  137.9914  184.1424 C   0  0  0  0  0  0  0  0  0  0  0  0
  148.3175  137.1156  183.8800 C   0  0  0  0  0  0  0  0  0  0  0  0
  155.5937  139.0049  184.4887 C   0  0  0  0  0  0  0  0  0  0  0  0
  155.3078  140.3146  183.8482 C   0  0  0  0  0  0  0  0  0  0  0  0
  154.1595  140.5429  183.1494 C   0  0  0  0  0  0  0  0  0  0  0  0
  153.9347  141.7755  182.5762 C   0  0  0  0  0  0  0  0  0  0  0  0
  154.8530  142.7940  182.6944 C   0  0  0  0  0  0  0  0  0  0  0  0
  154.6504  144.0514  182.1241 O   0  0  0  0  0  0  0  0  0  0  0  0
  156.0279  142.5774  183.4037 C   0  0  0  0  0  0  0  0  0  0  0  0
  156.2372  141.3452  183.9682 C   0  0  0  0  0  0  0  0  0  0  0  0
  153.8236  144.2857  181.5945 H   0  0  0  0  0  0  0  0  0  0  0  0
  154.9452  137.5328  189.0269 C   0  0  0  0  0  0  0  0  0  0  0  0
  153.7289  137.1248  191.1874 C   0  0  0  0  0  0  0  0  0  0  0  0
  154.1441  138.1322  191.8114 O   0  0  0  0  0  0  0  0  0  0  0  0
  154.0931  136.8228  189.8753 N   0  0  0  0  0  0  0  0  0  0  0  0
  153.6718  135.9143  189.4429 H   0  0  0  0  0  0  0  0  0  0  0  0
  152.7973  136.2219  191.9147 C   0  0  0  0  0  0  0  0  0  0  0  0
  150.3836  135.8364  191.3327 C   0  0  0  0  0  0  0  0  0  0  0  0
  150.0317  136.3213  192.4581 O   0  0  0  0  0  0  0  0  0  0  0  0
  151.7569  135.7749  191.0226 N   0  0  0  0  0  0  0  0  0  0  0  0
  152.0160  135.3678  190.0710 H   0  0  0  0  0  0  0  0  0  0  0  0
  147.3236  134.4874  188.6877 C   0  0  0  0  0  0  0  0  0  0  0  0
  147.8646  133.6591  189.6337 C   0  0  0  0  0  0  0  0  0  0  0  0
  148.8782  134.0841  190.5079 C   0  0  0  0  0  0  0  0  0  0  0  0
  149.3535  135.3665  190.4261 C   0  0  0  0  0  0  0  0  0  0  0  0
  148.8047  136.2040  189.4663 C   0  0  0  0  0  0  0  0  0  0  0  0
  147.8140  135.7770  188.6166 C   0  0  0  0  0  0  0  0  0  0  0  0
  145.7453  135.1357  186.3992 N   0  0  0  0  0  0  0  0  0  0  0  0
  146.0547  133.9508  187.6031 S   0  0  0  0  0  0  0  0  0  0  0  0
  144.7798  133.8088  188.4072 O   0  0  0  0  0  0  0  0  0  0  0  0
  146.4015  132.6152  187.0005 O   0  0  0  0  0  0  0  0  0  0  0  0
  146.3197  136.0124  186.5842 H   0  0  0  0  0  0  0  0  0  0  0  0
  145.9690  134.7670  185.4410 H   0  0  0  0  0  0  0  0  0  0  0  0
  153.3828  135.2032  192.7988 C   0  0  0  0  0  0  0  0  0  0  0  0
  152.6184  134.7026  193.9250 C   0  0  0  0  0  0  0  0  0  0  0  0
  152.2074  133.4036  194.0101 C   0  0  0  0  0  0  0  0  0  0  0  0
  151.4846  132.9154  195.0906 C   0  0  0  0  0  0  0  0  0  0  0  0
  151.1630  133.7576  196.1215 C   0  0  0  0  0  0  0  0  0  0  0  0
  151.5610  135.0752  196.0717 C   0  0  0  0  0  0  0  0  0  0  0  0
  152.2761  135.5410  194.9935 C   0  0  0  0  0  0  0  0  0  0  0  0
  156.1461  136.8414  188.5275 C   0  0  0  0  0  0  0  0  0  0  0  0
  156.5087  135.5352  189.0495 C   0  0  0  0  0  0  0  0  0  0  0  0
  157.0929  135.3112  190.2476 C   0  0  0  0  0  0  0  0  0  0  0  0
  157.4035  134.0345  190.6528 C   0  0  0  0  0  0  0  0  0  0  0  0
  157.1270  132.9436  189.8436 C   0  0  0  0  0  0  0  0  0  0  0  0
  156.5313  133.1907  188.6255 C   0  0  0  0  0  0  0  0  0  0  0  0
  156.2173  134.4487  188.2109 C   0  0  0  0  0  0  0  0  0  0  0  0
 59 60  1  0  0  0
 60 61  2  0  0  0
 60 62  2  0  0  0
 60 53  1  0  0  0
 53 54  2  0  0  0
 54 55  1  0  0  0
 55 56  2  0  0  0
 56 57  1  0  0  0
 57 58  2  0  0  0
 56 49  1  0  0  0
 49 50  2  0  0  0
 49 51  1  0  0  0
 51 48  1  0  0  0
 48 65  1  0  0  0
 65 66  1  0  0  0
 66 67  2  0  0  0
 67 68  1  0  0  0
 68 69  2  0  0  0
 69 70  1  0  0  0
 70 71  2  0  0  0
 48 44  1  0  0  0
 44 45  2  0  0  0
 44 46  1  0  0  0
 46 43  1  0  0  0
 43 72  1  0  0  0
 72 73  1  0  0  0
 73 74  2  0  0  0
 74 75  1  0  0  0
 75 76  2  0  0  0
 76 77  1  0  0  0
 77 78  2  0  0  0
 43  1  1  0  0  0
  1  2  2  0  0  0
  1  3  1  0  0  0
  3  5  1  0  0  0
  5 34  1  0  0  0
 34 35  1  0  0  0
 35 36  2  0  0  0
 36 37  1  0  0  0
 37 38  2  0  0  0
 38 39  1  0  0  0
 38 40  1  0  0  0
 40 41  2  0  0  0
  5  6  1  0  0  0
  6  7  2  0  0  0
  6  8  1  0  0  0
  8 10  1  0  0  0
 10 27  1  0  0  0
 27 28  1  0  0  0
 28 29  2  0  0  0
 29 30  1  0  0  0
 30 31  2  0  0  0
 31 32  1  0  0  0
 32 33  2  0  0  0
 10 11  1  0  0  0
 11 12  2  0  0  0
 11 13  1  0  0  0
 13 15  1  0  0  0
 15 20  1  0  0  0
 20 21  1  0  0  0
 21 22  2  0  0  0
 22 23  1  0  0  0
 23 24  2  0  0  0
 24 25  1  0  0  0
 25 26  2  0  0  0
 15 16  1  0  0  0
 16 17  1  0  0  0
 16 18  2  0  0  0
 58 53  1  0  0  0
 71 66  1  0  0  0
 78 73  1  0  0  0
 41 35  1  0  0  0
 33 28  1  0  0  0
 26 21  1  0  0  0
 59 63  1  0  0  0
 59 64  1  0  0  0
 51 52  1  0  0  0
 46 47  1  0  0  0
  3  4  1  0  0  0
 39 42  1  0  0  0
  8  9  1  0  0  0
 13 14  1  0  0  0
 17 19  1  0  0  0
M  END
> <minimizedAffinity>
-8.58215

> <CNNscore>
0.1434600055

> <CNNaffinity>
6.8844323158

> <CNN_VS>
0.9876406789

> <CNNaffinity_variance>
1.5678145885

$$$$
[H]OC(=O)[C@@]([H])(N([H])C(=O)[C@@]([H])(N([H])C(=O)[C@@]([H])(N([H])C(=O)[C@@]([H])(N([H])C(=O)[C@@]([H])(N([H])C(=O)c1c([H])c([H])c(S(=O)(=O)N([H])[H])c([H])c1[H])C([H])([H])c1c([H])c([H])c([H])c([H])c1[H])C([H])([H])c1c([H])c([H])c([H])c([H])c1[H])C([H])([H])c1c([H])c([H])c(O[H])c([H])c1[H])C([H])([H])c1c([H])c([H])c([H])c([H])c1[H])C([H])([H])c1c([H])c([H])c([H])c([H])c1[H]


 78 83  0  0  0  0  0  0  0  0999 V2000
  152.6913  137.5027  186.9548 C   0  0  0  0  0  0  0  0  0  0  0  0
  152.2393  138.6561  187.1368 O   0  0  0  0  0  0  0  0  0  0  0  0
  154.0299  137.2498  186.6916 N   0  0  0  0  0  0  0  0  0  0  0  0
  154.3180  136.2176  186.5575 H   0  0  0  0  0  0  0  0  0  0  0  0
  155.1234  138.1654  186.5694 C   0  0  0  0  0  0  0  0  0  0  0  0
  155.2641  138.7624  185.2484 C   0  0  0  0  0  0  0  0  0  0  0  0
  156.4393  138.7259  184.7406 O   0  0  0  0  0  0  0  0  0  0  0  0
  154.2584  139.3779  184.4547 N   0  0  0  0  0  0  0  0  0  0  0  0
  153.2907  139.3962  184.8415 H   0  0  0  0  0  0  0  0  0  0  0  0
  154.5634  139.9429  183.1730 C   0  0  0  0  0  0  0  0  0  0  0  0
  155.7592  140.7640  183.1392 C   0  0  0  0  0  0  0  0  0  0  0  0
  155.7836  141.8559  183.7651 O   0  0  0  0  0  0  0  0  0  0  0  0
  156.9034  140.3787  182.4176 N   0  0  0  0  0  0  0  0  0  0  0  0
  156.8983  139.4621  181.9229 H   0  0  0  0  0  0  0  0  0  0  0  0
  158.0725  141.2015  182.3431 C   0  0  0  0  0  0  0  0  0  0  0  0
  158.3810  141.6433  180.9734 C   0  0  0  0  0  0  0  0  0  0  0  0
  157.7888  141.1578  179.8368 O   0  0  0  0  0  0  0  0  0  0  0  0
  159.2677  142.5453  180.8550 O   0  0  0  0  0  0  0  0  0  0  0  0
  156.8018  141.0948  179.6973 H   0  0  0  0  0  0  0  0  0  0  0  0
  159.2454  140.5648  183.0254 C   0  0  0  0  0  0  0  0  0  0  0  0
  159.7446  141.2734  184.1896 C   0  0  0  0  0  0  0  0  0  0  0  0
  160.9642  141.8889  184.2371 C   0  0  0  0  0  0  0  0  0  0  0  0
  161.3541  142.5533  185.4073 C   0  0  0  0  0  0  0  0  0  0  0  0
  160.5331  142.5980  186.5087 C   0  0  0  0  0  0  0  0  0  0  0  0
  159.3151  141.9833  186.4605 C   0  0  0  0  0  0  0  0  0  0  0  0
  158.9365  141.3322  185.3100 C   0  0  0  0  0  0  0  0  0  0  0  0
  153.4012  140.8023  182.6609 C   0  0  0  0  0  0  0  0  0  0  0  0
  152.4811  140.0675  181.7732 C   0  0  0  0  0  0  0  0  0  0  0  0
  152.5418  140.1503  180.4034 C   0  0  0  0  0  0  0  0  0  0  0  0
  151.6381  139.4535  179.6386 C   0  0  0  0  0  0  0  0  0  0  0  0
  150.6685  138.6702  180.2331 C   0  0  0  0  0  0  0  0  0  0  0  0
  150.5807  138.5666  181.5873 C   0  0  0  0  0  0  0  0  0  0  0  0
  151.5105  139.2835  182.3486 C   0  0  0  0  0  0  0  0  0  0  0  0
  156.4254  137.3754  186.9283 C   0  0  0  0  0  0  0  0  0  0  0  0
  156.4308  137.1259  188.3930 C   0  0  0  0  0  0  0  0  0  0  0  0
  156.5710  135.8733  188.9129 C   0  0  0  0  0  0  0  0  0  0  0  0
  156.5753  135.6902  190.2786 C   0  0  0  0  0  0  0  0  0  0  0  0
  156.4401  136.7550  191.1403 C   0  0  0  0  0  0  0  0  0  0  0  0
  156.4412  136.5977  192.5268 O   0  0  0  0  0  0  0  0  0  0  0  0
  156.2968  138.0378  190.6261 C   0  0  0  0  0  0  0  0  0  0  0  0
  156.2943  138.2037  189.2647 C   0  0  0  0  0  0  0  0  0  0  0  0
  156.5401  135.6991  192.9760 H   0  0  0  0  0  0  0  0  0  0  0  0
  151.7321  136.3528  187.0294 C   0  0  0  0  0  0  0  0  0  0  0  0
  150.7428  136.2004  184.7246 C   0  0  0  0  0  0  0  0  0  0  0  0
  149.9991  137.2099  184.7896 O   0  0  0  0  0  0  0  0  0  0  0  0
  151.5673  135.7782  185.7674 N   0  0  0  0  0  0  0  0  0  0  0  0
  152.1626  134.8808  185.5935 H   0  0  0  0  0  0  0  0  0  0  0  0
  150.7218  135.4323  183.4511 C   0  0  0  0  0  0  0  0  0  0  0  0
  152.9145  134.9610  182.3183 C   0  0  0  0  0  0  0  0  0  0  0  0
  152.7025  135.9181  181.5032 O   0  0  0  0  0  0  0  0  0  0  0  0
  151.9499  134.6908  183.3096 N   0  0  0  0  0  0  0  0  0  0  0  0
  152.1612  133.8863  183.9777 H   0  0  0  0  0  0  0  0  0  0  0  0
  156.4834  132.6662  181.8981 C   0  0  0  0  0  0  0  0  0  0  0  0
  155.9191  132.8888  183.1251 C   0  0  0  0  0  0  0  0  0  0  0  0
  154.7484  133.6484  183.2830 C   0  0  0  0  0  0  0  0  0  0  0  0
  154.1370  134.1921  182.1840 C   0  0  0  0  0  0  0  0  0  0  0  0
  154.7108  133.9662  180.9417 C   0  0  0  0  0  0  0  0  0  0  0  0
  155.8561  133.2220  180.7997 C   0  0  0  0  0  0  0  0  0  0  0  0
  159.0872  132.5432  180.7348 N   0  0  0  0  0  0  0  0  0  0  0  0
  157.9424  131.7125  181.7087 S   0  0  0  0  0  0  0  0  0  0  0  0
  157.5806  130.4451  180.9639 O   0  0  0  0  0  0  0  0  0  0  0  0
  158.5121  131.3417  183.0523 O   0  0  0  0  0  0  0  0  0  0  0  0
  158.6678  133.4447  180.3552 H   0  0  0  0  0  0  0  0  0  0  0  0
  159.9567  132.7653  181.2814 H   0  0  0  0  0  0  0  0  0  0  0  0
  149.4839  134.7194  183.1027 C   0  0  0  0  0  0  0  0  0  0  0  0
  148.7115  135.1400  181.9495 C   0  0  0  0  0  0  0  0  0  0  0  0
  147.4081  135.5341  182.0468 C   0  0  0  0  0  0  0  0  0  0  0  0
  146.6664  135.9481  180.9483 C   0  0  0  0  0  0  0  0  0  0  0  0
  147.2508  135.9686  179.7101 C   0  0  0  0  0  0  0  0  0  0  0  0
  148.5646  135.5789  179.5723 C   0  0  0  0  0  0  0  0  0  0  0  0
  149.2836  135.1717  180.6715 C   0  0  0  0  0  0  0  0  0  0  0  0
  152.1813  135.4785  188.1264 C   0  0  0  0  0  0  0  0  0  0  0  0
  151.9833  135.8786  189.5087 C   0  0  0  0  0  0  0  0  0  0  0  0
  152.9244  136.4444  190.2970 C   0  0  0  0  0  0  0  0  0  0  0  0
  152.6419  136.7847  191.5990 C   0  0  0  0  0  0  0  0  0  0  0  0
  151.3855  136.5561  192.1380 C   0  0  0  0  0  0  0  0  0  0  0  0
  150.4385  135.9786  191.3199 C   0  0  0  0  0  0  0  0  0  0  0  0
  150.7030  135.6367  190.0290 C   0  0  0  0  0  0  0  0  0  0  0  0
 59 60  1  0  0  0
 60 61  2  0  0  0
 60 62  2  0  0  0
 60 53  1  0  0  0
 53 54  2  0  0  0
 54 55  1  0  0  0
 55 56  2  0  0  0
 56 57  1  0  0  0
 57 58  2  0  0  0
 56 49  1  0  0  0
 49 50  2  0  0  0
 49 51  1  0  0  0
 51 48  1  0  0  0
 48 65  1  0  0  0
 65 66  1  0  0  0
 66 67  2  0  0  0
 67 68  1  0  0  0
 68 69  2  0  0  0
 69 70  1  0  0  0
 70 71  2  0  0  0
 48 44  1  0  0  0
 44 45  2  0  0  0
 44 46  1  0  0  0
 46 43  1  0  0  0
 43 72  1  0  0  0
 72 73  1  0  0  0
 73 74  2  0  0  0
 74 75  1  0  0  0
 75 76  2  0  0  0
 76 77  1  0  0  0
 77 78  2  0  0  0
 43  1  1  0  0  0
  1  2  2  0  0  0
  1  3  1  0  0  0
  3  5  1  0  0  0
  5 34  1  0  0  0
 34 35  1  0  0  0
 35 36  2  0  0  0
 36 37  1  0  0  0
 37 38  2  0  0  0
 38 39  1  0  0  0
 38 40  1  0  0  0
 40 41  2  0  0  0
  5  6  1  0  0  0
  6  7  2  0  0  0
  6  8  1  0  0  0
  8 10  1  0  0  0
 10 27  1  0  0  0
 27 28  1  0  0  0
 28 29  2  0  0  0
 29 30  1  0  0  0
 30 31  2  0  0  0
 31 32  1  0  0  0
 32 33  2  0  0  0
 10 11  1  0  0  0
 11 12  2  0  0  0
 11 13  1  0  0  0
 13 15  1  0  0  0
 15 20  1  0  0  0
 20 21  1  0  0  0
 21 22  2  0  0  0
 22 23  1  0  0  0
 23 24  2  0  0  0
 24 25  1  0  0  0
 25 26  2  0  0  0
 15 16  1  0  0  0
 16 17  1  0  0  0
 16 18  2  0  0  0
 58 53  1  0  0  0
 71 66  1  0  0  0
 78 73  1  0  0  0
 41 35  1  0  0  0
 33 28  1  0  0  0
 26 21  1  0  0  0
 59 63  1  0  0  0
 59 64  1  0  0  0
 51 52  1  0  0  0
 46 47  1  0  0  0
  3  4  1  0  0  0
 39 42  1  0  0  0
  8  9  1  0  0  0
 13 14  1  0  0  0
 17 19  1  0  0  0
M  END
> <minimizedAffinity>
-9.75550

> <CNNscore>
0.1412985623

> <CNNaffinity>
7.3049788475

> <CNN_VS>
1.0321830511

> <CNNaffinity_variance>
1.7961028814

$$$$
[H]OC(=O)[C@@]([H])(N([H])C(=O)[C@@]([H])(N([H])C(=O)[C@@]([H])(N([H])C(=O)[C@@]([H])(N([H])C(=O)[C@@]([H])(N([H])C(=O)c1c([H])c([H])c(S(=O)(=O)N([H])[H])c([H])c1[H])C([H])([H])c1c([H])c([H])c([H])c([H])c1[H])C([H])([H])c1c([H])c([H])c([H])c([H])c1[H])C([H])([H])c1c([H])c([H])c(O[H])c([H])c1[H])C([H])([H])c1c([H])c([H])c([H])c([H])c1[H])C([H])([H])c1c([H])c([H])c([H])c([H])c1[H]


 78 83  0  0  0  0  0  0  0  0999 V2000
  154.2921  135.1690  186.2070 C   0  0  0  0  0  0  0  0  0  0  0  0
  153.3844  134.6355  185.5294 O   0  0  0  0  0  0  0  0  0  0  0  0
  154.3646  136.5370  186.4267 N   0  0  0  0  0  0  0  0  0  0  0  0
  155.1842  136.8948  187.0323 H   0  0  0  0  0  0  0  0  0  0  0  0
  153.4989  137.5809  185.9685 C   0  0  0  0  0  0  0  0  0  0  0  0
  153.8937  138.1769  184.6996 C   0  0  0  0  0  0  0  0  0  0  0  0
  154.2086  137.3546  183.7696 O   0  0  0  0  0  0  0  0  0  0  0  0
  153.9705  139.5567  184.3673 N   0  0  0  0  0  0  0  0  0  0  0  0
  153.6956  140.2405  185.1043 H   0  0  0  0  0  0  0  0  0  0  0  0
  154.4018  139.9872  183.0696 C   0  0  0  0  0  0  0  0  0  0  0  0
  155.6312  140.7576  183.0618 C   0  0  0  0  0  0  0  0  0  0  0  0
  155.7067  141.8181  183.7360 O   0  0  0  0  0  0  0  0  0  0  0  0
  156.7527  140.3574  182.3131 N   0  0  0  0  0  0  0  0  0  0  0  0
  156.7049  139.4653  181.7778 H   0  0  0  0  0  0  0  0  0  0  0  0
  157.9553  141.1326  182.2650 C   0  0  0  0  0  0  0  0  0  0  0  0
  158.3298  141.5327  180.8990 C   0  0  0  0  0  0  0  0  0  0  0  0
  157.7376  141.0709  179.7525 O   0  0  0  0  0  0  0  0  0  0  0  0
  159.2776  142.3718  180.7938 O   0  0  0  0  0  0  0  0  0  0  0  0
  156.7527  141.0716  179.5862 H   0  0  0  0  0  0  0  0  0  0  0  0
  159.0770  140.4658  183.0024 C   0  0  0  0  0  0  0  0  0  0  0  0
  159.5457  141.1676  184.1833 C   0  0  0  0  0  0  0  0  0  0  0  0
  158.8167  141.2867  185.3336 C   0  0  0  0  0  0  0  0  0  0  0  0
  159.3597  141.9803  186.4231 C   0  0  0  0  0  0  0  0  0  0  0  0
  160.6119  142.5430  186.3573 C   0  0  0  0  0  0  0  0  0  0  0  0
  161.3394  142.4235  185.2083 C   0  0  0  0  0  0  0  0  0  0  0  0
  160.8026  141.7422  184.1413 C   0  0  0  0  0  0  0  0  0  0  0  0
  153.3231  140.8359  182.3859 C   0  0  0  0  0  0  0  0  0  0  0  0
  152.3394  140.0331  181.6360 C   0  0  0  0  0  0  0  0  0  0  0  0
  151.5897  139.0396  182.2172 C   0  0  0  0  0  0  0  0  0  0  0  0
  150.7066  138.3173  181.4520 C   0  0  0  0  0  0  0  0  0  0  0  0
  150.5647  138.5799  180.1036 C   0  0  0  0  0  0  0  0  0  0  0  0
  151.2923  139.5570  179.4969 C   0  0  0  0  0  0  0  0  0  0  0  0
  152.1859  140.2817  180.2934 C   0  0  0  0  0  0  0  0  0  0  0  0
  153.4790  138.6815  187.0804 C   0  0  0  0  0  0  0  0  0  0  0  0
  154.0123  138.0880  188.3337 C   0  0  0  0  0  0  0  0  0  0  0  0
  153.2569  137.2784  189.1293 C   0  0  0  0  0  0  0  0  0  0  0  0
  153.7953  136.7462  190.2806 C   0  0  0  0  0  0  0  0  0  0  0  0
  155.0934  137.0157  190.6503 C   0  0  0  0  0  0  0  0  0  0  0  0
  155.6634  136.4900  191.8105 O   0  0  0  0  0  0  0  0  0  0  0  0
  155.8763  137.8385  189.8500 C   0  0  0  0  0  0  0  0  0  0  0  0
  155.3261  138.3607  188.7075 C   0  0  0  0  0  0  0  0  0  0  0  0
  155.1596  135.8853  192.4427 H   0  0  0  0  0  0  0  0  0  0  0  0
  155.3397  134.2773  186.8031 C   0  0  0  0  0  0  0  0  0  0  0  0
  155.5476  132.0937  185.5775 C   0  0  0  0  0  0  0  0  0  0  0  0
  154.6995  131.4445  186.2377 O   0  0  0  0  0  0  0  0  0  0  0  0
  155.8651  133.4288  185.8264 N   0  0  0  0  0  0  0  0  0  0  0  0
  156.6249  133.8826  185.1887 H   0  0  0  0  0  0  0  0  0  0  0  0
  156.2353  131.3711  184.4743 C   0  0  0  0  0  0  0  0  0  0  0  0
  155.0479  132.4469  182.5388 C   0  0  0  0  0  0  0  0  0  0  0  0
  155.5390  133.5781  182.8625 O   0  0  0  0  0  0  0  0  0  0  0  0
  155.3772  131.3192  183.3171 N   0  0  0  0  0  0  0  0  0  0  0  0
  154.9529  130.3879  183.0155 H   0  0  0  0  0  0  0  0  0  0  0  0
  152.4700  132.1857  179.1527 C   0  0  0  0  0  0  0  0  0  0  0  0
  153.6992  132.7821  179.0688 C   0  0  0  0  0  0  0  0  0  0  0  0
  154.5580  132.8838  180.1753 C   0  0  0  0  0  0  0  0  0  0  0  0
  154.1697  132.3749  181.3867 C   0  0  0  0  0  0  0  0  0  0  0  0
  152.9235  131.7719  181.4700 C   0  0  0  0  0  0  0  0  0  0  0  0
  152.0921  131.6787  180.3810 C   0  0  0  0  0  0  0  0  0  0  0  0
  151.2239  130.4182  177.2897 N   0  0  0  0  0  0  0  0  0  0  0  0
  151.4055  132.0582  177.7653 S   0  0  0  0  0  0  0  0  0  0  0  0
  152.0613  132.7747  176.6040 O   0  0  0  0  0  0  0  0  0  0  0  0
  150.0788  132.7097  178.0528 O   0  0  0  0  0  0  0  0  0  0  0  0
  151.8578  129.7904  177.8699 H   0  0  0  0  0  0  0  0  0  0  0  0
  150.2272  130.1028  177.3962 H   0  0  0  0  0  0  0  0  0  0  0  0
  157.6494  131.6885  184.2258 C   0  0  0  0  0  0  0  0  0  0  0  0
  158.6815  131.0359  185.0082 C   0  0  0  0  0  0  0  0  0  0  0  0
  159.6494  130.2595  184.4390 C   0  0  0  0  0  0  0  0  0  0  0  0
  160.6466  129.6407  185.1814 C   0  0  0  0  0  0  0  0  0  0  0  0
  160.6755  129.8061  186.5404 C   0  0  0  0  0  0  0  0  0  0  0  0
  159.7160  130.5832  187.1507 C   0  0  0  0  0  0  0  0  0  0  0  0
  158.7358  131.1881  186.3995 C   0  0  0  0  0  0  0  0  0  0  0  0
  156.2804  135.1389  187.5396 C   0  0  0  0  0  0  0  0  0  0  0  0
  157.4133  134.5563  188.2376 C   0  0  0  0  0  0  0  0  0  0  0  0
  157.3408  133.8653  189.3970 C   0  0  0  0  0  0  0  0  0  0  0  0
  158.4738  133.3549  189.9856 C   0  0  0  0  0  0  0  0  0  0  0  0
  159.7202  133.5361  189.4066 C   0  0  0  0  0  0  0  0  0  0  0  0
  159.7752  134.2431  188.2247 C   0  0  0  0  0  0  0  0  0  0  0  0
  158.6623  134.7538  187.6298 C   0  0  0  0  0  0  0  0  0  0  0  0
 59 60  1  0  0  0
 60 61  2  0  0  0
 60 62  2  0  0  0
 60 53  1  0  0  0
 53 54  2  0  0  0
 54 55  1  0  0  0
 55 56  2  0  0  0
 56 57  1  0  0  0
 57 58  2  0  0  0
 56 49  1  0  0  0
 49 50  2  0  0  0
 49 51  1  0  0  0
 51 48  1  0  0  0
 48 65  1  0  0  0
 65 66  1  0  0  0
 66 67  2  0  0  0
 67 68  1  0  0  0
 68 69  2  0  0  0
 69 70  1  0  0  0
 70 71  2  0  0  0
 48 44  1  0  0  0
 44 45  2  0  0  0
 44 46  1  0  0  0
 46 43  1  0  0  0
 43 72  1  0  0  0
 72 73  1  0  0  0
 73 74  2  0  0  0
 74 75  1  0  0  0
 75 76  2  0  0  0
 76 77  1  0  0  0
 77 78  2  0  0  0
 43  1  1  0  0  0
  1  2  2  0  0  0
  1  3  1  0  0  0
  3  5  1  0  0  0
  5 34  1  0  0  0
 34 35  1  0  0  0
 35 36  2  0  0  0
 36 37  1  0  0  0
 37 38  2  0  0  0
 38 39  1  0  0  0
 38 40  1  0  0  0
 40 41  2  0  0  0
  5  6  1  0  0  0
  6  7  2  0  0  0
  6  8  1  0  0  0
  8 10  1  0  0  0
 10 27  1  0  0  0
 27 28  1  0  0  0
 28 29  2  0  0  0
 29 30  1  0  0  0
 30 31  2  0  0  0
 31 32  1  0  0  0
 32 33  2  0  0  0
 10 11  1  0  0  0
 11 12  2  0  0  0
 11 13  1  0  0  0
 13 15  1  0  0  0
 15 20  1  0  0  0
 20 21  1  0  0  0
 21 22  2  0  0  0
 22 23  1  0  0  0
 23 24  2  0  0  0
 24 25  1  0  0  0
 25 26  2  0  0  0
 15 16  1  0  0  0
 16 17  1  0  0  0
 16 18  2  0  0  0
 58 53  1  0  0  0
 71 66  1  0  0  0
 78 73  1  0  0  0
 41 35  1  0  0  0
 33 28  1  0  0  0
 26 21  1  0  0  0
 59 63  1  0  0  0
 59 64  1  0  0  0
 51 52  1  0  0  0
 46 47  1  0  0  0
  3  4  1  0  0  0
 39 42  1  0  0  0
  8  9  1  0  0  0
 13 14  1  0  0  0
 17 19  1  0  0  0
M  END
> <minimizedAffinity>
-9.77540

> <CNNscore>
0.1239824146

> <CNNaffinity>
7.3314971924

> <CNN_VS>
0.9089767337

> <CNNaffinity_variance>
1.2280349731

$$$$
[H]OC(=O)[C@@]([H])(N([H])C(=O)[C@@]([H])(N([H])C(=O)[C@@]([H])(N([H])C(=O)[C@@]([H])(N([H])C(=O)[C@@]([H])(N([H])C(=O)c1c([H])c([H])c(S(=O)(=O)N([H])[H])c([H])c1[H])C([H])([H])c1c([H])c([H])c([H])c([H])c1[H])C([H])([H])c1c([H])c([H])c([H])c([H])c1[H])C([H])([H])c1c([H])c([H])c(O[H])c([H])c1[H])C([H])([H])c1c([H])c([H])c([H])c([H])c1[H])C([H])([H])c1c([H])c([H])c([H])c([H])c1[H]


 78 83  0  0  0  0  0  0  0  0999 V2000
  150.7651  135.5028  184.8329 C   0  0  0  0  0  0  0  0  0  0  0  0
  150.0245  135.6421  185.8327 O   0  0  0  0  0  0  0  0  0  0  0  0
  151.1316  134.2617  184.3325 N   0  0  0  0  0  0  0  0  0  0  0  0
  151.7685  134.2519  183.4603 H   0  0  0  0  0  0  0  0  0  0  0  0
  150.7871  132.9530  184.7992 C   0  0  0  0  0  0  0  0  0  0  0  0
  151.4367  132.5676  186.0444 C   0  0  0  0  0  0  0  0  0  0  0  0
  150.7122  131.9139  186.8740 O   0  0  0  0  0  0  0  0  0  0  0  0
  152.7742  132.8261  186.4503 N   0  0  0  0  0  0  0  0  0  0  0  0
  153.3859  133.3367  185.7784 H   0  0  0  0  0  0  0  0  0  0  0  0
  153.2611  132.3954  187.7280 C   0  0  0  0  0  0  0  0  0  0  0  0
  153.8226  133.4496  188.5518 C   0  0  0  0  0  0  0  0  0  0  0  0
  153.7950  134.6405  188.1447 O   0  0  0  0  0  0  0  0  0  0  0  0
  154.4084  133.1814  189.8021 N   0  0  0  0  0  0  0  0  0  0  0  0
  154.4066  132.2020  190.1562 H   0  0  0  0  0  0  0  0  0  0  0  0
  155.0032  134.2082  190.6030 C   0  0  0  0  0  0  0  0  0  0  0  0
  156.4740  134.1557  190.6097 C   0  0  0  0  0  0  0  0  0  0  0  0
  157.2466  133.5883  189.6302 O   0  0  0  0  0  0  0  0  0  0  0  0
  157.0555  134.6822  191.6090 O   0  0  0  0  0  0  0  0  0  0  0  0
  157.1622  133.7918  188.6560 H   0  0  0  0  0  0  0  0  0  0  0  0
  154.4176  134.2473  191.9823 C   0  0  0  0  0  0  0  0  0  0  0  0
  153.3422  135.2034  192.1719 C   0  0  0  0  0  0  0  0  0  0  0  0
  152.6026  135.7254  191.1476 C   0  0  0  0  0  0  0  0  0  0  0  0
  151.5801  136.6394  191.4341 C   0  0  0  0  0  0  0  0  0  0  0  0
  151.3065  137.0210  192.7257 C   0  0  0  0  0  0  0  0  0  0  0  0
  152.0454  136.4991  193.7482 C   0  0  0  0  0  0  0  0  0  0  0  0
  153.0481  135.6025  193.4626 C   0  0  0  0  0  0  0  0  0  0  0  0
  154.3362  131.3136  187.5699 C   0  0  0  0  0  0  0  0  0  0  0  0
  155.1903  131.5107  186.3841 C   0  0  0  0  0  0  0  0  0  0  0  0
  156.0045  132.6057  186.2256 C   0  0  0  0  0  0  0  0  0  0  0  0
  156.7579  132.7342  185.0841 C   0  0  0  0  0  0  0  0  0  0  0  0
  156.7051  131.7733  184.0937 C   0  0  0  0  0  0  0  0  0  0  0  0
  155.9088  130.6767  184.2192 C   0  0  0  0  0  0  0  0  0  0  0  0
  155.1496  130.5640  185.3892 C   0  0  0  0  0  0  0  0  0  0  0  0
  151.1807  131.9448  183.6693 C   0  0  0  0  0  0  0  0  0  0  0  0
  152.0999  132.6349  182.7278 C   0  0  0  0  0  0  0  0  0  0  0  0
  153.3841  132.9437  183.0663 C   0  0  0  0  0  0  0  0  0  0  0  0
  154.2023  133.5800  182.1584 C   0  0  0  0  0  0  0  0  0  0  0  0
  153.7483  133.9147  180.9029 C   0  0  0  0  0  0  0  0  0  0  0  0
  154.5556  134.5591  179.9646 O   0  0  0  0  0  0  0  0  0  0  0  0
  152.4423  133.6065  180.5426 C   0  0  0  0  0  0  0  0  0  0  0  0
  151.6402  132.9733  181.4572 C   0  0  0  0  0  0  0  0  0  0  0  0
  155.5138  134.8160  180.1511 H   0  0  0  0  0  0  0  0  0  0  0  0
  151.2696  136.7412  184.1548 C   0  0  0  0  0  0  0  0  0  0  0  0
  153.4950  136.7136  185.3214 C   0  0  0  0  0  0  0  0  0  0  0  0
  153.8015  135.5204  185.0787 O   0  0  0  0  0  0  0  0  0  0  0  0
  152.3077  137.3094  184.8961 N   0  0  0  0  0  0  0  0  0  0  0  0
  152.1510  138.3521  185.1758 H   0  0  0  0  0  0  0  0  0  0  0  0
  154.4733  137.5111  186.1082 C   0  0  0  0  0  0  0  0  0  0  0  0
  154.8722  139.4171  184.5204 C   0  0  0  0  0  0  0  0  0  0  0  0
  153.6729  139.8146  184.6916 O   0  0  0  0  0  0  0  0  0  0  0  0
  155.3108  138.2724  185.2155 N   0  0  0  0  0  0  0  0  0  0  0  0
  156.3210  137.9702  185.0527 H   0  0  0  0  0  0  0  0  0  0  0  0
  157.3617  141.5812  181.8188 C   0  0  0  0  0  0  0  0  0  0  0  0
  157.8692  140.5972  182.6237 C   0  0  0  0  0  0  0  0  0  0  0  0
  157.0656  139.8796  183.5246 C   0  0  0  0  0  0  0  0  0  0  0  0
  155.7275  140.1598  183.6145 C   0  0  0  0  0  0  0  0  0  0  0  0
  155.2153  141.1578  182.7988 C   0  0  0  0  0  0  0  0  0  0  0  0
  156.0110  141.8531  181.9219 C   0  0  0  0  0  0  0  0  0  0  0  0
  158.1098  141.9240  179.0855 N   0  0  0  0  0  0  0  0  0  0  0  0
  158.3705  142.4692  180.6929 S   0  0  0  0  0  0  0  0  0  0  0  0
  159.8173  142.1681  181.0218 O   0  0  0  0  0  0  0  0  0  0  0  0
  158.1389  143.9509  180.8277 O   0  0  0  0  0  0  0  0  0  0  0  0
  157.4484  141.0901  179.0785 H   0  0  0  0  0  0  0  0  0  0  0  0
  157.7120  142.6906  178.4871 H   0  0  0  0  0  0  0  0  0  0  0  0
  153.9798  138.2150  187.3012 C   0  0  0  0  0  0  0  0  0  0  0  0
  154.7509  138.1778  188.5289 C   0  0  0  0  0  0  0  0  0  0  0  0
  156.0320  137.7085  188.5737 C   0  0  0  0  0  0  0  0  0  0  0  0
  156.7793  137.6801  189.7439 C   0  0  0  0  0  0  0  0  0  0  0  0
  156.2242  138.1383  190.9088 C   0  0  0  0  0  0  0  0  0  0  0  0
  154.9340  138.6203  190.9029 C   0  0  0  0  0  0  0  0  0  0  0  0
  154.2089  138.6405  189.7347 C   0  0  0  0  0  0  0  0  0  0  0  0
  151.5432  136.3908  182.7505 C   0  0  0  0  0  0  0  0  0  0  0  0
  151.3275  137.3676  181.6973 C   0  0  0  0  0  0  0  0  0  0  0  0
  150.2292  137.4352  180.9124 C   0  0  0  0  0  0  0  0  0  0  0  0
  150.1190  138.3964  179.9352 C   0  0  0  0  0  0  0  0  0  0  0  0
  151.1312  139.3206  179.7283 C   0  0  0  0  0  0  0  0  0  0  0  0
  152.2436  139.2366  180.5377 C   0  0  0  0  0  0  0  0  0  0  0  0
  152.3668  138.2912  181.5095 C   0  0  0  0  0  0  0  0  0  0  0  0
 59 60  1  0  0  0
 60 61  2  0  0  0
 60 62  2  0  0  0
 60 53  1  0  0  0
 53 54  2  0  0  0
 54 55  1  0  0  0
 55 56  2  0  0  0
 56 57  1  0  0  0
 57 58  2  0  0  0
 56 49  1  0  0  0
 49 50  2  0  0  0
 49 51  1  0  0  0
 51 48  1  0  0  0
 48 65  1  0  0  0
 65 66  1  0  0  0
 66 67  2  0  0  0
 67 68  1  0  0  0
 68 69  2  0  0  0
 69 70  1  0  0  0
 70 71  2  0  0  0
 48 44  1  0  0  0
 44 45  2  0  0  0
 44 46  1  0  0  0
 46 43  1  0  0  0
 43 72  1  0  0  0
 72 73  1  0  0  0
 73 74  2  0  0  0
 74 75  1  0  0  0
 75 76  2  0  0  0
 76 77  1  0  0  0
 77 78  2  0  0  0
 43  1  1  0  0  0
  1  2  2  0  0  0
  1  3  1  0  0  0
  3  5  1  0  0  0
  5 34  1  0  0  0
 34 35  1  0  0  0
 35 36  2  0  0  0
 36 37  1  0  0  0
 37 38  2  0  0  0
 38 39  1  0  0  0
 38 40  1  0  0  0
 40 41  2  0  0  0
  5  6  1  0  0  0
  6  7  2  0  0  0
  6  8  1  0  0  0
  8 10  1  0  0  0
 10 27  1  0  0  0
 27 28  1  0  0  0
 28 29  2  0  0  0
 29 30  1  0  0  0
 30 31  2  0  0  0
 31 32  1  0  0  0
 32 33  2  0  0  0
 10 11  1  0  0  0
 11 12  2  0  0  0
 11 13  1  0  0  0
 13 15  1  0  0  0
 15 20  1  0  0  0
 20 21  1  0  0  0
 21 22  2  0  0  0
 22 23  1  0  0  0
 23 24  2  0  0  0
 24 25  1  0  0  0
 25 26  2  0  0  0
 15 16  1  0  0  0
 16 17  1  0  0  0
 16 18  2  0  0  0
 58 53  1  0  0  0
 71 66  1  0  0  0
 78 73  1  0  0  0
 41 35  1  0  0  0
 33 28  1  0  0  0
 26 21  1  0  0  0
 59 63  1  0  0  0
 59 64  1  0  0  0
 51 52  1  0  0  0
 46 47  1  0  0  0
  3  4  1  0  0  0
 39 42  1  0  0  0
  8  9  1  0  0  0
 13 14  1  0  0  0
 17 19  1  0  0  0
M  END
> <minimizedAffinity>
-7.83325

> <CNNscore>
0.1215435565

> <CNNaffinity>
6.8964881897

> <CNN_VS>
0.8382236958

> <CNNaffinity_variance>
1.8038774729

$$$$
[H]OC1(C(F)(F)F)c2c([H])c([H])c([H])c([H])c2-c2c(-c3c([H])nn(C([H])([H])[H])c3[H])c([H])c(OC([H])([H])[H])c([H])c21


 27 30  0  0  0  0  0  0  0  0999 V2000
  151.9579  139.6646  181.6273 C   0  0  0  0  0  0  0  0  0  0  0  0
  152.8865  140.6789  181.5494 C   0  0  0  0  0  0  0  0  0  0  0  0
  153.9998  140.6692  182.3719 C   0  0  0  0  0  0  0  0  0  0  0  0
  154.2085  139.6434  183.2909 C   0  0  0  0  0  0  0  0  0  0  0  0
  155.4783  139.9484  183.9561 C   0  0  0  0  0  0  0  0  0  0  0  0
  156.1664  139.2573  184.9303 C   0  0  0  0  0  0  0  0  0  0  0  0
  157.3870  139.7800  185.3746 C   0  0  0  0  0  0  0  0  0  0  0  0
  157.9242  140.9408  184.8860 C   0  0  0  0  0  0  0  0  0  0  0  0
  157.2417  141.6293  183.9167 C   0  0  0  0  0  0  0  0  0  0  0  0
  156.0159  141.1177  183.4611 C   0  0  0  0  0  0  0  0  0  0  0  0
  155.0869  141.6438  182.4441 C   0  0  0  0  0  0  0  0  0  0  0  0
  155.7734  141.7854  181.2463 O   0  0  0  0  0  0  0  0  0  0  0  0
  153.2978  138.6176  183.3936 C   0  0  0  0  0  0  0  0  0  0  0  0
  152.1899  138.6762  182.5373 C   0  0  0  0  0  0  0  0  0  0  0  0
  155.1908  141.7003  180.4521 H   0  0  0  0  0  0  0  0  0  0  0  0
  153.4073  137.5382  184.3600 C   0  0  0  0  0  0  0  0  0  0  0  0
  153.9800  136.3043  184.1750 C   0  0  0  0  0  0  0  0  0  0  0  0
  153.7933  135.6271  185.2968 N   0  0  0  0  0  0  0  0  0  0  0  0
  153.1414  136.3139  186.2125 N   0  0  0  0  0  0  0  0  0  0  0  0
  152.7606  135.8872  187.5616 C   0  0  0  0  0  0  0  0  0  0  0  0
  152.8871  137.5179  185.6498 C   0  0  0  0  0  0  0  0  0  0  0  0
  154.5094  142.9705  182.9116 C   0  0  0  0  0  0  0  0  0  0  0  0
  155.3528  143.9676  182.4572 F   0  0  0  0  0  0  0  0  0  0  0  0
  153.2482  143.1809  182.4126 F   0  0  0  0  0  0  0  0  0  0  0  0
  154.4950  143.0394  184.2775 F   0  0  0  0  0  0  0  0  0  0  0  0
  151.0285  139.9339  179.4238 C   0  0  0  0  0  0  0  0  0  0  0  0
  150.8254  139.6682  180.7940 O   0  0  0  0  0  0  0  0  0  0  0  0
 26 27  1  0  0  0
 27  1  1  0  0  0
  1  2  2  0  0  0
  2  3  1  0  0  0
  3  4  2  0  0  0
  4  5  1  0  0  0
  5  6  2  0  0  0
  6  7  1  0  0  0
  7  8  2  0  0  0
  8  9  1  0  0  0
  9 10  2  0  0  0
 10 11  1  0  0  0
 11 12  1  0  0  0
 11 22  1  0  0  0
 22 23  1  0  0  0
 22 24  1  0  0  0
 22 25  1  0  0  0
  4 13  1  0  0  0
 13 14  2  0  0  0
 13 16  1  0  0  0
 16 17  1  0  0  0
 17 18  2  0  0  0
 18 19  1  0  0  0
 19 20  1  0  0  0
 19 21  1  0  0  0
 14  1  1  0  0  0
 21 16  2  0  0  0
 11  3  1  0  0  0
 10  5  1  0  0  0
 12 15  1  0  0  0
M  END
> <minimizedAffinity>
-8.65485

> <CNNscore>
0.5499111414

> <CNNaffinity>
5.6510777473

> <CNN_VS>
3.1075906754

> <CNNaffinity_variance>
0.0843549594

$$$$
[H]OC1(C(F)(F)F)c2c([H])c([H])c([H])c([H])c2-c2c(-c3c([H])nn(C([H])([H])[H])c3[H])c([H])c(OC([H])([H])[H])c([H])c21


 27 30  0  0  0  0  0  0  0  0999 V2000
  154.1793  137.7138  190.0608 C   0  0  0  0  0  0  0  0  0  0  0  0
  153.6259  137.1296  191.1787 C   0  0  0  0  0  0  0  0  0  0  0  0
  152.5385  136.2819  191.0560 C   0  0  0  0  0  0  0  0  0  0  0  0
  151.9809  135.9999  189.8110 C   0  0  0  0  0  0  0  0  0  0  0  0
  150.8827  135.0625  190.0627 C   0  0  0  0  0  0  0  0  0  0  0  0
  150.0148  134.4456  189.1872 C   0  0  0  0  0  0  0  0  0  0  0  0
  149.0596  133.5668  189.7123 C   0  0  0  0  0  0  0  0  0  0  0  0
  148.9509  133.2946  191.0498 C   0  0  0  0  0  0  0  0  0  0  0  0
  149.8134  133.9066  191.9220 C   0  0  0  0  0  0  0  0  0  0  0  0
  150.7768  134.7909  191.4104 C   0  0  0  0  0  0  0  0  0  0  0  0
  151.8130  135.5734  192.1089 C   0  0  0  0  0  0  0  0  0  0  0  0
  152.6149  134.7024  192.8330 O   0  0  0  0  0  0  0  0  0  0  0  0
  152.5102  136.5697  188.6764 C   0  0  0  0  0  0  0  0  0  0  0  0
  153.6103  137.4189  188.8574 C   0  0  0  0  0  0  0  0  0  0  0  0
  153.5370  135.0362  192.9581 H   0  0  0  0  0  0  0  0  0  0  0  0
  151.9594  136.3749  187.3461 C   0  0  0  0  0  0  0  0  0  0  0  0
  152.4209  135.5338  186.3642 C   0  0  0  0  0  0  0  0  0  0  0  0
  151.6553  135.7328  185.3031 N   0  0  0  0  0  0  0  0  0  0  0  0
  150.7214  136.6401  185.5027 N   0  0  0  0  0  0  0  0  0  0  0  0
  149.7040  137.1125  184.5598 C   0  0  0  0  0  0  0  0  0  0  0  0
  150.8901  137.0594  186.7780 C   0  0  0  0  0  0  0  0  0  0  0  0
  151.1568  136.6042  193.0141 C   0  0  0  0  0  0  0  0  0  0  0  0
  152.1524  137.1488  193.8042 F   0  0  0  0  0  0  0  0  0  0  0  0
  150.5523  137.6035  192.2932 F   0  0  0  0  0  0  0  0  0  0  0  0
  150.2517  136.0102  193.8499 F   0  0  0  0  0  0  0  0  0  0  0  0
  156.4863  138.0252  190.6712 C   0  0  0  0  0  0  0  0  0  0  0  0
  155.2844  138.5751  190.1786 O   0  0  0  0  0  0  0  0  0  0  0  0
 26 27  1  0  0  0
 27  1  1  0  0  0
  1  2  2  0  0  0
  2  3  1  0  0  0
  3  4  2  0  0  0
  4  5  1  0  0  0
  5  6  2  0  0  0
  6  7  1  0  0  0
  7  8  2  0  0  0
  8  9  1  0  0  0
  9 10  2  0  0  0
 10 11  1  0  0  0
 11 12  1  0  0  0
 11 22  1  0  0  0
 22 23  1  0  0  0
 22 24  1  0  0  0
 22 25  1  0  0  0
  4 13  1  0  0  0
 13 14  2  0  0  0
 13 16  1  0  0  0
 16 17  1  0  0  0
 17 18  2  0  0  0
 18 19  1  0  0  0
 19 20  1  0  0  0
 19 21  1  0  0  0
 14  1  1  0  0  0
 21 16  2  0  0  0
 11  3  1  0  0  0
 10  5  1  0  0  0
 12 15  1  0  0  0
M  END
> <minimizedAffinity>
-5.58610

> <CNNscore>
0.5021213889

> <CNNaffinity>
5.0914201736

> <CNN_VS>
2.5565109253

> <CNNaffinity_variance>
0.0542207174

$$$$
[H]OC1(C(F)(F)F)c2c([H])c([H])c([H])c([H])c2-c2c(-c3c([H])nn(C([H])([H])[H])c3[H])c([H])c(OC([H])([H])[H])c([H])c21


 27 30  0  0  0  0  0  0  0  0999 V2000
  152.5132  139.9303  182.0002 C   0  0  0  0  0  0  0  0  0  0  0  0
  153.4707  140.8850  181.7380 C   0  0  0  0  0  0  0  0  0  0  0  0
  154.6335  140.9299  182.4876 C   0  0  0  0  0  0  0  0  0  0  0  0
  154.8638  140.0197  183.5166 C   0  0  0  0  0  0  0  0  0  0  0  0
  156.1839  140.3499  184.0609 C   0  0  0  0  0  0  0  0  0  0  0  0
  156.9079  139.7572  185.0732 C   0  0  0  0  0  0  0  0  0  0  0  0
  158.1725  140.2775  185.3738 C   0  0  0  0  0  0  0  0  0  0  0  0
  158.7186  141.3430  184.7094 C   0  0  0  0  0  0  0  0  0  0  0  0
  158.0005  141.9334  183.7020 C   0  0  0  0  0  0  0  0  0  0  0  0
  156.7303  141.4229  183.3891 C   0  0  0  0  0  0  0  0  0  0  0  0
  155.7574  141.8572  182.3698 C   0  0  0  0  0  0  0  0  0  0  0  0
  156.3702  141.8169  181.1253 O   0  0  0  0  0  0  0  0  0  0  0  0
  153.9253  139.0558  183.8037 C   0  0  0  0  0  0  0  0  0  0  0  0
  152.7674  139.0549  183.0140 C   0  0  0  0  0  0  0  0  0  0  0  0
  155.7350  141.6582  180.3844 H   0  0  0  0  0  0  0  0  0  0  0  0
  154.0577  138.1027  184.8922 C   0  0  0  0  0  0  0  0  0  0  0  0
  154.3143  136.7572  184.7999 C   0  0  0  0  0  0  0  0  0  0  0  0
  154.2827  136.2792  186.0337 N   0  0  0  0  0  0  0  0  0  0  0  0
  154.0253  137.2012  186.9386 N   0  0  0  0  0  0  0  0  0  0  0  0
  153.9148  137.0367  188.3905 C   0  0  0  0  0  0  0  0  0  0  0  0
  153.8797  138.3558  186.2483 C   0  0  0  0  0  0  0  0  0  0  0  0
  155.2593  143.2563  182.6968 C   0  0  0  0  0  0  0  0  0  0  0  0
  155.0772  143.3169  184.0661 F   0  0  0  0  0  0  0  0  0  0  0  0
  156.1600  144.2193  182.3158 F   0  0  0  0  0  0  0  0  0  0  0  0
  154.0443  143.4878  182.1130 F   0  0  0  0  0  0  0  0  0  0  0  0
  151.4557  139.9420  179.8383 C   0  0  0  0  0  0  0  0  0  0  0  0
  151.3303  139.8787  181.2418 O   0  0  0  0  0  0  0  0  0  0  0  0
 26 27  1  0  0  0
 27  1  1  0  0  0
  1  2  2  0  0  0
  2  3  1  0  0  0
  3  4  2  0  0  0
  4  5  1  0  0  0
  5  6  2  0  0  0
  6  7  1  0  0  0
  7  8  2  0  0  0
  8  9  1  0  0  0
  9 10  2  0  0  0
 10 11  1  0  0  0
 11 12  1  0  0  0
 11 22  1  0  0  0
 22 23  1  0  0  0
 22 24  1  0  0  0
 22 25  1  0  0  0
  4 13  1  0  0  0
 13 14  2  0  0  0
 13 16  1  0  0  0
 16 17  1  0  0  0
 17 18  2  0  0  0
 18 19  1  0  0  0
 19 20  1  0  0  0
 19 21  1  0  0  0
 14  1  1  0  0  0
 21 16  2  0  0  0
 11  3  1  0  0  0
 10  5  1  0  0  0
 12 15  1  0  0  0
M  END
> <minimizedAffinity>
-8.62679

> <CNNscore>
0.4776806533

> <CNNaffinity>
5.7611422539

> <CNN_VS>
2.7519862652

> <CNNaffinity_variance>
0.0872991458

$$$$
[H]OC1(C(F)(F)F)c2c([H])c([H])c([H])c([H])c2-c2c(-c3c([H])nn(C([H])([H])[H])c3[H])c([H])c(OC([H])([H])[H])c([H])c21


 27 30  0  0  0  0  0  0  0  0999 V2000
  154.7399  134.4265  185.6891 C   0  0  0  0  0  0  0  0  0  0  0  0
  155.5097  134.5849  186.8202 C   0  0  0  0  0  0  0  0  0  0  0  0
  154.9523  135.1062  187.9750 C   0  0  0  0  0  0  0  0  0  0  0  0
  153.6114  135.4804  188.0233 C   0  0  0  0  0  0  0  0  0  0  0  0
  153.3733  135.9566  189.3888 C   0  0  0  0  0  0  0  0  0  0  0  0
  152.2213  136.4226  189.9855 C   0  0  0  0  0  0  0  0  0  0  0  0
  152.2798  136.7971  191.3334 C   0  0  0  0  0  0  0  0  0  0  0  0
  153.4247  136.7206  192.0806 C   0  0  0  0  0  0  0  0  0  0  0  0
  154.5711  136.2568  191.4892 C   0  0  0  0  0  0  0  0  0  0  0  0
  154.5284  135.8776  190.1378 C   0  0  0  0  0  0  0  0  0  0  0  0
  155.5946  135.3532  189.2648 C   0  0  0  0  0  0  0  0  0  0  0  0
  156.1174  134.2050  189.8429 O   0  0  0  0  0  0  0  0  0  0  0  0
  152.8176  135.3361  186.9092 C   0  0  0  0  0  0  0  0  0  0  0  0
  153.4319  134.8030  185.7679 C   0  0  0  0  0  0  0  0  0  0  0  0
  156.4862  133.5700  189.1809 H   0  0  0  0  0  0  0  0  0  0  0  0
  151.4261  135.7502  186.8536 C   0  0  0  0  0  0  0  0  0  0  0  0
  150.9357  137.0002  186.5681 C   0  0  0  0  0  0  0  0  0  0  0  0
  149.6202  136.9303  186.6960 N   0  0  0  0  0  0  0  0  0  0  0  0
  149.1979  135.7321  187.0442 N   0  0  0  0  0  0  0  0  0  0  0  0
  147.8195  135.2912  187.2743 C   0  0  0  0  0  0  0  0  0  0  0  0
  150.3121  134.9717  187.1499 C   0  0  0  0  0  0  0  0  0  0  0  0
  156.6676  136.4128  189.0694 C   0  0  0  0  0  0  0  0  0  0  0  0
  157.8076  135.7655  188.6298 F   0  0  0  0  0  0  0  0  0  0  0  0
  156.2927  137.3519  188.1413 F   0  0  0  0  0  0  0  0  0  0  0  0
  156.9743  137.0179  190.2570 F   0  0  0  0  0  0  0  0  0  0  0  0
  154.6890  134.2436  183.2899 C   0  0  0  0  0  0  0  0  0  0  0  0
  155.2998  133.8968  184.5131 O   0  0  0  0  0  0  0  0  0  0  0  0
 26 27  1  0  0  0
 27  1  1  0  0  0
  1  2  2  0  0  0
  2  3  1  0  0  0
  3  4  2  0  0  0
  4  5  1  0  0  0
  5  6  2  0  0  0
  6  7  1  0  0  0
  7  8  2  0  0  0
  8  9  1  0  0  0
  9 10  2  0  0  0
 10 11  1  0  0  0
 11 12  1  0  0  0
 11 22  1  0  0  0
 22 23  1  0  0  0
 22 24  1  0  0  0
 22 25  1  0  0  0
  4 13  1  0  0  0
 13 14  2  0  0  0
 13 16  1  0  0  0
 16 17  1  0  0  0
 17 18  2  0  0  0
 18 19  1  0  0  0
 19 20  1  0  0  0
 19 21  1  0  0  0
 14  1  1  0  0  0
 21 16  2  0  0  0
 11  3  1  0  0  0
 10  5  1  0  0  0
 12 15  1  0  0  0
M  END
> <minimizedAffinity>
-4.62061

> <CNNscore>
0.4714579284

> <CNNaffinity>
5.1977224350

> <CNN_VS>
2.4505074024

> <CNNaffinity_variance>
0.3530327976

$$$$
[H]OC1(C(F)(F)F)c2c([H])c([H])c([H])c([H])c2-c2c(-c3c([H])nn(C([H])([H])[H])c3[H])c([H])c(OC([H])([H])[H])c([H])c21


 27 30  0  0  0  0  0  0  0  0999 V2000
  155.6320  135.5646  191.1564 C   0  0  0  0  0  0  0  0  0  0  0  0
  154.4708  135.3864  191.8754 C   0  0  0  0  0  0  0  0  0  0  0  0
  153.2407  135.4893  191.2491 C   0  0  0  0  0  0  0  0  0  0  0  0
  153.1456  135.7727  189.8886 C   0  0  0  0  0  0  0  0  0  0  0  0
  151.7138  135.7791  189.5758 C   0  0  0  0  0  0  0  0  0  0  0  0
  151.0605  135.9826  188.3792 C   0  0  0  0  0  0  0  0  0  0  0  0
  149.6622  135.9106  188.3686 C   0  0  0  0  0  0  0  0  0  0  0  0
  148.9197  135.6479  189.4887 C   0  0  0  0  0  0  0  0  0  0  0  0
  149.5676  135.4446  190.6795 C   0  0  0  0  0  0  0  0  0  0  0  0
  150.9698  135.5138  190.7061 C   0  0  0  0  0  0  0  0  0  0  0  0
  151.9078  135.3393  191.8303 C   0  0  0  0  0  0  0  0  0  0  0  0
  151.6962  134.0896  192.3954 O   0  0  0  0  0  0  0  0  0  0  0  0
  154.2875  135.9578  189.1442 C   0  0  0  0  0  0  0  0  0  0  0  0
  155.5056  135.8417  189.8275 C   0  0  0  0  0  0  0  0  0  0  0  0
  152.5051  133.7142  192.8223 H   0  0  0  0  0  0  0  0  0  0  0  0
  154.2809  136.3099  187.7346 C   0  0  0  0  0  0  0  0  0  0  0  0
  154.3357  135.4585  186.6591 C   0  0  0  0  0  0  0  0  0  0  0  0
  154.3720  136.2175  185.5755 N   0  0  0  0  0  0  0  0  0  0  0  0
  154.3457  137.5064  185.8464 N   0  0  0  0  0  0  0  0  0  0  0  0
  154.3718  138.6286  184.9044 C   0  0  0  0  0  0  0  0  0  0  0  0
  154.2884  137.5921  187.1955 C   0  0  0  0  0  0  0  0  0  0  0  0
  151.7026  136.4496  192.8489 C   0  0  0  0  0  0  0  0  0  0  0  0
  152.3013  136.0412  194.0265 F   0  0  0  0  0  0  0  0  0  0  0  0
  152.2699  137.6296  192.4370 F   0  0  0  0  0  0  0  0  0  0  0  0
  150.3720  136.6301  193.1089 F   0  0  0  0  0  0  0  0  0  0  0  0
  157.6219  134.2768  191.5740 C   0  0  0  0  0  0  0  0  0  0  0  0
  156.8847  135.4604  191.7865 O   0  0  0  0  0  0  0  0  0  0  0  0
 26 27  1  0  0  0
 27  1  1  0  0  0
  1  2  2  0  0  0
  2  3  1  0  0  0
  3  4  2  0  0  0
  4  5  1  0  0  0
  5  6  2  0  0  0
  6  7  1  0  0  0
  7  8  2  0  0  0
  8  9  1  0  0  0
  9 10  2  0  0  0
 10 11  1  0  0  0
 11 12  1  0  0  0
 11 22  1  0  0  0
 22 23  1  0  0  0
 22 24  1  0  0  0
 22 25  1  0  0  0
  4 13  1  0  0  0
 13 14  2  0  0  0
 13 16  1  0  0  0
 16 17  1  0  0  0
 17 18  2  0  0  0
 18 19  1  0  0  0
 19 20  1  0  0  0
 19 21  1  0  0  0
 14  1  1  0  0  0
 21 16  2  0  0  0
 11  3  1  0  0  0
 10  5  1  0  0  0
 12 15  1  0  0  0
M  END
> <minimizedAffinity>
-5.25563

> <CNNscore>
0.4625782371

> <CNNaffinity>
5.2964458466

> <CNN_VS>
2.4500205517

> <CNNaffinity_variance>
0.0920825228

$$$$
[H]OC1(C(F)(F)F)c2c([H])c([H])c([H])c([H])c2-c2c(-c3c([H])nn(C([H])([H])[H])c3[H])c([H])c(OC([H])([H])[H])c([H])c21


 27 30  0  0  0  0  0  0  0  0999 V2000
  152.5462  135.6230  182.3589 C   0  0  0  0  0  0  0  0  0  0  0  0
  151.9214  136.6792  181.7335 C   0  0  0  0  0  0  0  0  0  0  0  0
  150.8039  137.2644  182.3035 C   0  0  0  0  0  0  0  0  0  0  0  0
  150.2870  136.8052  183.5128 C   0  0  0  0  0  0  0  0  0  0  0  0
  149.1391  137.6649  183.8146 C   0  0  0  0  0  0  0  0  0  0  0  0
  148.2824  137.6669  184.8945 C   0  0  0  0  0  0  0  0  0  0  0  0
  147.2684  138.6317  184.9324 C   0  0  0  0  0  0  0  0  0  0  0  0
  147.0919  139.5683  183.9493 C   0  0  0  0  0  0  0  0  0  0  0  0
  147.9432  139.5684  182.8748 C   0  0  0  0  0  0  0  0  0  0  0  0
  148.9651  138.6067  182.8226 C   0  0  0  0  0  0  0  0  0  0  0  0
  150.0046  138.3806  181.8015 C   0  0  0  0  0  0  0  0  0  0  0  0
  150.7363  139.5495  181.6462 O   0  0  0  0  0  0  0  0  0  0  0  0
  150.8879  135.7507  184.1603 C   0  0  0  0  0  0  0  0  0  0  0  0
  152.0157  135.1962  183.5401 C   0  0  0  0  0  0  0  0  0  0  0  0
  151.6662  139.3895  181.3510 H   0  0  0  0  0  0  0  0  0  0  0  0
  150.3853  135.1727  185.3949 C   0  0  0  0  0  0  0  0  0  0  0  0
  149.4443  134.1828  185.5332 C   0  0  0  0  0  0  0  0  0  0  0  0
  149.2502  134.0223  186.8326 N   0  0  0  0  0  0  0  0  0  0  0  0
  149.9882  134.8279  187.5686 N   0  0  0  0  0  0  0  0  0  0  0  0
  150.0352  134.9278  189.0298 C   0  0  0  0  0  0  0  0  0  0  0  0
  150.7105  135.5612  186.6903 C   0  0  0  0  0  0  0  0  0  0  0  0
  149.3570  137.9547  180.4933 C   0  0  0  0  0  0  0  0  0  0  0  0
  150.2030  138.3441  179.4713 F   0  0  0  0  0  0  0  0  0  0  0  0
  149.1715  136.5959  180.4357 F   0  0  0  0  0  0  0  0  0  0  0  0
  148.1670  138.6026  180.3071 F   0  0  0  0  0  0  0  0  0  0  0  0
  153.5015  133.7954  181.1183 C   0  0  0  0  0  0  0  0  0  0  0  0
  153.6822  135.0249  181.7856 O   0  0  0  0  0  0  0  0  0  0  0  0
 26 27  1  0  0  0
 27  1  1  0  0  0
  1  2  2  0  0  0
  2  3  1  0  0  0
  3  4  2  0  0  0
  4  5  1  0  0  0
  5  6  2  0  0  0
  6  7  1  0  0  0
  7  8  2  0  0  0
  8  9  1  0  0  0
  9 10  2  0  0  0
 10 11  1  0  0  0
 11 12  1  0  0  0
 11 22  1  0  0  0
 22 23  1  0  0  0
 22 24  1  0  0  0
 22 25  1  0  0  0
  4 13  1  0  0  0
 13 14  2  0  0  0
 13 16  1  0  0  0
 16 17  1  0  0  0
 17 18  2  0  0  0
 18 19  1  0  0  0
 19 20  1  0  0  0
 19 21  1  0  0  0
 14  1  1  0  0  0
 21 16  2  0  0  0
 11  3  1  0  0  0
 10  5  1  0  0  0
 12 15  1  0  0  0
M  END
> <minimizedAffinity>
-4.32457

> <CNNscore>
0.4169350863

> <CNNaffinity>
5.1430277824

> <CNN_VS>
2.1443088055

> <CNNaffinity_variance>
0.3882757723

$$$$
[H]OC1(C(F)(F)F)c2c([H])c([H])c([H])c([H])c2-c2c(-c3c([H])nn(C([H])([H])[H])c3[H])c([H])c(OC([H])([H])[H])c([H])c21


 27 30  0  0  0  0  0  0  0  0999 V2000
  154.9271  138.0280  186.6566 C   0  0  0  0  0  0  0  0  0  0  0  0
  155.3309  137.9232  187.9693 C   0  0  0  0  0  0  0  0  0  0  0  0
  154.4595  137.4397  188.9299 C   0  0  0  0  0  0  0  0  0  0  0  0
  153.1640  137.0500  188.5977 C   0  0  0  0  0  0  0  0  0  0  0  0
  152.5523  136.5766  189.8426 C   0  0  0  0  0  0  0  0  0  0  0  0
  151.2970  136.0599  190.0824 C   0  0  0  0  0  0  0  0  0  0  0  0
  150.9837  135.6626  191.3879 C   0  0  0  0  0  0  0  0  0  0  0  0
  151.8651  135.7640  192.4309 C   0  0  0  0  0  0  0  0  0  0  0  0
  153.1141  136.2771  192.1944 C   0  0  0  0  0  0  0  0  0  0  0  0
  153.4430  136.6801  190.8901 C   0  0  0  0  0  0  0  0  0  0  0  0
  154.6929  137.2565  190.3613 C   0  0  0  0  0  0  0  0  0  0  0  0
  155.7360  136.3837  190.6370 O   0  0  0  0  0  0  0  0  0  0  0  0
  152.7309  137.1449  187.2956 C   0  0  0  0  0  0  0  0  0  0  0  0
  153.6534  137.6398  186.3637 C   0  0  0  0  0  0  0  0  0  0  0  0
  156.4755  136.4434  189.9835 H   0  0  0  0  0  0  0  0  0  0  0  0
  151.3819  136.8133  186.8701 C   0  0  0  0  0  0  0  0  0  0  0  0
  150.9109  135.5914  186.4581 C   0  0  0  0  0  0  0  0  0  0  0  0
  149.6480  135.7707  186.1050 N   0  0  0  0  0  0  0  0  0  0  0  0
  149.2428  137.0157  186.2499 N   0  0  0  0  0  0  0  0  0  0  0  0
  147.9196  137.5750  185.9607 C   0  0  0  0  0  0  0  0  0  0  0  0
  150.3126  137.6916  186.7291 C   0  0  0  0  0  0  0  0  0  0  0  0
  154.9340  138.6223  190.9850 C   0  0  0  0  0  0  0  0  0  0  0  0
  154.4228  139.5667  190.1140 F   0  0  0  0  0  0  0  0  0  0  0  0
  154.3110  138.7433  192.2020 F   0  0  0  0  0  0  0  0  0  0  0  0
  156.2734  138.8679  191.1130 F   0  0  0  0  0  0  0  0  0  0  0  0
  155.2419  139.1898  184.5726 C   0  0  0  0  0  0  0  0  0  0  0  0
  155.8078  138.5174  185.6758 O   0  0  0  0  0  0  0  0  0  0  0  0
 26 27  1  0  0  0
 27  1  1  0  0  0
  1  2  2  0  0  0
  2  3  1  0  0  0
  3  4  2  0  0  0
  4  5  1  0  0  0
  5  6  2  0  0  0
  6  7  1  0  0  0
  7  8  2  0  0  0
  8  9  1  0  0  0
  9 10  2  0  0  0
 10 11  1  0  0  0
 11 12  1  0  0  0
 11 22  1  0  0  0
 22 23  1  0  0  0
 22 24  1  0  0  0
 22 25  1  0  0  0
  4 13  1  0  0  0
 13 14  2  0  0  0
 13 16  1  0  0  0
 16 17  1  0  0  0
 17 18  2  0  0  0
 18 19  1  0  0  0
 19 20  1  0  0  0
 19 21  1  0  0  0
 14  1  1  0  0  0
 21 16  2  0  0  0
 11  3  1  0  0  0
 10  5  1  0  0  0
 12 15  1  0  0  0
M  END
> <minimizedAffinity>
-6.12959

> <CNNscore>
0.4121446908

> <CNNaffinity>
5.2057518959

> <CNN_VS>
2.1455230713

> <CNNaffinity_variance>
0.0752219781

$$$$
[H]OC1(C(F)(F)F)c2c([H])c([H])c([H])c([H])c2-c2c(-c3c([H])nn(C([H])([H])[H])c3[H])c([H])c(OC([H])([H])[H])c([H])c21


 27 30  0  0  0  0  0  0  0  0999 V2000
  151.6058  136.1537  192.4521 C   0  0  0  0  0  0  0  0  0  0  0  0
  152.8372  136.7598  192.3353 C   0  0  0  0  0  0  0  0  0  0  0  0
  153.3960  136.9671  191.0860 C   0  0  0  0  0  0  0  0  0  0  0  0
  152.7343  136.5724  189.9255 C   0  0  0  0  0  0  0  0  0  0  0  0
  153.6003  136.9686  188.8114 C   0  0  0  0  0  0  0  0  0  0  0  0
  153.4229  136.8390  187.4506 C   0  0  0  0  0  0  0  0  0  0  0  0
  154.4219  137.3336  186.6034 C   0  0  0  0  0  0  0  0  0  0  0  0
  155.5608  137.9375  187.0651 C   0  0  0  0  0  0  0  0  0  0  0  0
  155.7388  138.0679  188.4181 C   0  0  0  0  0  0  0  0  0  0  0  0
  154.7456  137.5765  189.2806 C   0  0  0  0  0  0  0  0  0  0  0  0
  154.6792  137.5833  190.7535 C   0  0  0  0  0  0  0  0  0  0  0  0
  154.7865  138.8939  191.1969 O   0  0  0  0  0  0  0  0  0  0  0  0
  151.5041  135.9628  190.0099 C   0  0  0  0  0  0  0  0  0  0  0  0
  150.9843  135.7781  191.2983 C   0  0  0  0  0  0  0  0  0  0  0  0
  154.3324  139.0501  192.0612 H   0  0  0  0  0  0  0  0  0  0  0  0
  150.7692  135.4705  188.8573 C   0  0  0  0  0  0  0  0  0  0  0  0
  150.8985  134.2506  188.2410 C   0  0  0  0  0  0  0  0  0  0  0  0
  150.0817  134.2629  187.1996 N   0  0  0  0  0  0  0  0  0  0  0  0
  149.4199  135.3951  187.0754 N   0  0  0  0  0  0  0  0  0  0  0  0
  148.4391  135.7609  186.0500 C   0  0  0  0  0  0  0  0  0  0  0  0
  149.8331  136.1712  188.1039 C   0  0  0  0  0  0  0  0  0  0  0  0
  155.7891  136.7135  191.3228 C   0  0  0  0  0  0  0  0  0  0  0  0
  156.9170  137.5061  191.4297 F   0  0  0  0  0  0  0  0  0  0  0  0
  155.4635  136.2185  192.5609 F   0  0  0  0  0  0  0  0  0  0  0  0
  156.0898  135.6890  190.4681 F   0  0  0  0  0  0  0  0  0  0  0  0
  149.8006  135.2552  193.7660 C   0  0  0  0  0  0  0  0  0  0  0  0
  151.0323  135.9411  193.7182 O   0  0  0  0  0  0  0  0  0  0  0  0
 26 27  1  0  0  0
 27  1  1  0  0  0
  1  2  2  0  0  0
  2  3  1  0  0  0
  3  4  2  0  0  0
  4  5  1  0  0  0
  5  6  2  0  0  0
  6  7  1  0  0  0
  7  8  2  0  0  0
  8  9  1  0  0  0
  9 10  2  0  0  0
 10 11  1  0  0  0
 11 12  1  0  0  0
 11 22  1  0  0  0
 22 23  1  0  0  0
 22 24  1  0  0  0
 22 25  1  0  0  0
  4 13  1  0  0  0
 13 14  2  0  0  0
 13 16  1  0  0  0
 16 17  1  0  0  0
 17 18  2  0  0  0
 18 19  1  0  0  0
 19 20  1  0  0  0
 19 21  1  0  0  0
 14  1  1  0  0  0
 21 16  2  0  0  0
 11  3  1  0  0  0
 10  5  1  0  0  0
 12 15  1  0  0  0
M  END
> <minimizedAffinity>
-6.24262

> <CNNscore>
0.3629873991

> <CNNaffinity>
4.9948182106

> <CNN_VS>
1.8130561113

> <CNNaffinity_variance>
0.1190161109

$$$$
[H]OC1(C(F)(F)F)c2c([H])c([H])c([H])c([H])c2-c2c(-c3c([H])nn(C([H])([H])[H])c3[H])c([H])c(OC([H])([H])[H])c([H])c21


 27 30  0  0  0  0  0  0  0  0999 V2000
  154.0798  137.7351  185.1663 C   0  0  0  0  0  0  0  0  0  0  0  0
  153.0218  137.1279  184.5266 C   0  0  0  0  0  0  0  0  0  0  0  0
  152.4805  137.6932  183.3849 C   0  0  0  0  0  0  0  0  0  0  0  0
  152.9866  138.8791  182.8578 C   0  0  0  0  0  0  0  0  0  0  0  0
  152.1965  139.1569  181.6551 C   0  0  0  0  0  0  0  0  0  0  0  0
  152.2869  140.1869  180.7435 C   0  0  0  0  0  0  0  0  0  0  0  0
  151.4008  140.1902  179.6594 C   0  0  0  0  0  0  0  0  0  0  0  0
  150.4540  139.2201  179.4661 C   0  0  0  0  0  0  0  0  0  0  0  0
  150.3628  138.1947  180.3712 C   0  0  0  0  0  0  0  0  0  0  0  0
  151.2446  138.1777  181.4639 C   0  0  0  0  0  0  0  0  0  0  0  0
  151.3663  137.2110  182.5706 C   0  0  0  0  0  0  0  0  0  0  0  0
  151.5868  135.9494  182.0361 O   0  0  0  0  0  0  0  0  0  0  0  0
  154.0415  139.5101  183.4753 C   0  0  0  0  0  0  0  0  0  0  0  0
  154.5516  138.8947  184.6266 C   0  0  0  0  0  0  0  0  0  0  0  0
  152.0972  135.3555  182.6397 H   0  0  0  0  0  0  0  0  0  0  0  0
  154.5960  140.7759  183.0270 C   0  0  0  0  0  0  0  0  0  0  0  0
  153.9630  141.9926  182.9673 C   0  0  0  0  0  0  0  0  0  0  0  0
  154.8265  142.8443  182.4374 N   0  0  0  0  0  0  0  0  0  0  0  0
  155.9835  142.2891  182.1402 N   0  0  0  0  0  0  0  0  0  0  0  0
  157.1635  142.9223  181.5451 C   0  0  0  0  0  0  0  0  0  0  0  0
  155.8655  140.9902  182.5005 C   0  0  0  0  0  0  0  0  0  0  0  0
  150.1055  137.2399  183.4203 C   0  0  0  0  0  0  0  0  0  0  0  0
  149.2916  136.2120  182.9809 F   0  0  0  0  0  0  0  0  0  0  0  0
  150.3849  137.0597  184.7520 F   0  0  0  0  0  0  0  0  0  0  0  0
  149.4217  138.4097  183.2347 F   0  0  0  0  0  0  0  0  0  0  0  0
  155.4795  137.9799  187.1086 C   0  0  0  0  0  0  0  0  0  0  0  0
  154.6347  137.1655  186.3259 O   0  0  0  0  0  0  0  0  0  0  0  0
 26 27  1  0  0  0
 27  1  1  0  0  0
  1  2  2  0  0  0
  2  3  1  0  0  0
  3  4  2  0  0  0
  4  5  1  0  0  0
  5  6  2  0  0  0
  6  7  1  0  0  0
  7  8  2  0  0  0
  8  9  1  0  0  0
  9 10  2  0  0  0
 10 11  1  0  0  0
 11 12  1  0  0  0
 11 22  1  0  0  0
 22 23  1  0  0  0
 22 24  1  0  0  0
 22 25  1  0  0  0
  4 13  1  0  0  0
 13 14  2  0  0  0
 13 16  1  0  0  0
 16 17  1  0  0  0
 17 18  2  0  0  0
 18 19  1  0  0  0
 19 20  1  0  0  0
 19 21  1  0  0  0
 14  1  1  0  0  0
 21 16  2  0  0  0
 11  3  1  0  0  0
 10  5  1  0  0  0
 12 15  1  0  0  0
M  END
> <minimizedAffinity>
-7.44899

> <CNNscore>
0.3607259691

> <CNNaffinity>
5.4155020714

> <CNN_VS>
1.9535121918

> <CNNaffinity_variance>
0.0871079862

$$$$
[H]c1c([H])c([H])c2c(c1[H])c1c3c(c4c5c([H])c([H])c([H])c([H])c5n5c4c1n2[C@@]1(C([H])([H])[H])O[C@]5([H])C([H])([H])[C@@]([H])(N(C([H])([H])[H])C([H])([H])[H])[C@@]1([H])OC([H])([H])[H])C(=O)N([H])C3([H])[H]


 37 44  0  0  0  0  0  0  0  0999 V2000
  152.1494  134.9570  192.4808 C   0  0  0  0  0  0  0  0  0  0  0  0
  150.7921  134.3174  192.8494 C   0  0  0  0  0  0  0  0  0  0  0  0
  150.1667  134.0047  191.4918 C   0  0  0  0  0  0  0  0  0  0  0  0
  149.7688  135.3631  190.9754 C   0  0  0  0  0  0  0  0  0  0  0  0
  150.4196  136.3894  191.6126 O   0  0  0  0  0  0  0  0  0  0  0  0
  151.8058  136.2340  191.8004 C   0  0  0  0  0  0  0  0  0  0  0  0
  152.0689  137.3430  192.8646 C   0  0  0  0  0  0  0  0  0  0  0  0
  152.4851  136.5734  190.5773 N   0  0  0  0  0  0  0  0  0  0  0  0
  153.7411  137.0974  190.4710 C   0  0  0  0  0  0  0  0  0  0  0  0
  154.7352  137.3338  191.3770 C   0  0  0  0  0  0  0  0  0  0  0  0
  155.9489  137.8660  191.0044 C   0  0  0  0  0  0  0  0  0  0  0  0
  156.1969  138.1779  189.6941 C   0  0  0  0  0  0  0  0  0  0  0  0
  155.2095  137.9508  188.7429 C   0  0  0  0  0  0  0  0  0  0  0  0
  154.0226  137.4217  189.1538 C   0  0  0  0  0  0  0  0  0  0  0  0
  152.9017  137.0806  188.4165 C   0  0  0  0  0  0  0  0  0  0  0  0
  152.5933  137.1452  187.0708 C   0  0  0  0  0  0  0  0  0  0  0  0
  153.4322  137.6841  185.9681 C   0  0  0  0  0  0  0  0  0  0  0  0
  152.5958  137.5682  184.8105 N   0  0  0  0  0  0  0  0  0  0  0  0
  151.3394  136.9387  185.1546 C   0  0  0  0  0  0  0  0  0  0  0  0
  150.4328  136.6859  184.3351 O   0  0  0  0  0  0  0  0  0  0  0  0
  151.3726  136.6902  186.5698 C   0  0  0  0  0  0  0  0  0  0  0  0
  150.4807  136.1645  187.5037 C   0  0  0  0  0  0  0  0  0  0  0  0
  149.2360  135.5983  187.3694 C   0  0  0  0  0  0  0  0  0  0  0  0
  148.4072  135.3510  186.3145 C   0  0  0  0  0  0  0  0  0  0  0  0
  147.1837  134.7216  186.5678 C   0  0  0  0  0  0  0  0  0  0  0  0
  146.8121  134.3582  187.8372 C   0  0  0  0  0  0  0  0  0  0  0  0
  147.6497  134.6095  188.8954 C   0  0  0  0  0  0  0  0  0  0  0  0
  148.8556  135.2265  188.6605 C   0  0  0  0  0  0  0  0  0  0  0  0
  149.7879  135.5353  189.5444 N   0  0  0  0  0  0  0  0  0  0  0  0
  150.7919  136.1062  188.8629 C   0  0  0  0  0  0  0  0  0  0  0  0
  152.0058  136.5742  189.2874 C   0  0  0  0  0  0  0  0  0  0  0  0
  152.7894  137.8712  183.8211 H   0  0  0  0  0  0  0  0  0  0  0  0
  150.7603  133.3661  193.8347 N   0  0  0  0  0  0  0  0  0  0  0  0
  150.4041  132.0694  193.2936 C   0  0  0  0  0  0  0  0  0  0  0  0
  151.7401  133.2427  194.8256 C   0  0  0  0  0  0  0  0  0  0  0  0
  154.0598  133.7423  191.9922 C   0  0  0  0  0  0  0  0  0  0  0  0
  152.7585  134.0216  191.6645 O   0  0  0  0  0  0  0  0  0  0  0  0
 36 37  1  0  0  0
 37  1  1  0  0  0
  1  2  1  0  0  0
  2  3  1  0  0  0
  3  4  1  0  0  0
  4  5  1  0  0  0
  5  6  1  0  0  0
  6  7  1  0  0  0
  6  8  1  0  0  0
  8  9  1  0  0  0
  9 10  2  0  0  0
 10 11  1  0  0  0
 11 12  2  0  0  0
 12 13  1  0  0  0
 13 14  2  0  0  0
 14 15  1  0  0  0
 15 16  2  0  0  0
 16 17  1  0  0  0
 17 18  1  0  0  0
 18 19  1  0  0  0
 19 20  2  0  0  0
 19 21  1  0  0  0
 21 22  2  0  0  0
 22 23  1  0  0  0
 23 24  2  0  0  0
 24 25  1  0  0  0
 25 26  2  0  0  0
 26 27  1  0  0  0
 27 28  2  0  0  0
 28 29  1  0  0  0
 29 30  1  0  0  0
 30 31  2  0  0  0
  2 33  1  0  0  0
 33 34  1  0  0  0
 33 35  1  0  0  0
  6  1  1  0  0  0
 31  8  1  0  0  0
 29  4  1  0  0  0
 14  9  1  0  0  0
 31 15  1  0  0  0
 21 16  1  0  0  0
 30 22  1  0  0  0
 28 23  1  0  0  0
 18 32  1  0  0  0
M  END
> <minimizedAffinity>
-7.25286

> <CNNscore>
0.3753862977

> <CNNaffinity>
5.5405874252

> <CNN_VS>
2.0798606873

> <CNNaffinity_variance>
0.4816492498

$$$$
[H]c1c([H])c([H])c2c(c1[H])c1c3c(c4c5c([H])c([H])c([H])c([H])c5n5c4c1n2[C@@]1(C([H])([H])[H])O[C@]5([H])C([H])([H])[C@@]([H])(N(C([H])([H])[H])C([H])([H])[H])[C@@]1([H])OC([H])([H])[H])C(=O)N([H])C3([H])[H]


 37 44  0  0  0  0  0  0  0  0999 V2000
  152.0019  136.7574  187.3124 C   0  0  0  0  0  0  0  0  0  0  0  0
  151.3637  136.3486  185.9660 C   0  0  0  0  0  0  0  0  0  0  0  0
  152.1308  135.0864  185.5782 C   0  0  0  0  0  0  0  0  0  0  0  0
  153.4787  135.6169  185.1637 C   0  0  0  0  0  0  0  0  0  0  0  0
  153.7228  136.8831  185.6328 O   0  0  0  0  0  0  0  0  0  0  0  0
  153.4045  137.1254  186.9823 C   0  0  0  0  0  0  0  0  0  0  0  0
  153.4281  138.6846  186.9986 C   0  0  0  0  0  0  0  0  0  0  0  0
  154.4679  136.6219  187.8120 N   0  0  0  0  0  0  0  0  0  0  0  0
  154.8452  137.1156  189.0274 C   0  0  0  0  0  0  0  0  0  0  0  0
  154.3214  138.0693  189.8526 C   0  0  0  0  0  0  0  0  0  0  0  0
  154.8942  138.3771  191.0661 C   0  0  0  0  0  0  0  0  0  0  0  0
  156.0229  137.7249  191.4858 C   0  0  0  0  0  0  0  0  0  0  0  0
  156.5848  136.7474  190.6733 C   0  0  0  0  0  0  0  0  0  0  0  0
  155.9858  136.4728  189.4803 C   0  0  0  0  0  0  0  0  0  0  0  0
  156.3238  135.5426  188.5123 C   0  0  0  0  0  0  0  0  0  0  0  0
  157.3326  134.6038  188.4073 C   0  0  0  0  0  0  0  0  0  0  0  0
  158.4440  134.3492  189.3613 C   0  0  0  0  0  0  0  0  0  0  0  0
  159.2215  133.3304  188.7207 N   0  0  0  0  0  0  0  0  0  0  0  0
  158.6022  132.9278  187.4767 C   0  0  0  0  0  0  0  0  0  0  0  0
  159.0488  132.0366  186.7259 O   0  0  0  0  0  0  0  0  0  0  0  0
  157.4292  133.7421  187.3135 C   0  0  0  0  0  0  0  0  0  0  0  0
  156.4487  133.8801  186.3319 C   0  0  0  0  0  0  0  0  0  0  0  0
  156.2100  133.1915  185.1672 C   0  0  0  0  0  0  0  0  0  0  0  0
  156.8217  132.1530  184.5282 C   0  0  0  0  0  0  0  0  0  0  0  0
  156.2644  131.6926  183.3304 C   0  0  0  0  0  0  0  0  0  0  0  0
  155.1347  132.2605  182.7987 C   0  0  0  0  0  0  0  0  0  0  0  0
  154.5230  133.3055  183.4455 C   0  0  0  0  0  0  0  0  0  0  0  0
  155.0595  133.7672  184.6242 C   0  0  0  0  0  0  0  0  0  0  0  0
  154.6059  134.7464  185.3865 N   0  0  0  0  0  0  0  0  0  0  0  0
  155.4347  134.8333  186.4371 C   0  0  0  0  0  0  0  0  0  0  0  0
  155.4016  135.6499  187.5348 C   0  0  0  0  0  0  0  0  0  0  0  0
  160.1214  132.8863  189.0390 H   0  0  0  0  0  0  0  0  0  0  0  0
  149.9982  136.3609  185.8558 N   0  0  0  0  0  0  0  0  0  0  0  0
  149.4683  135.0125  185.8113 C   0  0  0  0  0  0  0  0  0  0  0  0
  149.1671  137.2006  186.6052 C   0  0  0  0  0  0  0  0  0  0  0  0
  151.2908  135.8547  189.3232 C   0  0  0  0  0  0  0  0  0  0  0  0
  151.8793  135.6312  188.1056 O   0  0  0  0  0  0  0  0  0  0  0  0
 36 37  1  0  0  0
 37  1  1  0  0  0
  1  2  1  0  0  0
  2  3  1  0  0  0
  3  4  1  0  0  0
  4  5  1  0  0  0
  5  6  1  0  0  0
  6  7  1  0  0  0
  6  8  1  0  0  0
  8  9  1  0  0  0
  9 10  2  0  0  0
 10 11  1  0  0  0
 11 12  2  0  0  0
 12 13  1  0  0  0
 13 14  2  0  0  0
 14 15  1  0  0  0
 15 16  2  0  0  0
 16 17  1  0  0  0
 17 18  1  0  0  0
 18 19  1  0  0  0
 19 20  2  0  0  0
 19 21  1  0  0  0
 21 22  2  0  0  0
 22 23  1  0  0  0
 23 24  2  0  0  0
 24 25  1  0  0  0
 25 26  2  0  0  0
 26 27  1  0  0  0
 27 28  2  0  0  0
 28 29  1  0  0  0
 29 30  1  0  0  0
 30 31  2  0  0  0
  2 33  1  0  0  0
 33 34  1  0  0  0
 33 35  1  0  0  0
  6  1  1  0  0  0
 31  8  1  0  0  0
 29  4  1  0  0  0
 14  9  1  0  0  0
 31 15  1  0  0  0
 21 16  1  0  0  0
 30 22  1  0  0  0
 28 23  1  0  0  0
 18 32  1  0  0  0
M  END
> <minimizedAffinity>
-6.87756

> <CNNscore>
0.3367446661

> <CNNaffinity>
5.5169348717

> <CNN_VS>
1.8577983379

> <CNNaffinity_variance>
0.3414646089

$$$$
[H]c1c([H])c([H])c2c(c1[H])c1c3c(c4c5c([H])c([H])c([H])c([H])c5n5c4c1n2[C@@]1(C([H])([H])[H])O[C@]5([H])C([H])([H])[C@@]([H])(N(C([H])([H])[H])C([H])([H])[H])[C@@]1([H])OC([H])([H])[H])C(=O)N([H])C3([H])[H]


 37 44  0  0  0  0  0  0  0  0999 V2000
  149.3205  136.3742  183.6395 C   0  0  0  0  0  0  0  0  0  0  0  0
  149.4771  135.4584  184.8740 C   0  0  0  0  0  0  0  0  0  0  0  0
  150.5576  136.1551  185.6981 C   0  0  0  0  0  0  0  0  0  0  0  0
  151.8160  135.8825  184.9158 C   0  0  0  0  0  0  0  0  0  0  0  0
  151.5696  135.5145  183.6171 O   0  0  0  0  0  0  0  0  0  0  0  0
  150.6171  136.2788  182.9174 C   0  0  0  0  0  0  0  0  0  0  0  0
  150.3378  135.3360  181.7071 C   0  0  0  0  0  0  0  0  0  0  0  0
  151.2407  137.4885  182.4478 N   0  0  0  0  0  0  0  0  0  0  0  0
  150.9044  138.1850  181.3230 C   0  0  0  0  0  0  0  0  0  0  0  0
  149.8868  138.0676  180.4200 C   0  0  0  0  0  0  0  0  0  0  0  0
  149.7550  138.9297  179.3547 C   0  0  0  0  0  0  0  0  0  0  0  0
  150.6549  139.9451  179.1684 C   0  0  0  0  0  0  0  0  0  0  0  0
  151.7039  140.0968  180.0672 C   0  0  0  0  0  0  0  0  0  0  0  0
  151.7974  139.2224  181.1085 C   0  0  0  0  0  0  0  0  0  0  0  0
  152.7170  139.1699  182.1419 C   0  0  0  0  0  0  0  0  0  0  0  0
  153.8131  139.9412  182.4790 C   0  0  0  0  0  0  0  0  0  0  0  0
  154.3732  141.1024  181.7386 C   0  0  0  0  0  0  0  0  0  0  0  0
  155.5355  141.4647  182.4940 N   0  0  0  0  0  0  0  0  0  0  0  0
  155.6593  140.6259  183.6664 C   0  0  0  0  0  0  0  0  0  0  0  0
  156.5636  140.7391  184.5188 O   0  0  0  0  0  0  0  0  0  0  0  0
  154.5704  139.6887  183.6240 C   0  0  0  0  0  0  0  0  0  0  0  0
  154.1582  138.6140  184.4108 C   0  0  0  0  0  0  0  0  0  0  0  0
  154.6268  138.1124  185.6009 C   0  0  0  0  0  0  0  0  0  0  0  0
  155.6490  138.4436  186.4415 C   0  0  0  0  0  0  0  0  0  0  0  0
  155.8154  137.6912  187.6092 C   0  0  0  0  0  0  0  0  0  0  0  0
  154.9828  136.6447  187.9143 C   0  0  0  0  0  0  0  0  0  0  0  0
  153.9559  136.3154  187.0650 C   0  0  0  0  0  0  0  0  0  0  0  0
  153.7802  137.0471  185.9144 C   0  0  0  0  0  0  0  0  0  0  0  0
  152.8479  136.8862  184.9921 N   0  0  0  0  0  0  0  0  0  0  0  0
  153.0548  137.8325  184.0648 C   0  0  0  0  0  0  0  0  0  0  0  0
  152.3588  138.1328  182.9254 C   0  0  0  0  0  0  0  0  0  0  0  0
  156.2465  142.2152  182.2954 H   0  0  0  0  0  0  0  0  0  0  0  0
  148.3476  135.0032  185.5016 N   0  0  0  0  0  0  0  0  0  0  0  0
  148.1861  135.6291  186.7990 C   0  0  0  0  0  0  0  0  0  0  0  0
  147.1125  134.8516  184.8620 C   0  0  0  0  0  0  0  0  0  0  0  0
  147.9367  138.2312  183.6606 C   0  0  0  0  0  0  0  0  0  0  0  0
  149.0540  137.6228  184.1708 O   0  0  0  0  0  0  0  0  0  0  0  0
 36 37  1  0  0  0
 37  1  1  0  0  0
  1  2  1  0  0  0
  2  3  1  0  0  0
  3  4  1  0  0  0
  4  5  1  0  0  0
  5  6  1  0  0  0
  6  7  1  0  0  0
  6  8  1  0  0  0
  8  9  1  0  0  0
  9 10  2  0  0  0
 10 11  1  0  0  0
 11 12  2  0  0  0
 12 13  1  0  0  0
 13 14  2  0  0  0
 14 15  1  0  0  0
 15 16  2  0  0  0
 16 17  1  0  0  0
 17 18  1  0  0  0
 18 19  1  0  0  0
 19 20  2  0  0  0
 19 21  1  0  0  0
 21 22  2  0  0  0
 22 23  1  0  0  0
 23 24  2  0  0  0
 24 25  1  0  0  0
 25 26  2  0  0  0
 26 27  1  0  0  0
 27 28  2  0  0  0
 28 29  1  0  0  0
 29 30  1  0  0  0
 30 31  2  0  0  0
  2 33  1  0  0  0
 33 34  1  0  0  0
 33 35  1  0  0  0
  6  1  1  0  0  0
 31  8  1  0  0  0
 29  4  1  0  0  0
 14  9  1  0  0  0
 31 15  1  0  0  0
 21 16  1  0  0  0
 30 22  1  0  0  0
 28 23  1  0  0  0
 18 32  1  0  0  0
M  END
> <minimizedAffinity>
-8.66576

> <CNNscore>
0.3277919590

> <CNNaffinity>
5.8527507782

> <CNN_VS>
1.9184846878

> <CNNaffinity_variance>
0.3631179631

$$$$
[H]c1c([H])c([H])c2c(c1[H])c1c3c(c4c5c([H])c([H])c([H])c([H])c5n5c4c1n2[C@@]1(C([H])([H])[H])O[C@]5([H])C([H])([H])[C@@]([H])(N(C([H])([H])[H])C([H])([H])[H])[C@@]1([H])OC([H])([H])[H])C(=O)N([H])C3([H])[H]


 37 44  0  0  0  0  0  0  0  0999 V2000
  151.8381  135.9301  185.5856 C   0  0  0  0  0  0  0  0  0  0  0  0
  150.3293  136.0737  185.2860 C   0  0  0  0  0  0  0  0  0  0  0  0
  149.6773  135.9016  186.6561 C   0  0  0  0  0  0  0  0  0  0  0  0
  149.8273  134.4269  186.9256 C   0  0  0  0  0  0  0  0  0  0  0  0
  150.7905  133.8360  186.1471 O   0  0  0  0  0  0  0  0  0  0  0  0
  152.0139  134.5224  186.0321 C   0  0  0  0  0  0  0  0  0  0  0  0
  152.6338  133.7837  184.8066 C   0  0  0  0  0  0  0  0  0  0  0  0
  152.8101  134.2596  187.2024 N   0  0  0  0  0  0  0  0  0  0  0  0
  154.1736  134.2279  187.2597 C   0  0  0  0  0  0  0  0  0  0  0  0
  155.1544  134.5308  186.3591 C   0  0  0  0  0  0  0  0  0  0  0  0
  156.4905  134.4315  186.6761 C   0  0  0  0  0  0  0  0  0  0  0  0
  156.8789  134.0198  187.9232 C   0  0  0  0  0  0  0  0  0  0  0  0
  155.9092  133.7032  188.8670 C   0  0  0  0  0  0  0  0  0  0  0  0
  154.5980  133.8160  188.5125 C   0  0  0  0  0  0  0  0  0  0  0  0
  153.4552  133.5900  189.2604 C   0  0  0  0  0  0  0  0  0  0  0  0
  153.2367  133.1924  190.5659 C   0  0  0  0  0  0  0  0  0  0  0  0
  154.2510  132.8265  191.5893 C   0  0  0  0  0  0  0  0  0  0  0  0
  153.4694  132.4299  192.7228 N   0  0  0  0  0  0  0  0  0  0  0  0
  152.0587  132.5975  192.4487 C   0  0  0  0  0  0  0  0  0  0  0  0
  151.1502  132.3564  193.2697 O   0  0  0  0  0  0  0  0  0  0  0  0
  151.9513  133.0729  191.0967 C   0  0  0  0  0  0  0  0  0  0  0  0
  150.8982  133.3790  190.2357 C   0  0  0  0  0  0  0  0  0  0  0  0
  149.5375  133.4133  190.4229 C   0  0  0  0  0  0  0  0  0  0  0  0
  148.7109  133.1567  191.4774 C   0  0  0  0  0  0  0  0  0  0  0  0
  147.3338  133.3214  191.2938 C   0  0  0  0  0  0  0  0  0  0  0  0
  146.8128  133.7276  190.0917 C   0  0  0  0  0  0  0  0  0  0  0  0
  147.6489  133.9844  189.0336 C   0  0  0  0  0  0  0  0  0  0  0  0
  149.0046  133.8276  189.2005 C   0  0  0  0  0  0  0  0  0  0  0  0
  149.9556  134.0379  188.3076 N   0  0  0  0  0  0  0  0  0  0  0  0
  151.1212  133.7741  188.9159 C   0  0  0  0  0  0  0  0  0  0  0  0
  152.4076  133.8664  188.4581 C   0  0  0  0  0  0  0  0  0  0  0  0
  153.7936  132.0596  193.6534 H   0  0  0  0  0  0  0  0  0  0  0  0
  149.9155  137.0957  184.4728 N   0  0  0  0  0  0  0  0  0  0  0  0
  150.7303  137.1700  183.2763 C   0  0  0  0  0  0  0  0  0  0  0  0
  148.5729  137.3596  184.1811 C   0  0  0  0  0  0  0  0  0  0  0  0
  153.0401  137.7998  186.2363 C   0  0  0  0  0  0  0  0  0  0  0  0
  152.0842  136.8742  186.5656 O   0  0  0  0  0  0  0  0  0  0  0  0
 36 37  1  0  0  0
 37  1  1  0  0  0
  1  2  1  0  0  0
  2  3  1  0  0  0
  3  4  1  0  0  0
  4  5  1  0  0  0
  5  6  1  0  0  0
  6  7  1  0  0  0
  6  8  1  0  0  0
  8  9  1  0  0  0
  9 10  2  0  0  0
 10 11  1  0  0  0
 11 12  2  0  0  0
 12 13  1  0  0  0
 13 14  2  0  0  0
 14 15  1  0  0  0
 15 16  2  0  0  0
 16 17  1  0  0  0
 17 18  1  0  0  0
 18 19  1  0  0  0
 19 20  2  0  0  0
 19 21  1  0  0  0
 21 22  2  0  0  0
 22 23  1  0  0  0
 23 24  2  0  0  0
 24 25  1  0  0  0
 25 26  2  0  0  0
 26 27  1  0  0  0
 27 28  2  0  0  0
 28 29  1  0  0  0
 29 30  1  0  0  0
 30 31  2  0  0  0
  2 33  1  0  0  0
 33 34  1  0  0  0
 33 35  1  0  0  0
  6  1  1  0  0  0
 31  8  1  0  0  0
 29  4  1  0  0  0
 14  9  1  0  0  0
 31 15  1  0  0  0
 21 16  1  0  0  0
 30 22  1  0  0  0
 28 23  1  0  0  0
 18 32  1  0  0  0
M  END
> <minimizedAffinity>
-3.14216

> <CNNscore>
0.3246009648

> <CNNaffinity>
5.8222398758

> <CNN_VS>
1.8899047375

> <CNNaffinity_variance>
0.5967768431

$$$$
[H]c1c([H])c([H])c2c(c1[H])c1c3c(c4c5c([H])c([H])c([H])c([H])c5n5c4c1n2[C@@]1(C([H])([H])[H])O[C@]5([H])C([H])([H])[C@@]([H])(N(C([H])([H])[H])C([H])([H])[H])[C@@]1([H])OC([H])([H])[H])C(=O)N([H])C3([H])[H]


 37 44  0  0  0  0  0  0  0  0999 V2000
  156.7205  135.3141  189.4543 C   0  0  0  0  0  0  0  0  0  0  0  0
  156.8984  134.5462  190.7831 C   0  0  0  0  0  0  0  0  0  0  0  0
  155.5322  133.9014  191.0061 C   0  0  0  0  0  0  0  0  0  0  0  0
  154.6633  135.0659  191.4048 C   0  0  0  0  0  0  0  0  0  0  0  0
  155.1991  136.2788  191.0521 O   0  0  0  0  0  0  0  0  0  0  0  0
  155.7251  136.3788  189.7504 C   0  0  0  0  0  0  0  0  0  0  0  0
  156.5614  137.6877  189.8875 C   0  0  0  0  0  0  0  0  0  0  0  0
  154.6446  136.5959  188.8241 N   0  0  0  0  0  0  0  0  0  0  0  0
  154.7176  137.2825  187.6466 C   0  0  0  0  0  0  0  0  0  0  0  0
  155.7542  137.8302  186.9464 C   0  0  0  0  0  0  0  0  0  0  0  0
  155.5627  138.4707  185.7429 C   0  0  0  0  0  0  0  0  0  0  0  0
  154.3073  138.5778  185.2060 C   0  0  0  0  0  0  0  0  0  0  0  0
  153.2272  138.0321  185.8894 C   0  0  0  0  0  0  0  0  0  0  0  0
  153.4606  137.4058  187.0771 C   0  0  0  0  0  0  0  0  0  0  0  0
  152.5776  136.7667  187.9305 C   0  0  0  0  0  0  0  0  0  0  0  0
  151.2148  136.5402  187.8928 C   0  0  0  0  0  0  0  0  0  0  0  0
  150.2428  136.9975  186.8651 C   0  0  0  0  0  0  0  0  0  0  0  0
  148.9772  136.5465  187.3630 N   0  0  0  0  0  0  0  0  0  0  0  0
  149.1525  135.7999  188.5898 C   0  0  0  0  0  0  0  0  0  0  0  0
  148.2214  135.2654  189.2260 O   0  0  0  0  0  0  0  0  0  0  0  0
  150.5580  135.8171  188.8898 C   0  0  0  0  0  0  0  0  0  0  0  0
  151.3548  135.3340  189.9270 C   0  0  0  0  0  0  0  0  0  0  0  0
  151.0647  134.5650  191.0280 C   0  0  0  0  0  0  0  0  0  0  0  0
  149.9262  134.0060  191.5304 C   0  0  0  0  0  0  0  0  0  0  0  0
  150.0228  133.2482  192.7025 C   0  0  0  0  0  0  0  0  0  0  0  0
  151.2222  133.0644  193.3423 C   0  0  0  0  0  0  0  0  0  0  0  0
  152.3649  133.6293  192.8327 C   0  0  0  0  0  0  0  0  0  0  0  0
  152.2845  134.3755  191.6808 C   0  0  0  0  0  0  0  0  0  0  0  0
  153.2708  134.9799  191.0422 N   0  0  0  0  0  0  0  0  0  0  0  0
  152.7298  135.5696  189.9662 C   0  0  0  0  0  0  0  0  0  0  0  0
  153.3096  136.2905  188.9577 C   0  0  0  0  0  0  0  0  0  0  0  0
  148.0163  136.6940  186.9588 H   0  0  0  0  0  0  0  0  0  0  0  0
  158.0293  133.7937  190.9605 N   0  0  0  0  0  0  0  0  0  0  0  0
  157.7143  132.5192  191.5748 C   0  0  0  0  0  0  0  0  0  0  0  0
  159.0244  133.6479  189.9879 C   0  0  0  0  0  0  0  0  0  0  0  0
  156.9493  134.3439  187.3638 C   0  0  0  0  0  0  0  0  0  0  0  0
  156.2809  134.3549  188.5604 O   0  0  0  0  0  0  0  0  0  0  0  0
 36 37  1  0  0  0
 37  1  1  0  0  0
  1  2  1  0  0  0
  2  3  1  0  0  0
  3  4  1  0  0  0
  4  5  1  0  0  0
  5  6  1  0  0  0
  6  7  1  0  0  0
  6  8  1  0  0  0
  8  9  1  0  0  0
  9 10  2  0  0  0
 10 11  1  0  0  0
 11 12  2  0  0  0
 12 13  1  0  0  0
 13 14  2  0  0  0
 14 15  1  0  0  0
 15 16  2  0  0  0
 16 17  1  0  0  0
 17 18  1  0  0  0
 18 19  1  0  0  0
 19 20  2  0  0  0
 19 21  1  0  0  0
 21 22  2  0  0  0
 22 23  1  0  0  0
 23 24  2  0  0  0
 24 25  1  0  0  0
 25 26  2  0  0  0
 26 27  1  0  0  0
 27 28  2  0  0  0
 28 29  1  0  0  0
 29 30  1  0  0  0
 30 31  2  0  0  0
  2 33  1  0  0  0
 33 34  1  0  0  0
 33 35  1  0  0  0
  6  1  1  0  0  0
 31  8  1  0  0  0
 29  4  1  0  0  0
 14  9  1  0  0  0
 31 15  1  0  0  0
 21 16  1  0  0  0
 30 22  1  0  0  0
 28 23  1  0  0  0
 18 32  1  0  0  0
M  END
> <minimizedAffinity>
-7.00651

> <CNNscore>
0.3127227426

> <CNNaffinity>
5.6443557739

> <CNN_VS>
1.7651183605

> <CNNaffinity_variance>
0.3137922883

$$$$
[H]c1c([H])c([H])c2c(c1[H])c1c3c(c4c5c([H])c([H])c([H])c([H])c5n5c4c1n2[C@@]1(C([H])([H])[H])O[C@]5([H])C([H])([H])[C@@]([H])(N(C([H])([H])[H])C([H])([H])[H])[C@@]1([H])OC([H])([H])[H])C(=O)N([H])C3([H])[H]


 37 44  0  0  0  0  0  0  0  0999 V2000
  151.2794  135.3141  186.9475 C   0  0  0  0  0  0  0  0  0  0  0  0
  149.9276  135.6543  186.2812 C   0  0  0  0  0  0  0  0  0  0  0  0
  149.9242  134.7889  185.0229 C   0  0  0  0  0  0  0  0  0  0  0  0
  150.9222  135.4780  184.1290 C   0  0  0  0  0  0  0  0  0  0  0  0
  151.7619  136.3201  184.8136 O   0  0  0  0  0  0  0  0  0  0  0  0
  152.3147  135.8215  186.0081 C   0  0  0  0  0  0  0  0  0  0  0  0
  152.8300  137.1456  186.6507 C   0  0  0  0  0  0  0  0  0  0  0  0
  153.4358  134.9767  185.6885 N   0  0  0  0  0  0  0  0  0  0  0  0
  154.5396  134.7732  186.4654 C   0  0  0  0  0  0  0  0  0  0  0  0
  154.8721  135.1514  187.7347 C   0  0  0  0  0  0  0  0  0  0  0  0
  156.0696  134.7931  188.3116 C   0  0  0  0  0  0  0  0  0  0  0  0
  156.9748  134.0351  187.6175 C   0  0  0  0  0  0  0  0  0  0  0  0
  156.6715  133.6304  186.3231 C   0  0  0  0  0  0  0  0  0  0  0  0
  155.4748  134.0061  185.7898 C   0  0  0  0  0  0  0  0  0  0  0  0
  154.9274  133.7191  184.5511 C   0  0  0  0  0  0  0  0  0  0  0  0
  155.3666  132.9870  183.4643 C   0  0  0  0  0  0  0  0  0  0  0  0
  156.6700  132.2910  183.3006 C   0  0  0  0  0  0  0  0  0  0  0  0
  156.6150  131.7650  181.9690 N   0  0  0  0  0  0  0  0  0  0  0  0
  155.3349  132.0576  181.3614 C   0  0  0  0  0  0  0  0  0  0  0  0
  155.0016  131.6929  180.2155 O   0  0  0  0  0  0  0  0  0  0  0  0
  154.5839  132.8201  182.3207 C   0  0  0  0  0  0  0  0  0  0  0  0
  153.3317  133.4329  182.3363 C   0  0  0  0  0  0  0  0  0  0  0  0
  152.3026  133.4456  181.4260 C   0  0  0  0  0  0  0  0  0  0  0  0
  152.1126  132.8994  180.1904 C   0  0  0  0  0  0  0  0  0  0  0  0
  150.8878  133.1196  179.5510 C   0  0  0  0  0  0  0  0  0  0  0  0
  149.8953  133.8637  180.1365 C   0  0  0  0  0  0  0  0  0  0  0  0
  150.0917  134.4113  181.3799 C   0  0  0  0  0  0  0  0  0  0  0  0
  151.2902  134.2020  182.0201 C   0  0  0  0  0  0  0  0  0  0  0  0
  151.6519  134.6358  183.2146 N   0  0  0  0  0  0  0  0  0  0  0  0
  152.8930  134.1771  183.4323 C   0  0  0  0  0  0  0  0  0  0  0  0
  153.7132  134.3044  184.5204 C   0  0  0  0  0  0  0  0  0  0  0  0
  157.3516  131.2341  181.4361 H   0  0  0  0  0  0  0  0  0  0  0  0
  148.8034  135.7012  187.0628 N   0  0  0  0  0  0  0  0  0  0  0  0
  148.1750  137.0055  186.9916 C   0  0  0  0  0  0  0  0  0  0  0  0
  147.8430  134.6846  187.1018 C   0  0  0  0  0  0  0  0  0  0  0  0
  151.4281  133.4909  188.3679 C   0  0  0  0  0  0  0  0  0  0  0  0
  151.2577  133.9381  187.0835 O   0  0  0  0  0  0  0  0  0  0  0  0
 36 37  1  0  0  0
 37  1  1  0  0  0
  1  2  1  0  0  0
  2  3  1  0  0  0
  3  4  1  0  0  0
  4  5  1  0  0  0
  5  6  1  0  0  0
  6  7  1  0  0  0
  6  8  1  0  0  0
  8  9  1  0  0  0
  9 10  2  0  0  0
 10 11  1  0  0  0
 11 12  2  0  0  0
 12 13  1  0  0  0
 13 14  2  0  0  0
 14 15  1  0  0  0
 15 16  2  0  0  0
 16 17  1  0  0  0
 17 18  1  0  0  0
 18 19  1  0  0  0
 19 20  2  0  0  0
 19 21  1  0  0  0
 21 22  2  0  0  0
 22 23  1  0  0  0
 23 24  2  0  0  0
 24 25  1  0  0  0
 25 26  2  0  0  0
 26 27  1  0  0  0
 27 28  2  0  0  0
 28 29  1  0  0  0
 29 30  1  0  0  0
 30 31  2  0  0  0
  2 33  1  0  0  0
 33 34  1  0  0  0
 33 35  1  0  0  0
  6  1  1  0  0  0
 31  8  1  0  0  0
 29  4  1  0  0  0
 14  9  1  0  0  0
 31 15  1  0  0  0
 21 16  1  0  0  0
 30 22  1  0  0  0
 28 23  1  0  0  0
 18 32  1  0  0  0
M  END
> <minimizedAffinity>
-4.03246

> <CNNscore>
0.3124795854

> <CNNaffinity>
5.5243024826

> <CNN_VS>
1.7262316942

> <CNNaffinity_variance>
0.1424059570

$$$$
[H]c1c([H])c([H])c2c(c1[H])c1c3c(c4c5c([H])c([H])c([H])c([H])c5n5c4c1n2[C@@]1(C([H])([H])[H])O[C@]5([H])C([H])([H])[C@@]([H])(N(C([H])([H])[H])C([H])([H])[H])[C@@]1([H])OC([H])([H])[H])C(=O)N([H])C3([H])[H]


 37 44  0  0  0  0  0  0  0  0999 V2000
  156.3493  135.5632  187.6286 C   0  0  0  0  0  0  0  0  0  0  0  0
  157.0637  135.4491  188.9938 C   0  0  0  0  0  0  0  0  0  0  0  0
  155.9682  134.9361  189.9259 C   0  0  0  0  0  0  0  0  0  0  0  0
  155.0817  136.1403  190.1102 C   0  0  0  0  0  0  0  0  0  0  0  0
  155.2635  137.0923  189.1389 O   0  0  0  0  0  0  0  0  0  0  0  0
  155.3298  136.6304  187.8110 C   0  0  0  0  0  0  0  0  0  0  0  0
  155.9292  137.8869  187.1084 C   0  0  0  0  0  0  0  0  0  0  0  0
  153.9930  136.4034  187.3268 N   0  0  0  0  0  0  0  0  0  0  0  0
  153.5744  136.5149  186.0324 C   0  0  0  0  0  0  0  0  0  0  0  0
  154.2292  136.7272  184.8530 C   0  0  0  0  0  0  0  0  0  0  0  0
  153.5633  136.7803  183.6492 C   0  0  0  0  0  0  0  0  0  0  0  0
  152.2042  136.6190  183.6005 C   0  0  0  0  0  0  0  0  0  0  0  0
  151.5031  136.4003  184.7803 C   0  0  0  0  0  0  0  0  0  0  0  0
  152.2008  136.3540  185.9502 C   0  0  0  0  0  0  0  0  0  0  0  0
  151.7532  136.1287  187.2407 C   0  0  0  0  0  0  0  0  0  0  0  0
  150.5074  135.8801  187.7849 C   0  0  0  0  0  0  0  0  0  0  0  0
  149.1989  135.8281  187.0809 C   0  0  0  0  0  0  0  0  0  0  0  0
  148.2502  135.6107  188.1325 N   0  0  0  0  0  0  0  0  0  0  0  0
  148.9266  135.4717  189.4039 C   0  0  0  0  0  0  0  0  0  0  0  0
  148.3480  135.2458  190.4863 O   0  0  0  0  0  0  0  0  0  0  0  0
  150.3304  135.6458  189.1494 C   0  0  0  0  0  0  0  0  0  0  0  0
  151.4824  135.6751  189.9341 C   0  0  0  0  0  0  0  0  0  0  0  0
  151.6885  135.4519  191.2741 C   0  0  0  0  0  0  0  0  0  0  0  0
  150.8785  135.1417  192.3271 C   0  0  0  0  0  0  0  0  0  0  0  0
  151.4660  134.9673  193.5847 C   0  0  0  0  0  0  0  0  0  0  0  0
  152.8182  135.1029  193.7710 C   0  0  0  0  0  0  0  0  0  0  0  0
  153.6289  135.4153  192.7081 C   0  0  0  0  0  0  0  0  0  0  0  0
  153.0648  135.5884  191.4663 C   0  0  0  0  0  0  0  0  0  0  0  0
  153.6822  135.8774  190.3345 N   0  0  0  0  0  0  0  0  0  0  0  0
  152.7386  135.9327  189.3833 C   0  0  0  0  0  0  0  0  0  0  0  0
  152.8404  136.1585  188.0373 C   0  0  0  0  0  0  0  0  0  0  0  0
  147.2009  135.5492  188.0748 H   0  0  0  0  0  0  0  0  0  0  0  0
  158.3047  134.8706  189.0395 N   0  0  0  0  0  0  0  0  0  0  0  0
  158.2688  133.6210  189.7731 C   0  0  0  0  0  0  0  0  0  0  0  0
  159.1583  134.7780  187.9349 C   0  0  0  0  0  0  0  0  0  0  0  0
  156.1655  133.7442  186.2068 C   0  0  0  0  0  0  0  0  0  0  0  0
  155.8232  134.3030  187.4108 O   0  0  0  0  0  0  0  0  0  0  0  0
 36 37  1  0  0  0
 37  1  1  0  0  0
  1  2  1  0  0  0
  2  3  1  0  0  0
  3  4  1  0  0  0
  4  5  1  0  0  0
  5  6  1  0  0  0
  6  7  1  0  0  0
  6  8  1  0  0  0
  8  9  1  0  0  0
  9 10  2  0  0  0
 10 11  1  0  0  0
 11 12  2  0  0  0
 12 13  1  0  0  0
 13 14  2  0  0  0
 14 15  1  0  0  0
 15 16  2  0  0  0
 16 17  1  0  0  0
 17 18  1  0  0  0
 18 19  1  0  0  0
 19 20  2  0  0  0
 19 21  1  0  0  0
 21 22  2  0  0  0
 22 23  1  0  0  0
 23 24  2  0  0  0
 24 25  1  0  0  0
 25 26  2  0  0  0
 26 27  1  0  0  0
 27 28  2  0  0  0
 28 29  1  0  0  0
 29 30  1  0  0  0
 30 31  2  0  0  0
  2 33  1  0  0  0
 33 34  1  0  0  0
 33 35  1  0  0  0
  6  1  1  0  0  0
 31  8  1  0  0  0
 29  4  1  0  0  0
 14  9  1  0  0  0
 31 15  1  0  0  0
 21 16  1  0  0  0
 30 22  1  0  0  0
 28 23  1  0  0  0
 18 32  1  0  0  0
M  END
> <minimizedAffinity>
-6.38363

> <CNNscore>
0.2997868657

> <CNNaffinity>
5.7539620399

> <CNN_VS>
1.7249622345

> <CNNaffinity_variance>
0.1239488497

$$$$
[H]c1c([H])c([H])c2c(c1[H])c1c3c(c4c5c([H])c([H])c([H])c([H])c5n5c4c1n2[C@@]1(C([H])([H])[H])O[C@]5([H])C([H])([H])[C@@]([H])(N(C([H])([H])[H])C([H])([H])[H])[C@@]1([H])OC([H])([H])[H])C(=O)N([H])C3([H])[H]


 37 44  0  0  0  0  0  0  0  0999 V2000
  153.4613  136.8458  185.8525 C   0  0  0  0  0  0  0  0  0  0  0  0
  152.4510  136.1805  184.8913 C   0  0  0  0  0  0  0  0  0  0  0  0
  151.1770  136.0826  185.7276 C   0  0  0  0  0  0  0  0  0  0  0  0
  151.4900  134.9780  186.7032 C   0  0  0  0  0  0  0  0  0  0  0  0
  152.8349  134.7308  186.8183 O   0  0  0  0  0  0  0  0  0  0  0  0
  153.6721  135.8555  186.9418 C   0  0  0  0  0  0  0  0  0  0  0  0
  155.0569  135.2069  186.6366 C   0  0  0  0  0  0  0  0  0  0  0  0
  153.6471  136.3101  188.3076 N   0  0  0  0  0  0  0  0  0  0  0  0
  154.6635  136.9390  188.9669 C   0  0  0  0  0  0  0  0  0  0  0  0
  155.8771  137.4231  188.5699 C   0  0  0  0  0  0  0  0  0  0  0  0
  156.7341  138.0490  189.4469 C   0  0  0  0  0  0  0  0  0  0  0  0
  156.3877  138.2061  190.7625 C   0  0  0  0  0  0  0  0  0  0  0  0
  155.1601  137.7268  191.2039 C   0  0  0  0  0  0  0  0  0  0  0  0
  154.3412  137.1143  190.3029 C   0  0  0  0  0  0  0  0  0  0  0  0
  153.0760  136.5796  190.4758 C   0  0  0  0  0  0  0  0  0  0  0  0
  152.2271  136.4784  191.5617 C   0  0  0  0  0  0  0  0  0  0  0  0
  152.4816  136.9106  192.9612 C   0  0  0  0  0  0  0  0  0  0  0  0
  151.3043  136.5011  193.6678 N   0  0  0  0  0  0  0  0  0  0  0  0
  150.3479  135.9088  192.7579 C   0  0  0  0  0  0  0  0  0  0  0  0
  149.2221  135.4904  193.0968 O   0  0  0  0  0  0  0  0  0  0  0  0
  150.9564  135.9105  191.4559 C   0  0  0  0  0  0  0  0  0  0  0  0
  150.5900  135.4516  190.1914 C   0  0  0  0  0  0  0  0  0  0  0  0
  149.4292  134.8894  189.7178 C   0  0  0  0  0  0  0  0  0  0  0  0
  148.2305  134.5567  190.2776 C   0  0  0  0  0  0  0  0  0  0  0  0
  147.2466  134.0010  189.4527 C   0  0  0  0  0  0  0  0  0  0  0  0
  147.4662  133.7886  188.1155 C   0  0  0  0  0  0  0  0  0  0  0  0
  148.6743  134.1250  187.5570 C   0  0  0  0  0  0  0  0  0  0  0  0
  149.6498  134.6729  188.3560 C   0  0  0  0  0  0  0  0  0  0  0  0
  150.8585  135.0668  187.9959 N   0  0  0  0  0  0  0  0  0  0  0  0
  151.4515  135.5490  189.0978 C   0  0  0  0  0  0  0  0  0  0  0  0
  152.6860  136.1133  189.2725 C   0  0  0  0  0  0  0  0  0  0  0  0
  151.0873  136.5813  194.6949 H   0  0  0  0  0  0  0  0  0  0  0  0
  152.3707  136.6386  183.6028 N   0  0  0  0  0  0  0  0  0  0  0  0
  152.8210  135.6303  182.6638 C   0  0  0  0  0  0  0  0  0  0  0  0
  151.2708  137.3388  183.0956 C   0  0  0  0  0  0  0  0  0  0  0  0
  153.5334  139.1574  185.9753 C   0  0  0  0  0  0  0  0  0  0  0  0
  152.8352  138.0114  186.2545 O   0  0  0  0  0  0  0  0  0  0  0  0
 36 37  1  0  0  0
 37  1  1  0  0  0
  1  2  1  0  0  0
  2  3  1  0  0  0
  3  4  1  0  0  0
  4  5  1  0  0  0
  5  6  1  0  0  0
  6  7  1  0  0  0
  6  8  1  0  0  0
  8  9  1  0  0  0
  9 10  2  0  0  0
 10 11  1  0  0  0
 11 12  2  0  0  0
 12 13  1  0  0  0
 13 14  2  0  0  0
 14 15  1  0  0  0
 15 16  2  0  0  0
 16 17  1  0  0  0
 17 18  1  0  0  0
 18 19  1  0  0  0
 19 20  2  0  0  0
 19 21  1  0  0  0
 21 22  2  0  0  0
 22 23  1  0  0  0
 23 24  2  0  0  0
 24 25  1  0  0  0
 25 26  2  0  0  0
 26 27  1  0  0  0
 27 28  2  0  0  0
 28 29  1  0  0  0
 29 30  1  0  0  0
 30 31  2  0  0  0
  2 33  1  0  0  0
 33 34  1  0  0  0
 33 35  1  0  0  0
  6  1  1  0  0  0
 31  8  1  0  0  0
 29  4  1  0  0  0
 14  9  1  0  0  0
 31 15  1  0  0  0
 21 16  1  0  0  0
 30 22  1  0  0  0
 28 23  1  0  0  0
 18 32  1  0  0  0
M  END
> <minimizedAffinity>
-7.05243

> <CNNscore>
0.2895326018

> <CNNaffinity>
5.6264519691

> <CNN_VS>
1.6290413141

> <CNNaffinity_variance>
0.3210451603

$$$$
[H]c1c([H])c([H])c2c(c1[H])c1c3c(c4c5c([H])c([H])c([H])c([H])c5n5c4c1n2[C@@]1(C([H])([H])[H])O[C@]5([H])C([H])([H])[C@@]([H])(N(C([H])([H])[H])C([H])([H])[H])[C@@]1([H])OC([H])([H])[H])C(=O)N([H])C3([H])[H]


 37 44  0  0  0  0  0  0  0  0999 V2000
  154.2533  136.1855  185.6796 C   0  0  0  0  0  0  0  0  0  0  0  0
  153.8117  136.9955  186.9190 C   0  0  0  0  0  0  0  0  0  0  0  0
  152.5138  136.3129  187.3451 C   0  0  0  0  0  0  0  0  0  0  0  0
  151.5320  136.7515  186.2898 C   0  0  0  0  0  0  0  0  0  0  0  0
  152.1417  137.2150  185.1513 O   0  0  0  0  0  0  0  0  0  0  0  0
  153.2096  136.4457  184.6526 C   0  0  0  0  0  0  0  0  0  0  0  0
  153.8555  137.4695  183.6696 C   0  0  0  0  0  0  0  0  0  0  0  0
  152.6782  135.3352  183.9061 N   0  0  0  0  0  0  0  0  0  0  0  0
  153.2735  134.7192  182.8434 C   0  0  0  0  0  0  0  0  0  0  0  0
  154.5036  134.8385  182.2624 C   0  0  0  0  0  0  0  0  0  0  0  0
  154.8779  134.0685  181.1843 C   0  0  0  0  0  0  0  0  0  0  0  0
  154.0134  133.1468  180.6565 C   0  0  0  0  0  0  0  0  0  0  0  0
  152.7526  132.9961  181.2214 C   0  0  0  0  0  0  0  0  0  0  0  0
  152.4223  133.7776  182.2881 C   0  0  0  0  0  0  0  0  0  0  0  0
  151.2593  133.8076  183.0383 C   0  0  0  0  0  0  0  0  0  0  0  0
  150.0757  133.0960  182.9859 C   0  0  0  0  0  0  0  0  0  0  0  0
  149.6817  132.0533  182.0022 C   0  0  0  0  0  0  0  0  0  0  0  0
  148.3407  131.7152  182.3768 N   0  0  0  0  0  0  0  0  0  0  0  0
  147.9437  132.4518  183.5571 C   0  0  0  0  0  0  0  0  0  0  0  0
  146.8364  132.3323  184.1203 O   0  0  0  0  0  0  0  0  0  0  0  0
  149.0481  133.3020  183.9078 C   0  0  0  0  0  0  0  0  0  0  0  0
  149.2832  134.2661  184.8872 C   0  0  0  0  0  0  0  0  0  0  0  0
  148.5331  134.6930  185.9562 C   0  0  0  0  0  0  0  0  0  0  0  0
  147.3050  134.3673  186.4531 C   0  0  0  0  0  0  0  0  0  0  0  0
  146.8640  135.0217  187.6083 C   0  0  0  0  0  0  0  0  0  0  0  0
  147.6329  135.9689  188.2353 C   0  0  0  0  0  0  0  0  0  0  0  0
  148.8678  136.2932  187.7311 C   0  0  0  0  0  0  0  0  0  0  0  0
  149.3141  135.6569  186.5970 C   0  0  0  0  0  0  0  0  0  0  0  0
  150.4697  135.8279  185.9795 N   0  0  0  0  0  0  0  0  0  0  0  0
  150.4767  134.9879  184.9342 C   0  0  0  0  0  0  0  0  0  0  0  0
  151.4414  134.7388  183.9961 C   0  0  0  0  0  0  0  0  0  0  0  0
  147.6743  131.0429  181.9161 H   0  0  0  0  0  0  0  0  0  0  0  0
  154.7482  137.3034  187.8702 N   0  0  0  0  0  0  0  0  0  0  0  0
  154.3712  136.7674  189.1632 C   0  0  0  0  0  0  0  0  0  0  0  0
  156.1276  137.1917  187.6653 C   0  0  0  0  0  0  0  0  0  0  0  0
  155.4603  134.2135  185.8143 C   0  0  0  0  0  0  0  0  0  0  0  0
  154.3019  134.8772  186.1248 O   0  0  0  0  0  0  0  0  0  0  0  0
 36 37  1  0  0  0
 37  1  1  0  0  0
  1  2  1  0  0  0
  2  3  1  0  0  0
  3  4  1  0  0  0
  4  5  1  0  0  0
  5  6  1  0  0  0
  6  7  1  0  0  0
  6  8  1  0  0  0
  8  9  1  0  0  0
  9 10  2  0  0  0
 10 11  1  0  0  0
 11 12  2  0  0  0
 12 13  1  0  0  0
 13 14  2  0  0  0
 14 15  1  0  0  0
 15 16  2  0  0  0
 16 17  1  0  0  0
 17 18  1  0  0  0
 18 19  1  0  0  0
 19 20  2  0  0  0
 19 21  1  0  0  0
 21 22  2  0  0  0
 22 23  1  0  0  0
 23 24  2  0  0  0
 24 25  1  0  0  0
 25 26  2  0  0  0
 26 27  1  0  0  0
 27 28  2  0  0  0
 28 29  1  0  0  0
 29 30  1  0  0  0
 30 31  2  0  0  0
  2 33  1  0  0  0
 33 34  1  0  0  0
 33 35  1  0  0  0
  6  1  1  0  0  0
 31  8  1  0  0  0
 29  4  1  0  0  0
 14  9  1  0  0  0
 31 15  1  0  0  0
 21 16  1  0  0  0
 30 22  1  0  0  0
 28 23  1  0  0  0
 18 32  1  0  0  0
M  END
> <minimizedAffinity>
-3.39408

> <CNNscore>
0.2768303156

> <CNNaffinity>
5.6064805984

> <CNN_VS>
1.5520437956

> <CNNaffinity_variance>
0.2608367801

$$$$
[H]OC(=O)C([H])([H])C([H])(C(=O)C([H])([H])F)N([H])C(=O)[C@@]([H])(N([H])C(=O)[C@@]([H])(N([H])C(=O)OC([H])([H])c1c([H])c([H])c([H])c([H])c1[H])C([H])(C([H])([H])[H])C([H])([H])[H])C([H])([H])[H]


 36 36  0  0  0  0  0  0  0  0999 V2000
  154.1840  139.1811  184.4310 C   0  0  0  0  0  0  0  0  0  0  0  0
  153.2444  138.6523  183.7625 O   0  0  0  0  0  0  0  0  0  0  0  0
  154.4926  138.5753  185.6622 N   0  0  0  0  0  0  0  0  0  0  0  0
  155.2575  138.9597  186.2886 H   0  0  0  0  0  0  0  0  0  0  0  0
  153.8141  137.4010  186.1947 C   0  0  0  0  0  0  0  0  0  0  0  0
  154.6039  136.1552  186.1112 C   0  0  0  0  0  0  0  0  0  0  0  0
  153.4781  137.7223  187.5948 C   0  0  0  0  0  0  0  0  0  0  0  0
  153.1383  138.8890  187.8851 O   0  0  0  0  0  0  0  0  0  0  0  0
  153.5347  136.7468  188.5995 N   0  0  0  0  0  0  0  0  0  0  0  0
  153.8322  135.7912  188.3468 H   0  0  0  0  0  0  0  0  0  0  0  0
  153.1711  137.0870  189.9901 C   0  0  0  0  0  0  0  0  0  0  0  0
  154.4489  137.1792  190.7362 C   0  0  0  0  0  0  0  0  0  0  0  0
  155.0355  136.1765  191.0781 O   0  0  0  0  0  0  0  0  0  0  0  0
  155.0473  138.4823  191.0836 C   0  0  0  0  0  0  0  0  0  0  0  0
  156.4349  138.4393  191.0801 F   0  0  0  0  0  0  0  0  0  0  0  0
  152.2312  136.0406  190.4336 C   0  0  0  0  0  0  0  0  0  0  0  0
  152.2431  134.7711  189.6962 C   0  0  0  0  0  0  0  0  0  0  0  0
  153.2938  133.8864  189.8505 O   0  0  0  0  0  0  0  0  0  0  0  0
  151.3098  134.4737  188.9250 O   0  0  0  0  0  0  0  0  0  0  0  0
  153.9092  133.9447  190.6395 H   0  0  0  0  0  0  0  0  0  0  0  0
  154.9265  140.3535  183.9716 C   0  0  0  0  0  0  0  0  0  0  0  0
  156.0702  140.0616  183.1540 N   0  0  0  0  0  0  0  0  0  0  0  0
  157.3376  139.8969  183.7442 C   0  0  0  0  0  0  0  0  0  0  0  0
  157.4077  140.0210  185.0176 O   0  0  0  0  0  0  0  0  0  0  0  0
  155.9904  139.9650  182.0960 H   0  0  0  0  0  0  0  0  0  0  0  0
  158.4834  139.6144  183.0190 O   0  0  0  0  0  0  0  0  0  0  0  0
  158.4838  139.9796  181.6689 C   0  0  0  0  0  0  0  0  0  0  0  0
  158.6695  141.3956  181.3941 C   0  0  0  0  0  0  0  0  0  0  0  0
  158.7804  141.8230  180.0888 C   0  0  0  0  0  0  0  0  0  0  0  0
  158.9743  143.1387  179.7261 C   0  0  0  0  0  0  0  0  0  0  0  0
  159.0682  144.1123  180.6904 C   0  0  0  0  0  0  0  0  0  0  0  0
  158.9609  143.7086  181.9999 C   0  0  0  0  0  0  0  0  0  0  0  0
  158.7659  142.3970  182.3734 C   0  0  0  0  0  0  0  0  0  0  0  0
  154.5780  142.7372  183.5381 C   0  0  0  0  0  0  0  0  0  0  0  0
  154.0509  141.3355  183.2776 C   0  0  0  0  0  0  0  0  0  0  0  0
  153.7917  141.0867  181.8341 C   0  0  0  0  0  0  0  0  0  0  0  0
 34 35  1  0  0  0
 35 36  1  0  0  0
 35 21  1  0  0  0
 21 22  1  0  0  0
 22 23  1  0  0  0
 23 24  2  0  0  0
 23 26  1  0  0  0
 26 27  1  0  0  0
 27 28  1  0  0  0
 28 29  2  0  0  0
 29 30  1  0  0  0
 30 31  2  0  0  0
 31 32  1  0  0  0
 32 33  2  0  0  0
 21  1  1  0  0  0
  1  2  2  0  0  0
  1  3  1  0  0  0
  3  5  1  0  0  0
  5  6  1  0  0  0
  5  7  1  0  0  0
  7  8  2  0  0  0
  7  9  1  0  0  0
  9 11  1  0  0  0
 11 16  1  0  0  0
 16 17  1  0  0  0
 17 18  1  0  0  0
 17 19  2  0  0  0
 11 12  1  0  0  0
 12 13  2  0  0  0
 12 14  1  0  0  0
 14 15  1  0  0  0
 33 28  1  0  0  0
 22 25  1  0  0  0
  3  4  1  0  0  0
  9 10  1  0  0  0
 18 20  1  0  0  0
M  END
> <minimizedAffinity>
-6.82172

> <CNNscore>
0.5377762318

> <CNNaffinity>
5.5727038383

> <CNN_VS>
2.9968676567

> <CNNaffinity_variance>
0.0276178569

$$$$
[H]OC(=O)C([H])([H])C([H])(C(=O)C([H])([H])F)N([H])C(=O)[C@@]([H])(N([H])C(=O)[C@@]([H])(N([H])C(=O)OC([H])([H])c1c([H])c([H])c([H])c([H])c1[H])C([H])(C([H])([H])[H])C([H])([H])[H])C([H])([H])[H]


 36 36  0  0  0  0  0  0  0  0999 V2000
  154.8702  138.0864  186.4897 C   0  0  0  0  0  0  0  0  0  0  0  0
  156.1131  137.9475  186.7020 O   0  0  0  0  0  0  0  0  0  0  0  0
  154.0233  137.9113  187.5989 N   0  0  0  0  0  0  0  0  0  0  0  0
  152.9703  137.9996  187.5071 H   0  0  0  0  0  0  0  0  0  0  0  0
  154.4841  137.5936  188.9441 C   0  0  0  0  0  0  0  0  0  0  0  0
  154.7737  138.7767  189.7805 C   0  0  0  0  0  0  0  0  0  0  0  0
  153.4291  136.7607  189.5520 C   0  0  0  0  0  0  0  0  0  0  0  0
  152.2892  136.7563  189.0406 O   0  0  0  0  0  0  0  0  0  0  0  0
  153.6819  135.9798  190.6880 N   0  0  0  0  0  0  0  0  0  0  0  0
  154.6245  136.0059  191.1081 H   0  0  0  0  0  0  0  0  0  0  0  0
  152.6157  135.1359  191.2648 C   0  0  0  0  0  0  0  0  0  0  0  0
  152.4817  135.5565  192.6800 C   0  0  0  0  0  0  0  0  0  0  0  0
  152.9975  134.9111  193.5653 O   0  0  0  0  0  0  0  0  0  0  0  0
  151.7248  136.7655  193.0574 C   0  0  0  0  0  0  0  0  0  0  0  0
  152.5259  137.8990  193.0815 F   0  0  0  0  0  0  0  0  0  0  0  0
  153.0321  133.7397  191.0362 C   0  0  0  0  0  0  0  0  0  0  0  0
  154.4209  133.5132  190.6181 C   0  0  0  0  0  0  0  0  0  0  0  0
  154.6974  133.0388  189.3496 O   0  0  0  0  0  0  0  0  0  0  0  0
  155.3666  133.7453  191.3968 O   0  0  0  0  0  0  0  0  0  0  0  0
  154.0190  133.0988  188.6143 H   0  0  0  0  0  0  0  0  0  0  0  0
  154.3182  138.4142  185.1764 C   0  0  0  0  0  0  0  0  0  0  0  0
  155.2921  138.7774  184.1857 N   0  0  0  0  0  0  0  0  0  0  0  0
  155.2631  140.0580  183.6019 C   0  0  0  0  0  0  0  0  0  0  0  0
  154.3413  140.8566  183.9950 O   0  0  0  0  0  0  0  0  0  0  0  0
  156.0490  138.0969  183.8709 H   0  0  0  0  0  0  0  0  0  0  0  0
  156.1692  140.4769  182.6416 O   0  0  0  0  0  0  0  0  0  0  0  0
  156.0547  141.7981  182.1973 C   0  0  0  0  0  0  0  0  0  0  0  0
  157.1751  142.3068  181.4221 C   0  0  0  0  0  0  0  0  0  0  0  0
  157.7803  143.4856  181.8001 C   0  0  0  0  0  0  0  0  0  0  0  0
  158.8360  144.0577  181.1230 C   0  0  0  0  0  0  0  0  0  0  0  0
  159.3450  143.4503  180.0012 C   0  0  0  0  0  0  0  0  0  0  0  0
  158.7562  142.2731  179.6052 C   0  0  0  0  0  0  0  0  0  0  0  0
  157.7018  141.6920  180.2749 C   0  0  0  0  0  0  0  0  0  0  0  0
  152.4813  137.9254  183.6342 C   0  0  0  0  0  0  0  0  0  0  0  0
  153.4450  137.3317  184.6488 C   0  0  0  0  0  0  0  0  0  0  0  0
  154.1337  136.1181  184.1335 C   0  0  0  0  0  0  0  0  0  0  0  0
 34 35  1  0  0  0
 35 36  1  0  0  0
 35 21  1  0  0  0
 21 22  1  0  0  0
 22 23  1  0  0  0
 23 24  2  0  0  0
 23 26  1  0  0  0
 26 27  1  0  0  0
 27 28  1  0  0  0
 28 29  2  0  0  0
 29 30  1  0  0  0
 30 31  2  0  0  0
 31 32  1  0  0  0
 32 33  2  0  0  0
 21  1  1  0  0  0
  1  2  2  0  0  0
  1  3  1  0  0  0
  3  5  1  0  0  0
  5  6  1  0  0  0
  5  7  1  0  0  0
  7  8  2  0  0  0
  7  9  1  0  0  0
  9 11  1  0  0  0
 11 16  1  0  0  0
 16 17  1  0  0  0
 17 18  1  0  0  0
 17 19  2  0  0  0
 11 12  1  0  0  0
 12 13  2  0  0  0
 12 14  1  0  0  0
 14 15  1  0  0  0
 33 28  1  0  0  0
 22 25  1  0  0  0
  3  4  1  0  0  0
  9 10  1  0  0  0
 18 20  1  0  0  0
M  END
> <minimizedAffinity>
-6.09217

> <CNNscore>
0.4324684739

> <CNNaffinity>
5.2198085785

> <CNN_VS>
2.2574026585

> <CNNaffinity_variance>
0.1720823646

$$$$
[H]OC(=O)C([H])([H])C([H])(C(=O)C([H])([H])F)N([H])C(=O)[C@@]([H])(N([H])C(=O)[C@@]([H])(N([H])C(=O)OC([H])([H])c1c([H])c([H])c([H])c([H])c1[H])C([H])(C([H])([H])[H])C([H])([H])[H])C([H])([H])[H]


 36 36  0  0  0  0  0  0  0  0999 V2000
  154.8385  138.6355  184.9038 C   0  0  0  0  0  0  0  0  0  0  0  0
  154.2076  137.7772  184.2148 O   0  0  0  0  0  0  0  0  0  0  0  0
  155.0546  138.3147  186.2560 N   0  0  0  0  0  0  0  0  0  0  0  0
  155.5645  138.9808  186.9052 H   0  0  0  0  0  0  0  0  0  0  0  0
  154.6106  137.0804  186.8902 C   0  0  0  0  0  0  0  0  0  0  0  0
  155.6971  136.1202  187.1738 C   0  0  0  0  0  0  0  0  0  0  0  0
  153.9221  137.4827  188.1314 C   0  0  0  0  0  0  0  0  0  0  0  0
  153.5727  138.6739  188.2729 O   0  0  0  0  0  0  0  0  0  0  0  0
  153.6561  136.5570  189.1495 N   0  0  0  0  0  0  0  0  0  0  0  0
  153.9647  135.5799  189.0244 H   0  0  0  0  0  0  0  0  0  0  0  0
  152.9445  136.9788  190.3732 C   0  0  0  0  0  0  0  0  0  0  0  0
  153.9882  137.1657  191.4094 C   0  0  0  0  0  0  0  0  0  0  0  0
  154.3860  136.2243  192.0589 O   0  0  0  0  0  0  0  0  0  0  0  0
  154.5757  138.4913  191.6826 C   0  0  0  0  0  0  0  0  0  0  0  0
  155.5031  138.8622  190.7185 F   0  0  0  0  0  0  0  0  0  0  0  0
  151.9394  135.9334  190.6413 C   0  0  0  0  0  0  0  0  0  0  0  0
  150.8552  136.2676  191.5730 C   0  0  0  0  0  0  0  0  0  0  0  0
  150.9773  137.3503  192.4234 O   0  0  0  0  0  0  0  0  0  0  0  0
  149.8134  135.5837  191.6097 O   0  0  0  0  0  0  0  0  0  0  0  0
  151.6479  138.0743  192.2482 H   0  0  0  0  0  0  0  0  0  0  0  0
  155.3299  139.8960  184.3502 C   0  0  0  0  0  0  0  0  0  0  0  0
  156.4298  139.7660  183.4363 N   0  0  0  0  0  0  0  0  0  0  0  0
  157.7509  139.7266  183.9210 C   0  0  0  0  0  0  0  0  0  0  0  0
  157.9086  139.8127  185.1897 O   0  0  0  0  0  0  0  0  0  0  0  0
  156.2767  139.6984  182.3841 H   0  0  0  0  0  0  0  0  0  0  0  0
  158.8591  139.6029  183.0994 O   0  0  0  0  0  0  0  0  0  0  0  0
  159.2912  140.7590  182.4415 C   0  0  0  0  0  0  0  0  0  0  0  0
  159.9370  141.7604  183.2753 C   0  0  0  0  0  0  0  0  0  0  0  0
  161.0104  141.3982  184.0598 C   0  0  0  0  0  0  0  0  0  0  0  0
  161.6785  142.2680  184.8949 C   0  0  0  0  0  0  0  0  0  0  0  0
  161.2838  143.5808  184.9803 C   0  0  0  0  0  0  0  0  0  0  0  0
  160.2145  143.9644  184.2067 C   0  0  0  0  0  0  0  0  0  0  0  0
  159.5404  143.1041  183.3680 C   0  0  0  0  0  0  0  0  0  0  0  0
  154.6141  142.1657  183.7778 C   0  0  0  0  0  0  0  0  0  0  0  0
  154.2440  140.6925  183.7186 C   0  0  0  0  0  0  0  0  0  0  0  0
  153.8188  140.2693  182.3575 C   0  0  0  0  0  0  0  0  0  0  0  0
 34 35  1  0  0  0
 35 36  1  0  0  0
 35 21  1  0  0  0
 21 22  1  0  0  0
 22 23  1  0  0  0
 23 24  2  0  0  0
 23 26  1  0  0  0
 26 27  1  0  0  0
 27 28  1  0  0  0
 28 29  2  0  0  0
 29 30  1  0  0  0
 30 31  2  0  0  0
 31 32  1  0  0  0
 32 33  2  0  0  0
 21  1  1  0  0  0
  1  2  2  0  0  0
  1  3  1  0  0  0
  3  5  1  0  0  0
  5  6  1  0  0  0
  5  7  1  0  0  0
  7  8  2  0  0  0
  7  9  1  0  0  0
  9 11  1  0  0  0
 11 16  1  0  0  0
 16 17  1  0  0  0
 17 18  1  0  0  0
 17 19  2  0  0  0
 11 12  1  0  0  0
 12 13  2  0  0  0
 12 14  1  0  0  0
 14 15  1  0  0  0
 33 28  1  0  0  0
 22 25  1  0  0  0
  3  4  1  0  0  0
  9 10  1  0  0  0
 18 20  1  0  0  0
M  END
> <minimizedAffinity>
-6.90387

> <CNNscore>
0.3652127385

> <CNNaffinity>
5.6010956764

> <CNN_VS>
2.0455915928

> <CNNaffinity_variance>
0.0552255511

$$$$
[H]OC(=O)C([H])([H])C([H])(C(=O)C([H])([H])F)N([H])C(=O)[C@@]([H])(N([H])C(=O)[C@@]([H])(N([H])C(=O)OC([H])([H])c1c([H])c([H])c([H])c([H])c1[H])C([H])(C([H])([H])[H])C([H])([H])[H])C([H])([H])[H]


 36 36  0  0  0  0  0  0  0  0999 V2000
  154.3685  138.4611  186.5531 C   0  0  0  0  0  0  0  0  0  0  0  0
  153.3118  138.4136  187.2532 O   0  0  0  0  0  0  0  0  0  0  0  0
  155.5767  138.2076  187.2271 N   0  0  0  0  0  0  0  0  0  0  0  0
  156.5074  138.2372  186.7190 H   0  0  0  0  0  0  0  0  0  0  0  0
  155.6773  137.8955  188.6467 C   0  0  0  0  0  0  0  0  0  0  0  0
  154.5493  138.3967  189.4586 C   0  0  0  0  0  0  0  0  0  0  0  0
  155.7828  136.4268  188.7363 C   0  0  0  0  0  0  0  0  0  0  0  0
  154.7509  135.7560  188.9512 O   0  0  0  0  0  0  0  0  0  0  0  0
  157.0144  135.7747  188.5867 N   0  0  0  0  0  0  0  0  0  0  0  0
  157.8604  136.3436  188.4250 H   0  0  0  0  0  0  0  0  0  0  0  0
  157.0911  134.3013  188.6572 C   0  0  0  0  0  0  0  0  0  0  0  0
  157.9401  133.9917  189.8325 C   0  0  0  0  0  0  0  0  0  0  0  0
  159.1269  133.7919  189.6987 O   0  0  0  0  0  0  0  0  0  0  0  0
  157.3763  133.9188  191.1940 C   0  0  0  0  0  0  0  0  0  0  0  0
  157.1976  135.1759  191.7552 F   0  0  0  0  0  0  0  0  0  0  0  0
  157.6031  133.8564  187.3477 C   0  0  0  0  0  0  0  0  0  0  0  0
  156.6199  133.3678  186.3731 C   0  0  0  0  0  0  0  0  0  0  0  0
  156.8027  132.1462  185.7527 O   0  0  0  0  0  0  0  0  0  0  0  0
  155.6103  134.0436  186.0932 O   0  0  0  0  0  0  0  0  0  0  0  0
  157.4270  131.4601  186.1324 H   0  0  0  0  0  0  0  0  0  0  0  0
  154.3629  138.7566  185.1214 C   0  0  0  0  0  0  0  0  0  0  0  0
  155.6621  138.8218  184.5133 N   0  0  0  0  0  0  0  0  0  0  0  0
  156.1466  140.0439  184.0100 C   0  0  0  0  0  0  0  0  0  0  0  0
  155.3804  141.0648  184.1224 O   0  0  0  0  0  0  0  0  0  0  0  0
  156.2824  137.9599  184.4275 H   0  0  0  0  0  0  0  0  0  0  0  0
  157.3881  140.1814  183.4115 O   0  0  0  0  0  0  0  0  0  0  0  0
  157.8711  141.4837  183.2483 C   0  0  0  0  0  0  0  0  0  0  0  0
  158.8169  141.9411  184.2541 C   0  0  0  0  0  0  0  0  0  0  0  0
  159.8937  142.7106  183.8706 C   0  0  0  0  0  0  0  0  0  0  0  0
  160.8524  143.1782  184.7438 C   0  0  0  0  0  0  0  0  0  0  0  0
  160.7674  142.8829  186.0825 C   0  0  0  0  0  0  0  0  0  0  0  0
  159.7013  142.1157  186.4877 C   0  0  0  0  0  0  0  0  0  0  0  0
  158.7371  141.6443  185.6240 C   0  0  0  0  0  0  0  0  0  0  0  0
  152.9821  138.5220  183.1140 C   0  0  0  0  0  0  0  0  0  0  0  0
  153.4980  137.8174  184.3582 C   0  0  0  0  0  0  0  0  0  0  0  0
  154.0785  136.4822  184.0536 C   0  0  0  0  0  0  0  0  0  0  0  0
 34 35  1  0  0  0
 35 36  1  0  0  0
 35 21  1  0  0  0
 21 22  1  0  0  0
 22 23  1  0  0  0
 23 24  2  0  0  0
 23 26  1  0  0  0
 26 27  1  0  0  0
 27 28  1  0  0  0
 28 29  2  0  0  0
 29 30  1  0  0  0
 30 31  2  0  0  0
 31 32  1  0  0  0
 32 33  2  0  0  0
 21  1  1  0  0  0
  1  2  2  0  0  0
  1  3  1  0  0  0
  3  5  1  0  0  0
  5  6  1  0  0  0
  5  7  1  0  0  0
  7  8  2  0  0  0
  7  9  1  0  0  0
  9 11  1  0  0  0
 11 16  1  0  0  0
 16 17  1  0  0  0
 17 18  1  0  0  0
 17 19  2  0  0  0
 11 12  1  0  0  0
 12 13  2  0  0  0
 12 14  1  0  0  0
 14 15  1  0  0  0
 33 28  1  0  0  0
 22 25  1  0  0  0
  3  4  1  0  0  0
  9 10  1  0  0  0
 18 20  1  0  0  0
M  END
> <minimizedAffinity>
-6.20914

> <CNNscore>
0.3579277098

> <CNNaffinity>
5.5840487480

> <CNN_VS>
1.9986858368

> <CNNaffinity_variance>
0.0781393647

$$$$
[H]OC(=O)C([H])([H])C([H])(C(=O)C([H])([H])F)N([H])C(=O)[C@@]([H])(N([H])C(=O)[C@@]([H])(N([H])C(=O)OC([H])([H])c1c([H])c([H])c([H])c([H])c1[H])C([H])(C([H])([H])[H])C([H])([H])[H])C([H])([H])[H]


 36 36  0  0  0  0  0  0  0  0999 V2000
  154.2990  138.0462  184.6774 C   0  0  0  0  0  0  0  0  0  0  0  0
  153.9512  137.4421  183.6175 O   0  0  0  0  0  0  0  0  0  0  0  0
  154.8143  139.3449  184.5161 N   0  0  0  0  0  0  0  0  0  0  0  0
  155.1381  139.9162  185.3490 H   0  0  0  0  0  0  0  0  0  0  0  0
  154.9605  140.0187  183.2325 C   0  0  0  0  0  0  0  0  0  0  0  0
  153.8308  140.9036  182.8806 C   0  0  0  0  0  0  0  0  0  0  0  0
  156.2233  140.7775  183.3103 C   0  0  0  0  0  0  0  0  0  0  0  0
  156.8967  140.7293  184.3616 O   0  0  0  0  0  0  0  0  0  0  0  0
  156.6772  141.5485  182.2315 N   0  0  0  0  0  0  0  0  0  0  0  0
  156.1021  141.5907  181.3753 H   0  0  0  0  0  0  0  0  0  0  0  0
  157.9565  142.2808  182.3248 C   0  0  0  0  0  0  0  0  0  0  0  0
  157.6112  143.7200  182.2399 C   0  0  0  0  0  0  0  0  0  0  0  0
  156.4594  144.0697  182.1073 O   0  0  0  0  0  0  0  0  0  0  0  0
  158.6470  144.7679  182.3152 C   0  0  0  0  0  0  0  0  0  0  0  0
  159.6651  144.4359  183.1987 F   0  0  0  0  0  0  0  0  0  0  0  0
  158.8098  141.7503  181.2452 C   0  0  0  0  0  0  0  0  0  0  0  0
  158.3300  141.9153  179.8676 C   0  0  0  0  0  0  0  0  0  0  0  0
  158.9747  142.7818  179.0051 O   0  0  0  0  0  0  0  0  0  0  0  0
  157.3397  141.2785  179.4574 O   0  0  0  0  0  0  0  0  0  0  0  0
  159.9086  143.0963  179.1882 H   0  0  0  0  0  0  0  0  0  0  0  0
  154.1794  137.4530  186.0081 C   0  0  0  0  0  0  0  0  0  0  0  0
  155.4078  137.3768  186.7477 N   0  0  0  0  0  0  0  0  0  0  0  0
  155.8749  136.1344  187.2167 C   0  0  0  0  0  0  0  0  0  0  0  0
  155.1581  135.1055  186.9529 O   0  0  0  0  0  0  0  0  0  0  0  0
  155.9876  138.2455  186.9585 H   0  0  0  0  0  0  0  0  0  0  0  0
  157.0494  135.9854  187.9356 O   0  0  0  0  0  0  0  0  0  0  0  0
  156.9256  135.6370  189.2845 C   0  0  0  0  0  0  0  0  0  0  0  0
  156.0690  136.4961  190.0864 C   0  0  0  0  0  0  0  0  0  0  0  0
  156.4664  137.7880  190.3547 C   0  0  0  0  0  0  0  0  0  0  0  0
  155.7345  138.6732  191.1169 C   0  0  0  0  0  0  0  0  0  0  0  0
  154.5337  138.2858  191.6595 C   0  0  0  0  0  0  0  0  0  0  0  0
  154.1175  137.0008  191.4052 C   0  0  0  0  0  0  0  0  0  0  0  0
  154.8402  136.1084  190.6441 C   0  0  0  0  0  0  0  0  0  0  0  0
  151.9639  137.1791  187.0118 C   0  0  0  0  0  0  0  0  0  0  0  0
  153.1390  138.1261  186.8309 C   0  0  0  0  0  0  0  0  0  0  0  0
  153.5934  138.7178  188.1178 C   0  0  0  0  0  0  0  0  0  0  0  0
 34 35  1  0  0  0
 35 36  1  0  0  0
 35 21  1  0  0  0
 21 22  1  0  0  0
 22 23  1  0  0  0
 23 24  2  0  0  0
 23 26  1  0  0  0
 26 27  1  0  0  0
 27 28  1  0  0  0
 28 29  2  0  0  0
 29 30  1  0  0  0
 30 31  2  0  0  0
 31 32  1  0  0  0
 32 33  2  0  0  0
 21  1  1  0  0  0
  1  2  2  0  0  0
  1  3  1  0  0  0
  3  5  1  0  0  0
  5  6  1  0  0  0
  5  7  1  0  0  0
  7  8  2  0  0  0
  7  9  1  0  0  0
  9 11  1  0  0  0
 11 16  1  0  0  0
 16 17  1  0  0  0
 17 18  1  0  0  0
 17 19  2  0  0  0
 11 12  1  0  0  0
 12 13  2  0  0  0
 12 14  1  0  0  0
 14 15  1  0  0  0
 33 28  1  0  0  0
 22 25  1  0  0  0
  3  4  1  0  0  0
  9 10  1  0  0  0
 18 20  1  0  0  0
M  END
> <minimizedAffinity>
-6.99168

> <CNNscore>
0.2794477344

> <CNNaffinity>
5.5084939003

> <CNN_VS>
1.5393360853

> <CNNaffinity_variance>
0.1622251570

$$$$
[H]OC(=O)C([H])([H])C([H])(C(=O)C([H])([H])F)N([H])C(=O)[C@@]([H])(N([H])C(=O)[C@@]([H])(N([H])C(=O)OC([H])([H])c1c([H])c([H])c([H])c([H])c1[H])C([H])(C([H])([H])[H])C([H])([H])[H])C([H])([H])[H]


 36 36  0  0  0  0  0  0  0  0999 V2000
  154.4971  139.2071  184.5582 C   0  0  0  0  0  0  0  0  0  0  0  0
  153.5523  138.6520  183.9192 O   0  0  0  0  0  0  0  0  0  0  0  0
  154.8722  138.6011  185.7708 N   0  0  0  0  0  0  0  0  0  0  0  0
  155.6461  139.0062  186.3725 H   0  0  0  0  0  0  0  0  0  0  0  0
  154.2552  137.3987  186.3153 C   0  0  0  0  0  0  0  0  0  0  0  0
  154.3611  136.2136  185.4395 C   0  0  0  0  0  0  0  0  0  0  0  0
  154.9088  137.1564  187.6155 C   0  0  0  0  0  0  0  0  0  0  0  0
  155.6327  138.0485  188.1066 O   0  0  0  0  0  0  0  0  0  0  0  0
  154.7336  135.9488  188.3048 N   0  0  0  0  0  0  0  0  0  0  0  0
  154.1449  135.2155  187.8789 H   0  0  0  0  0  0  0  0  0  0  0  0
  155.3796  135.7385  189.6163 C   0  0  0  0  0  0  0  0  0  0  0  0
  156.4994  134.7976  189.3746 C   0  0  0  0  0  0  0  0  0  0  0  0
  156.4011  133.6312  189.6850 O   0  0  0  0  0  0  0  0  0  0  0  0
  157.7605  135.2427  188.7514 C   0  0  0  0  0  0  0  0  0  0  0  0
  157.8476  134.8662  187.4180 F   0  0  0  0  0  0  0  0  0  0  0  0
  154.3167  135.2676  190.5237 C   0  0  0  0  0  0  0  0  0  0  0  0
  152.9294  135.4153  190.0666 C   0  0  0  0  0  0  0  0  0  0  0  0
  152.3099  136.6501  190.1100 O   0  0  0  0  0  0  0  0  0  0  0  0
  152.2935  134.4341  189.6336 O   0  0  0  0  0  0  0  0  0  0  0  0
  152.8434  137.4955  190.1828 H   0  0  0  0  0  0  0  0  0  0  0  0
  155.1808  140.4092  184.0843 C   0  0  0  0  0  0  0  0  0  0  0  0
  156.3043  140.1652  183.2240 N   0  0  0  0  0  0  0  0  0  0  0  0
  157.5772  139.9236  183.7747 C   0  0  0  0  0  0  0  0  0  0  0  0
  157.6707  139.9357  185.0527 O   0  0  0  0  0  0  0  0  0  0  0  0
  156.2052  140.1621  182.1632 H   0  0  0  0  0  0  0  0  0  0  0  0
  158.7044  139.6810  183.0073 O   0  0  0  0  0  0  0  0  0  0  0  0
  159.2660  140.7767  182.3439 C   0  0  0  0  0  0  0  0  0  0  0  0
  159.8996  141.7752  183.1905 C   0  0  0  0  0  0  0  0  0  0  0  0
  160.9888  141.4207  183.9565 C   0  0  0  0  0  0  0  0  0  0  0  0
  161.6474  142.2880  184.8016 C   0  0  0  0  0  0  0  0  0  0  0  0
  161.2262  143.5903  184.9169 C   0  0  0  0  0  0  0  0  0  0  0  0
  160.1408  143.9661  184.1621 C   0  0  0  0  0  0  0  0  0  0  0  0
  159.4760  143.1081  183.3136 C   0  0  0  0  0  0  0  0  0  0  0  0
  154.6539  142.7825  183.7997 C   0  0  0  0  0  0  0  0  0  0  0  0
  154.2468  141.3651  183.4312 C   0  0  0  0  0  0  0  0  0  0  0  0
  154.0437  141.1963  181.9674 C   0  0  0  0  0  0  0  0  0  0  0  0
 34 35  1  0  0  0
 35 36  1  0  0  0
 35 21  1  0  0  0
 21 22  1  0  0  0
 22 23  1  0  0  0
 23 24  2  0  0  0
 23 26  1  0  0  0
 26 27  1  0  0  0
 27 28  1  0  0  0
 28 29  2  0  0  0
 29 30  1  0  0  0
 30 31  2  0  0  0
 31 32  1  0  0  0
 32 33  2  0  0  0
 21  1  1  0  0  0
  1  2  2  0  0  0
  1  3  1  0  0  0
  3  5  1  0  0  0
  5  6  1  0  0  0
  5  7  1  0  0  0
  7  8  2  0  0  0
  7  9  1  0  0  0
  9 11  1  0  0  0
 11 16  1  0  0  0
 16 17  1  0  0  0
 17 18  1  0  0  0
 17 19  2  0  0  0
 11 12  1  0  0  0
 12 13  2  0  0  0
 12 14  1  0  0  0
 14 15  1  0  0  0
 33 28  1  0  0  0
 22 25  1  0  0  0
  3  4  1  0  0  0
  9 10  1  0  0  0
 18 20  1  0  0  0
M  END
> <minimizedAffinity>
-6.30069

> <CNNscore>
0.2708792388

> <CNNaffinity>
5.5914583206

> <CNN_VS>
1.5146099329

> <CNNaffinity_variance>
0.0396788679

$$$$
[H]OC(=O)C([H])([H])C([H])(C(=O)C([H])([H])F)N([H])C(=O)[C@@]([H])(N([H])C(=O)[C@@]([H])(N([H])C(=O)OC([H])([H])c1c([H])c([H])c([H])c([H])c1[H])C([H])(C([H])([H])[H])C([H])([H])[H])C([H])([H])[H]


 36 36  0  0  0  0  0  0  0  0999 V2000
  155.3251  138.0320  187.3386 C   0  0  0  0  0  0  0  0  0  0  0  0
  156.4897  137.5331  187.4026 O   0  0  0  0  0  0  0  0  0  0  0  0
  154.6654  138.2384  188.5635 N   0  0  0  0  0  0  0  0  0  0  0  0
  153.6851  138.6417  188.5998 H   0  0  0  0  0  0  0  0  0  0  0  0
  155.2342  137.9246  189.8677 C   0  0  0  0  0  0  0  0  0  0  0  0
  154.9490  138.9311  190.9110 C   0  0  0  0  0  0  0  0  0  0  0  0
  154.6930  136.6046  190.2432 C   0  0  0  0  0  0  0  0  0  0  0  0
  155.3398  135.5771  189.9483 O   0  0  0  0  0  0  0  0  0  0  0  0
  153.4718  136.4839  190.9202 N   0  0  0  0  0  0  0  0  0  0  0  0
  152.9416  137.3411  191.1432 H   0  0  0  0  0  0  0  0  0  0  0  0
  152.9619  135.1526  191.3062 C   0  0  0  0  0  0  0  0  0  0  0  0
  151.6666  134.9910  190.6033 C   0  0  0  0  0  0  0  0  0  0  0  0
  150.8836  134.1329  190.9454 O   0  0  0  0  0  0  0  0  0  0  0  0
  151.2873  135.8622  189.4746 C   0  0  0  0  0  0  0  0  0  0  0  0
  151.7886  135.4008  188.2650 F   0  0  0  0  0  0  0  0  0  0  0  0
  152.9088  135.1478  192.7801 C   0  0  0  0  0  0  0  0  0  0  0  0
  152.0309  136.1328  193.4235 C   0  0  0  0  0  0  0  0  0  0  0  0
  152.2386  137.4849  193.2254 O   0  0  0  0  0  0  0  0  0  0  0  0
  151.0890  135.7659  194.1535 O   0  0  0  0  0  0  0  0  0  0  0  0
  152.7858  137.8179  192.4544 H   0  0  0  0  0  0  0  0  0  0  0  0
  154.6789  138.3869  186.0762 C   0  0  0  0  0  0  0  0  0  0  0  0
  155.5769  138.7900  185.0308 N   0  0  0  0  0  0  0  0  0  0  0  0
  155.2181  139.8302  184.1527 C   0  0  0  0  0  0  0  0  0  0  0  0
  154.0747  140.3788  184.3360 O   0  0  0  0  0  0  0  0  0  0  0  0
  156.5224  138.3185  184.8941 H   0  0  0  0  0  0  0  0  0  0  0  0
  156.0327  140.2712  183.1229 O   0  0  0  0  0  0  0  0  0  0  0  0
  156.3254  141.6384  183.0890 C   0  0  0  0  0  0  0  0  0  0  0  0
  157.2673  142.0610  182.0646 C   0  0  0  0  0  0  0  0  0  0  0  0
  157.7722  143.3428  182.0965 C   0  0  0  0  0  0  0  0  0  0  0  0
  158.6557  143.8428  181.1639 C   0  0  0  0  0  0  0  0  0  0  0  0
  159.0831  143.0510  180.1261 C   0  0  0  0  0  0  0  0  0  0  0  0
  158.5918  141.7684  180.0741 C   0  0  0  0  0  0  0  0  0  0  0  0
  157.7097  141.2581  181.0012 C   0  0  0  0  0  0  0  0  0  0  0  0
  154.3246  135.9651  186.0488 C   0  0  0  0  0  0  0  0  0  0  0  0
  153.7843  137.3066  185.5808 C   0  0  0  0  0  0  0  0  0  0  0  0
  152.3335  137.4648  185.8685 C   0  0  0  0  0  0  0  0  0  0  0  0
 34 35  1  0  0  0
 35 36  1  0  0  0
 35 21  1  0  0  0
 21 22  1  0  0  0
 22 23  1  0  0  0
 23 24  2  0  0  0
 23 26  1  0  0  0
 26 27  1  0  0  0
 27 28  1  0  0  0
 28 29  2  0  0  0
 29 30  1  0  0  0
 30 31  2  0  0  0
 31 32  1  0  0  0
 32 33  2  0  0  0
 21  1  1  0  0  0
  1  2  2  0  0  0
  1  3  1  0  0  0
  3  5  1  0  0  0
  5  6  1  0  0  0
  5  7  1  0  0  0
  7  8  2  0  0  0
  7  9  1  0  0  0
  9 11  1  0  0  0
 11 16  1  0  0  0
 16 17  1  0  0  0
 17 18  1  0  0  0
 17 19  2  0  0  0
 11 12  1  0  0  0
 12 13  2  0  0  0
 12 14  1  0  0  0
 14 15  1  0  0  0
 33 28  1  0  0  0
 22 25  1  0  0  0
  3  4  1  0  0  0
  9 10  1  0  0  0
 18 20  1  0  0  0
M  END
> <minimizedAffinity>
-5.85213

> <CNNscore>
0.2582071722

> <CNNaffinity>
5.1091699600

> <CNN_VS>
1.3192243576

> <CNNaffinity_variance>
0.0959776789

$$$$
[H]OC(=O)C([H])([H])C([H])(C(=O)C([H])([H])F)N([H])C(=O)[C@@]([H])(N([H])C(=O)[C@@]([H])(N([H])C(=O)OC([H])([H])c1c([H])c([H])c([H])c([H])c1[H])C([H])(C([H])([H])[H])C([H])([H])[H])C([H])([H])[H]


 36 36  0  0  0  0  0  0  0  0999 V2000
  154.8075  139.9185  183.7508 C   0  0  0  0  0  0  0  0  0  0  0  0
  155.7541  139.1100  183.9950 O   0  0  0  0  0  0  0  0  0  0  0  0
  153.5388  139.3497  183.5387 N   0  0  0  0  0  0  0  0  0  0  0  0
  152.6947  139.9531  183.3187 H   0  0  0  0  0  0  0  0  0  0  0  0
  153.2587  137.9208  183.5891 C   0  0  0  0  0  0  0  0  0  0  0  0
  152.7756  137.4441  184.9014 C   0  0  0  0  0  0  0  0  0  0  0  0
  152.2627  137.6616  182.5321 C   0  0  0  0  0  0  0  0  0  0  0  0
  152.6041  137.0078  181.5236 O   0  0  0  0  0  0  0  0  0  0  0  0
  150.9478  138.1348  182.6386 N   0  0  0  0  0  0  0  0  0  0  0  0
  150.6852  138.6866  183.4705 H   0  0  0  0  0  0  0  0  0  0  0  0
  149.9622  137.8425  181.5780 C   0  0  0  0  0  0  0  0  0  0  0  0
  149.5572  139.1561  181.0226 C   0  0  0  0  0  0  0  0  0  0  0  0
  148.4690  139.6226  181.2769 O   0  0  0  0  0  0  0  0  0  0  0  0
  150.4567  139.9358  180.1509 C   0  0  0  0  0  0  0  0  0  0  0  0
  150.5393  139.4023  178.8720 F   0  0  0  0  0  0  0  0  0  0  0  0
  148.8969  137.0491  182.2187 C   0  0  0  0  0  0  0  0  0  0  0  0
  148.8396  137.0625  183.6856 C   0  0  0  0  0  0  0  0  0  0  0  0
  149.4787  136.0784  184.4161 O   0  0  0  0  0  0  0  0  0  0  0  0
  148.2179  137.9579  184.2907 O   0  0  0  0  0  0  0  0  0  0  0  0
  150.1998  135.5150  184.0074 H   0  0  0  0  0  0  0  0  0  0  0  0
  154.9931  141.3673  183.6904 C   0  0  0  0  0  0  0  0  0  0  0  0
  156.3525  141.8082  183.8299 N   0  0  0  0  0  0  0  0  0  0  0  0
  157.2630  141.6387  182.7697 C   0  0  0  0  0  0  0  0  0  0  0  0
  156.8192  141.0821  181.7042 O   0  0  0  0  0  0  0  0  0  0  0  0
  156.7019  142.2665  184.7260 H   0  0  0  0  0  0  0  0  0  0  0  0
  158.5875  142.0390  182.8331 O   0  0  0  0  0  0  0  0  0  0  0  0
  159.4673  141.2062  183.5320 C   0  0  0  0  0  0  0  0  0  0  0  0
  160.1343  141.8052  184.6772 C   0  0  0  0  0  0  0  0  0  0  0  0
  161.4839  142.0751  184.6098 C   0  0  0  0  0  0  0  0  0  0  0  0
  162.2089  142.6254  185.6451 C   0  0  0  0  0  0  0  0  0  0  0  0
  161.5890  142.9379  186.8302 C   0  0  0  0  0  0  0  0  0  0  0  0
  160.2426  142.6767  186.9201 C   0  0  0  0  0  0  0  0  0  0  0  0
  159.5081  142.1282  185.8916 C   0  0  0  0  0  0  0  0  0  0  0  0
  153.3366  141.0121  181.9238 C   0  0  0  0  0  0  0  0  0  0  0  0
  154.3972  141.9585  182.4624 C   0  0  0  0  0  0  0  0  0  0  0  0
  153.9045  143.3576  182.5734 C   0  0  0  0  0  0  0  0  0  0  0  0
 34 35  1  0  0  0
 35 36  1  0  0  0
 35 21  1  0  0  0
 21 22  1  0  0  0
 22 23  1  0  0  0
 23 24  2  0  0  0
 23 26  1  0  0  0
 26 27  1  0  0  0
 27 28  1  0  0  0
 28 29  2  0  0  0
 29 30  1  0  0  0
 30 31  2  0  0  0
 31 32  1  0  0  0
 32 33  2  0  0  0
 21  1  1  0  0  0
  1  2  2  0  0  0
  1  3  1  0  0  0
  3  5  1  0  0  0
  5  6  1  0  0  0
  5  7  1  0  0  0
  7  8  2  0  0  0
  7  9  1  0  0  0
  9 11  1  0  0  0
 11 16  1  0  0  0
 16 17  1  0  0  0
 17 18  1  0  0  0
 17 19  2  0  0  0
 11 12  1  0  0  0
 12 13  2  0  0  0
 12 14  1  0  0  0
 14 15  1  0  0  0
 33 28  1  0  0  0
 22 25  1  0  0  0
  3  4  1  0  0  0
  9 10  1  0  0  0
 18 20  1  0  0  0
M  END
> <minimizedAffinity>
-7.46802

> <CNNscore>
0.2502631843

> <CNNaffinity>
5.4183320999

> <CNN_VS>
1.3560090065

> <CNNaffinity_variance>
0.1797033101

$$$$
[H]OC(=O)C([H])([H])C([H])(C(=O)C([H])([H])F)N([H])C(=O)[C@@]([H])(N([H])C(=O)[C@@]([H])(N([H])C(=O)OC([H])([H])c1c([H])c([H])c([H])c([H])c1[H])C([H])(C([H])([H])[H])C([H])([H])[H])C([H])([H])[H]


 36 36  0  0  0  0  0  0  0  0999 V2000
  154.0421  139.0399  183.9503 C   0  0  0  0  0  0  0  0  0  0  0  0
  152.9568  138.9342  183.3020 O   0  0  0  0  0  0  0  0  0  0  0  0
  154.4651  137.8965  184.6515 N   0  0  0  0  0  0  0  0  0  0  0  0
  155.3560  137.9018  185.2272 H   0  0  0  0  0  0  0  0  0  0  0  0
  153.7471  136.6288  184.6682 C   0  0  0  0  0  0  0  0  0  0  0  0
  154.3557  135.5767  183.8282 C   0  0  0  0  0  0  0  0  0  0  0  0
  153.6887  136.2102  186.0817 C   0  0  0  0  0  0  0  0  0  0  0  0
  152.7200  136.5727  186.7826 O   0  0  0  0  0  0  0  0  0  0  0  0
  154.6965  135.4185  186.6489 N   0  0  0  0  0  0  0  0  0  0  0  0
  155.4982  135.1400  186.0613 H   0  0  0  0  0  0  0  0  0  0  0  0
  154.6042  134.9926  188.0602 C   0  0  0  0  0  0  0  0  0  0  0  0
  155.5062  135.8919  188.8188 C   0  0  0  0  0  0  0  0  0  0  0  0
  155.1075  136.9583  189.2314 O   0  0  0  0  0  0  0  0  0  0  0  0
  156.9074  135.5232  189.0978 C   0  0  0  0  0  0  0  0  0  0  0  0
  157.7269  135.7038  187.9919 F   0  0  0  0  0  0  0  0  0  0  0  0
  154.9483  133.5586  188.0768 C   0  0  0  0  0  0  0  0  0  0  0  0
  154.3059  132.7023  187.0722 C   0  0  0  0  0  0  0  0  0  0  0  0
  153.0979  132.0904  187.3491 O   0  0  0  0  0  0  0  0  0  0  0  0
  154.8374  132.5165  185.9598 O   0  0  0  0  0  0  0  0  0  0  0  0
  152.5101  132.4160  188.0929 H   0  0  0  0  0  0  0  0  0  0  0  0
  154.8339  140.2683  183.9830 C   0  0  0  0  0  0  0  0  0  0  0  0
  156.1569  140.1484  183.4377 N   0  0  0  0  0  0  0  0  0  0  0  0
  157.2243  139.7341  184.2568 C   0  0  0  0  0  0  0  0  0  0  0  0
  156.9527  139.4793  185.4828 O   0  0  0  0  0  0  0  0  0  0  0  0
  156.3616  140.3678  182.4155 H   0  0  0  0  0  0  0  0  0  0  0  0
  158.5246  139.5964  183.7998 O   0  0  0  0  0  0  0  0  0  0  0  0
  159.1741  140.7614  183.3792 C   0  0  0  0  0  0  0  0  0  0  0  0
  159.9913  141.4295  184.3797 C   0  0  0  0  0  0  0  0  0  0  0  0
  159.4100  141.8551  185.5544 C   0  0  0  0  0  0  0  0  0  0  0  0
  160.0941  142.5110  186.5554 C   0  0  0  0  0  0  0  0  0  0  0  0
  161.4344  142.7759  186.4142 C   0  0  0  0  0  0  0  0  0  0  0  0
  162.0352  142.3607  185.2498 C   0  0  0  0  0  0  0  0  0  0  0  0
  161.3615  141.7035  184.2437 C   0  0  0  0  0  0  0  0  0  0  0  0
  154.6207  142.7066  183.9580 C   0  0  0  0  0  0  0  0  0  0  0  0
  154.1274  141.4084  183.3399 C   0  0  0  0  0  0  0  0  0  0  0  0
  154.1471  141.4454  181.8530 C   0  0  0  0  0  0  0  0  0  0  0  0
 34 35  1  0  0  0
 35 36  1  0  0  0
 35 21  1  0  0  0
 21 22  1  0  0  0
 22 23  1  0  0  0
 23 24  2  0  0  0
 23 26  1  0  0  0
 26 27  1  0  0  0
 27 28  1  0  0  0
 28 29  2  0  0  0
 29 30  1  0  0  0
 30 31  2  0  0  0
 31 32  1  0  0  0
 32 33  2  0  0  0
 21  1  1  0  0  0
  1  2  2  0  0  0
  1  3  1  0  0  0
  3  5  1  0  0  0
  5  6  1  0  0  0
  5  7  1  0  0  0
  7  8  2  0  0  0
  7  9  1  0  0  0
  9 11  1  0  0  0
 11 16  1  0  0  0
 16 17  1  0  0  0
 17 18  1  0  0  0
 17 19  2  0  0  0
 11 12  1  0  0  0
 12 13  2  0  0  0
 12 14  1  0  0  0
 14 15  1  0  0  0
 33 28  1  0  0  0
 22 25  1  0  0  0
  3  4  1  0  0  0
  9 10  1  0  0  0
 18 20  1  0  0  0
M  END
> <minimizedAffinity>
-6.05620

> <CNNscore>
0.2323678136

> <CNNaffinity>
5.4240560532

> <CNN_VS>
1.2603760958

> <CNNaffinity_variance>
0.0596646890

$$$$
[H]c1nc2c([H])c(OC([H])([H])C([H])([H])C([H])([H])N3C([H])([H])C([H])([H])C([H])([H])C([H])([H])C3([H])[H])c(OC([H])([H])[H])c([H])c2c(Oc2c([H])c([H])c(N([H])C(=O)C3(C(=O)N([H])c4c([H])c([H])c(F)c([H])c4[H])C([H])([H])C3([H])[H])c([H])c2F)c1[H]


 48 53  0  0  0  0  0  0  0  0999 V2000
  154.7830  137.7382  186.9835 C   0  0  0  0  0  0  0  0  0  0  0  0
  154.7427  138.4395  188.1663 C   0  0  0  0  0  0  0  0  0  0  0  0
  153.9374  138.0742  189.2470 C   0  0  0  0  0  0  0  0  0  0  0  0
  153.1226  136.9627  189.1792 C   0  0  0  0  0  0  0  0  0  0  0  0
  153.1514  136.2534  188.0073 C   0  0  0  0  0  0  0  0  0  0  0  0
  153.9372  136.6026  186.9399 C   0  0  0  0  0  0  0  0  0  0  0  0
  153.9145  135.8636  185.8092 F   0  0  0  0  0  0  0  0  0  0  0  0
  152.3534  136.5765  190.3142 N   0  0  0  0  0  0  0  0  0  0  0  0
  152.8117  135.9077  191.4416 C   0  0  0  0  0  0  0  0  0  0  0  0
  154.0067  135.5317  191.5331 O   0  0  0  0  0  0  0  0  0  0  0  0
  151.3046  136.7998  190.2399 H   0  0  0  0  0  0  0  0  0  0  0  0
  151.9277  135.5918  192.5764 C   0  0  0  0  0  0  0  0  0  0  0  0
  152.5787  135.2152  193.8725 C   0  0  0  0  0  0  0  0  0  0  0  0
  151.9518  136.5293  193.7601 C   0  0  0  0  0  0  0  0  0  0  0  0
  150.6552  134.8931  192.2833 C   0  0  0  0  0  0  0  0  0  0  0  0
  149.8880  135.4489  191.4436 O   0  0  0  0  0  0  0  0  0  0  0  0
  150.3176  133.6769  192.8915 N   0  0  0  0  0  0  0  0  0  0  0  0
  151.0985  133.2624  193.5130 H   0  0  0  0  0  0  0  0  0  0  0  0
  149.1398  132.9295  192.7336 C   0  0  0  0  0  0  0  0  0  0  0  0
  147.8904  133.3477  193.0484 C   0  0  0  0  0  0  0  0  0  0  0  0
  146.7632  132.5561  192.8639 C   0  0  0  0  0  0  0  0  0  0  0  0
  146.9414  131.2992  192.3399 C   0  0  0  0  0  0  0  0  0  0  0  0
  145.8938  130.4362  192.1196 F   0  0  0  0  0  0  0  0  0  0  0  0
  148.1932  130.8500  192.0123 C   0  0  0  0  0  0  0  0  0  0  0  0
  149.2752  131.6557  192.2074 C   0  0  0  0  0  0  0  0  0  0  0  0
  155.5229  138.0301  185.9135 O   0  0  0  0  0  0  0  0  0  0  0  0
  152.9594  139.0150  182.9859 C   0  0  0  0  0  0  0  0  0  0  0  0
  153.8587  138.6862  184.0113 C   0  0  0  0  0  0  0  0  0  0  0  0
  155.0171  139.4281  184.1313 C   0  0  0  0  0  0  0  0  0  0  0  0
  155.9114  139.0517  185.1704 C   0  0  0  0  0  0  0  0  0  0  0  0
  157.0565  139.7976  185.2503 C   0  0  0  0  0  0  0  0  0  0  0  0
  157.2856  140.8323  184.3611 C   0  0  0  0  0  0  0  0  0  0  0  0
  156.4198  141.1556  183.3956 N   0  0  0  0  0  0  0  0  0  0  0  0
  155.2899  140.4625  183.2737 C   0  0  0  0  0  0  0  0  0  0  0  0
  154.3804  140.7739  182.2568 C   0  0  0  0  0  0  0  0  0  0  0  0
  153.2148  140.0622  182.1004 C   0  0  0  0  0  0  0  0  0  0  0  0
  151.5257  137.2201  183.7072 C   0  0  0  0  0  0  0  0  0  0  0  0
  151.7894  138.2979  182.8320 O   0  0  0  0  0  0  0  0  0  0  0  0
  152.2870  140.2976  181.1492 O   0  0  0  0  0  0  0  0  0  0  0  0
  152.0816  139.7804  179.8931 C   0  0  0  0  0  0  0  0  0  0  0  0
  150.6744  139.8313  179.3594 C   0  0  0  0  0  0  0  0  0  0  0  0
  150.0061  138.5185  179.7215 C   0  0  0  0  0  0  0  0  0  0  0  0
  148.7915  138.6578  180.4048 N   0  0  0  0  0  0  0  0  0  0  0  0
  147.5909  138.5362  179.6875 C   0  0  0  0  0  0  0  0  0  0  0  0
  146.3506  138.6242  180.4955 C   0  0  0  0  0  0  0  0  0  0  0  0
  146.5302  138.4551  181.9677 C   0  0  0  0  0  0  0  0  0  0  0  0
  147.8017  139.0224  182.5162 C   0  0  0  0  0  0  0  0  0  0  0  0
  148.6848  139.6263  181.4425 C   0  0  0  0  0  0  0  0  0  0  0  0
 37 38  1  0  0  0
 38 27  1  0  0  0
 27 28  2  0  0  0
 28 29  1  0  0  0
 29 30  2  0  0  0
 30 26  1  0  0  0
 26  1  1  0  0  0
  1  2  2  0  0  0
  2  3  1  0  0  0
  3  4  2  0  0  0
  4  8  1  0  0  0
  8  9  1  0  0  0
  9 10  2  0  0  0
  9 12  1  0  0  0
 12 13  1  0  0  0
 13 14  1  0  0  0
 12 15  1  0  0  0
 15 16  2  0  0  0
 15 17  1  0  0  0
 17 19  1  0  0  0
 19 20  2  0  0  0
 20 21  1  0  0  0
 21 22  2  0  0  0
 22 23  1  0  0  0
 22 24  1  0  0  0
 24 25  2  0  0  0
  4  5  1  0  0  0
  5  6  2  0  0  0
  6  7  1  0  0  0
 30 31  1  0  0  0
 31 32  2  0  0  0
 32 33  1  0  0  0
 33 34  2  0  0  0
 34 35  1  0  0  0
 35 36  2  0  0  0
 36 39  1  0  0  0
 39 40  1  0  0  0
 40 41  1  0  0  0
 41 42  1  0  0  0
 42 43  1  0  0  0
 43 44  1  0  0  0
 44 45  1  0  0  0
 45 46  1  0  0  0
 46 47  1  0  0  0
 47 48  1  0  0  0
 36 27  1  0  0  0
 48 43  1  0  0  0
 34 29  1  0  0  0
  6  1  1  0  0  0
 14 12  1  0  0  0
 25 19  1  0  0  0
  8 11  1  0  0  0
 17 18  1  0  0  0
M  END
> <minimizedAffinity>
-7.68055

> <CNNscore>
0.2137245238

> <CNNaffinity>
6.2288069725

> <CNN_VS>
1.3312487602

> <CNNaffinity_variance>
0.2550037503

$$$$
[H]c1nc2c([H])c(OC([H])([H])C([H])([H])C([H])([H])N3C([H])([H])C([H])([H])C([H])([H])C([H])([H])C3([H])[H])c(OC([H])([H])[H])c([H])c2c(Oc2c([H])c([H])c(N([H])C(=O)C3(C(=O)N([H])c4c([H])c([H])c(F)c([H])c4[H])C([H])([H])C3([H])[H])c([H])c2F)c1[H]


 48 53  0  0  0  0  0  0  0  0999 V2000
  151.9889  136.4709  184.7785 C   0  0  0  0  0  0  0  0  0  0  0  0
  151.2508  137.0274  185.7973 C   0  0  0  0  0  0  0  0  0  0  0  0
  151.6767  137.0532  187.1269 C   0  0  0  0  0  0  0  0  0  0  0  0
  152.8905  136.5081  187.4924 C   0  0  0  0  0  0  0  0  0  0  0  0
  153.6376  135.9497  186.4888 C   0  0  0  0  0  0  0  0  0  0  0  0
  153.2297  135.9181  185.1806 C   0  0  0  0  0  0  0  0  0  0  0  0
  154.0116  135.3461  184.2391 F   0  0  0  0  0  0  0  0  0  0  0  0
  153.3298  136.5972  188.8445 N   0  0  0  0  0  0  0  0  0  0  0  0
  154.1334  137.5869  189.3949 C   0  0  0  0  0  0  0  0  0  0  0  0
  154.5978  138.5151  188.6873 O   0  0  0  0  0  0  0  0  0  0  0  0
  153.0289  135.7742  189.4670 H   0  0  0  0  0  0  0  0  0  0  0  0
  154.4952  137.5961  190.8226 C   0  0  0  0  0  0  0  0  0  0  0  0
  155.9268  137.8723  191.1685 C   0  0  0  0  0  0  0  0  0  0  0  0
  154.9327  138.9115  191.4217 C   0  0  0  0  0  0  0  0  0  0  0  0
  153.8052  136.6348  191.7132 C   0  0  0  0  0  0  0  0  0  0  0  0
  154.1723  135.4261  191.6295 O   0  0  0  0  0  0  0  0  0  0  0  0
  152.8064  137.0370  192.6097 N   0  0  0  0  0  0  0  0  0  0  0  0
  152.6552  138.1063  192.6514 H   0  0  0  0  0  0  0  0  0  0  0  0
  152.0522  136.2341  193.4798 C   0  0  0  0  0  0  0  0  0  0  0  0
  152.5400  135.5357  194.5331 C   0  0  0  0  0  0  0  0  0  0  0  0
  151.7355  134.7597  195.3588 C   0  0  0  0  0  0  0  0  0  0  0  0
  150.3915  134.7094  195.0809 C   0  0  0  0  0  0  0  0  0  0  0  0
  149.5094  133.9707  195.8338 F   0  0  0  0  0  0  0  0  0  0  0  0
  149.8706  135.4055  194.0225 C   0  0  0  0  0  0  0  0  0  0  0  0
  150.6914  136.1563  193.2349 C   0  0  0  0  0  0  0  0  0  0  0  0
  151.6441  136.4086  183.4922 O   0  0  0  0  0  0  0  0  0  0  0  0
  153.8122  139.7609  183.0753 C   0  0  0  0  0  0  0  0  0  0  0  0
  153.0534  138.5880  183.2052 C   0  0  0  0  0  0  0  0  0  0  0  0
  152.0309  138.3647  182.3046 C   0  0  0  0  0  0  0  0  0  0  0  0
  151.2733  137.1747  182.4812 C   0  0  0  0  0  0  0  0  0  0  0  0
  150.2578  136.9932  181.5811 C   0  0  0  0  0  0  0  0  0  0  0  0
  150.0214  137.9281  180.5892 C   0  0  0  0  0  0  0  0  0  0  0  0
  150.7562  139.0367  180.4561 N   0  0  0  0  0  0  0  0  0  0  0  0
  151.7567  139.2620  181.3047 C   0  0  0  0  0  0  0  0  0  0  0  0
  152.5245  140.4264  181.1929 C   0  0  0  0  0  0  0  0  0  0  0  0
  153.5522  140.6893  182.0672 C   0  0  0  0  0  0  0  0  0  0  0  0
  155.1756  139.0526  184.9292 C   0  0  0  0  0  0  0  0  0  0  0  0
  154.8438  140.0216  183.9555 O   0  0  0  0  0  0  0  0  0  0  0  0
  154.3390  141.7850  182.0285 O   0  0  0  0  0  0  0  0  0  0  0  0
  155.6923  141.9609  181.8708 C   0  0  0  0  0  0  0  0  0  0  0  0
  156.3487  142.9978  182.7435 C   0  0  0  0  0  0  0  0  0  0  0  0
  157.8464  142.8865  182.5290 C   0  0  0  0  0  0  0  0  0  0  0  0
  158.5672  142.5137  183.6704 N   0  0  0  0  0  0  0  0  0  0  0  0
  159.8242  143.0952  183.8997 C   0  0  0  0  0  0  0  0  0  0  0  0
  160.4900  142.7026  185.1653 C   0  0  0  0  0  0  0  0  0  0  0  0
  159.6071  142.0587  186.1822 C   0  0  0  0  0  0  0  0  0  0  0  0
  158.5330  141.1822  185.6188 C   0  0  0  0  0  0  0  0  0  0  0  0
  158.5313  141.1581  184.1033 C   0  0  0  0  0  0  0  0  0  0  0  0
 37 38  1  0  0  0
 38 27  1  0  0  0
 27 28  2  0  0  0
 28 29  1  0  0  0
 29 30  2  0  0  0
 30 26  1  0  0  0
 26  1  1  0  0  0
  1  2  2  0  0  0
  2  3  1  0  0  0
  3  4  2  0  0  0
  4  8  1  0  0  0
  8  9  1  0  0  0
  9 10  2  0  0  0
  9 12  1  0  0  0
 12 13  1  0  0  0
 13 14  1  0  0  0
 12 15  1  0  0  0
 15 16  2  0  0  0
 15 17  1  0  0  0
 17 19  1  0  0  0
 19 20  2  0  0  0
 20 21  1  0  0  0
 21 22  2  0  0  0
 22 23  1  0  0  0
 22 24  1  0  0  0
 24 25  2  0  0  0
  4  5  1  0  0  0
  5  6  2  0  0  0
  6  7  1  0  0  0
 30 31  1  0  0  0
 31 32  2  0  0  0
 32 33  1  0  0  0
 33 34  2  0  0  0
 34 35  1  0  0  0
 35 36  2  0  0  0
 36 39  1  0  0  0
 39 40  1  0  0  0
 40 41  1  0  0  0
 41 42  1  0  0  0
 42 43  1  0  0  0
 43 44  1  0  0  0
 44 45  1  0  0  0
 45 46  1  0  0  0
 46 47  1  0  0  0
 47 48  1  0  0  0
 36 27  1  0  0  0
 48 43  1  0  0  0
 34 29  1  0  0  0
  6  1  1  0  0  0
 14 12  1  0  0  0
 25 19  1  0  0  0
  8 11  1  0  0  0
 17 18  1  0  0  0
M  END
> <minimizedAffinity>
-9.43775

> <CNNscore>
0.2019374818

> <CNNaffinity>
6.6269974709

> <CNN_VS>
1.3382391930

> <CNNaffinity_variance>
0.6712971926

$$$$
[H]c1nc2c([H])c(OC([H])([H])C([H])([H])C([H])([H])N3C([H])([H])C([H])([H])C([H])([H])C([H])([H])C3([H])[H])c(OC([H])([H])[H])c([H])c2c(Oc2c([H])c([H])c(N([H])C(=O)C3(C(=O)N([H])c4c([H])c([H])c(F)c([H])c4[H])C([H])([H])C3([H])[H])c([H])c2F)c1[H]


 48 53  0  0  0  0  0  0  0  0999 V2000
  150.8205  136.7923  184.5527 C   0  0  0  0  0  0  0  0  0  0  0  0
  149.6403  136.0959  184.4324 C   0  0  0  0  0  0  0  0  0  0  0  0
  148.9412  135.5778  185.5246 C   0  0  0  0  0  0  0  0  0  0  0  0
  149.4123  135.7445  186.8107 C   0  0  0  0  0  0  0  0  0  0  0  0
  150.5872  136.4360  186.9472 C   0  0  0  0  0  0  0  0  0  0  0  0
  151.2823  136.9486  185.8828 C   0  0  0  0  0  0  0  0  0  0  0  0
  152.4393  137.6160  186.0852 F   0  0  0  0  0  0  0  0  0  0  0  0
  148.6530  135.2574  187.9131 N   0  0  0  0  0  0  0  0  0  0  0  0
  148.9666  134.1770  188.7270 C   0  0  0  0  0  0  0  0  0  0  0  0
  149.9874  133.4769  188.5131 O   0  0  0  0  0  0  0  0  0  0  0  0
  147.7242  135.7727  188.0780 H   0  0  0  0  0  0  0  0  0  0  0  0
  148.1204  133.7856  189.8672 C   0  0  0  0  0  0  0  0  0  0  0  0
  146.6693  134.1545  189.8066 C   0  0  0  0  0  0  0  0  0  0  0  0
  147.0444  132.7563  189.6150 C   0  0  0  0  0  0  0  0  0  0  0  0
  148.7254  133.8254  191.2184 C   0  0  0  0  0  0  0  0  0  0  0  0
  147.9594  133.5467  192.1869 O   0  0  0  0  0  0  0  0  0  0  0  0
  150.0750  134.1436  191.4195 N   0  0  0  0  0  0  0  0  0  0  0  0
  150.6405  134.2660  190.5068 H   0  0  0  0  0  0  0  0  0  0  0  0
  150.7651  134.2511  192.6373 C   0  0  0  0  0  0  0  0  0  0  0  0
  151.5250  133.2829  193.2031 C   0  0  0  0  0  0  0  0  0  0  0  0
  152.1856  133.4560  194.4134 C   0  0  0  0  0  0  0  0  0  0  0  0
  152.0512  134.6655  195.0498 C   0  0  0  0  0  0  0  0  0  0  0  0
  152.6609  134.9389  196.2516 F   0  0  0  0  0  0  0  0  0  0  0  0
  151.2892  135.6626  194.5010 C   0  0  0  0  0  0  0  0  0  0  0  0
  150.6563  135.4557  193.3117 C   0  0  0  0  0  0  0  0  0  0  0  0
  151.5404  137.3104  183.5573 O   0  0  0  0  0  0  0  0  0  0  0  0
  154.6127  139.8937  183.5612 C   0  0  0  0  0  0  0  0  0  0  0  0
  153.5387  138.9911  183.5439 C   0  0  0  0  0  0  0  0  0  0  0  0
  152.5648  139.1483  182.5779 C   0  0  0  0  0  0  0  0  0  0  0  0
  151.4835  138.2256  182.6056 C   0  0  0  0  0  0  0  0  0  0  0  0
  150.5284  138.4205  181.6443 C   0  0  0  0  0  0  0  0  0  0  0  0
  150.6474  139.4552  180.7339 C   0  0  0  0  0  0  0  0  0  0  0  0
  151.6801  140.3038  180.7406 N   0  0  0  0  0  0  0  0  0  0  0  0
  152.6374  140.1590  181.6541 C   0  0  0  0  0  0  0  0  0  0  0  0
  153.7162  141.0494  181.6890 C   0  0  0  0  0  0  0  0  0  0  0  0
  154.7085  140.9305  182.6328 C   0  0  0  0  0  0  0  0  0  0  0  0
  155.5522  138.6964  185.4271 C   0  0  0  0  0  0  0  0  0  0  0  0
  155.6077  139.7709  184.5108 O   0  0  0  0  0  0  0  0  0  0  0  0
  155.7801  141.7444  182.7349 O   0  0  0  0  0  0  0  0  0  0  0  0
  157.0455  141.6976  182.2021 C   0  0  0  0  0  0  0  0  0  0  0  0
  158.1231  142.4423  182.9450 C   0  0  0  0  0  0  0  0  0  0  0  0
  158.6165  141.5342  184.0555 C   0  0  0  0  0  0  0  0  0  0  0  0
  159.5910  142.1086  184.8813 N   0  0  0  0  0  0  0  0  0  0  0  0
  159.4008  142.0880  186.2720 C   0  0  0  0  0  0  0  0  0  0  0  0
  160.5107  142.6507  187.0785 C   0  0  0  0  0  0  0  0  0  0  0  0
  161.8083  142.8142  186.3589 C   0  0  0  0  0  0  0  0  0  0  0  0
  161.6850  143.1970  184.9175 C   0  0  0  0  0  0  0  0  0  0  0  0
  160.2436  143.3015  184.4603 C   0  0  0  0  0  0  0  0  0  0  0  0
 37 38  1  0  0  0
 38 27  1  0  0  0
 27 28  2  0  0  0
 28 29  1  0  0  0
 29 30  2  0  0  0
 30 26  1  0  0  0
 26  1  1  0  0  0
  1  2  2  0  0  0
  2  3  1  0  0  0
  3  4  2  0  0  0
  4  8  1  0  0  0
  8  9  1  0  0  0
  9 10  2  0  0  0
  9 12  1  0  0  0
 12 13  1  0  0  0
 13 14  1  0  0  0
 12 15  1  0  0  0
 15 16  2  0  0  0
 15 17  1  0  0  0
 17 19  1  0  0  0
 19 20  2  0  0  0
 20 21  1  0  0  0
 21 22  2  0  0  0
 22 23  1  0  0  0
 22 24  1  0  0  0
 24 25  2  0  0  0
  4  5  1  0  0  0
  5  6  2  0  0  0
  6  7  1  0  0  0
 30 31  1  0  0  0
 31 32  2  0  0  0
 32 33  1  0  0  0
 33 34  2  0  0  0
 34 35  1  0  0  0
 35 36  2  0  0  0
 36 39  1  0  0  0
 39 40  1  0  0  0
 40 41  1  0  0  0
 41 42  1  0  0  0
 42 43  1  0  0  0
 43 44  1  0  0  0
 44 45  1  0  0  0
 45 46  1  0  0  0
 46 47  1  0  0  0
 47 48  1  0  0  0
 36 27  1  0  0  0
 48 43  1  0  0  0
 34 29  1  0  0  0
  6  1  1  0  0  0
 14 12  1  0  0  0
 25 19  1  0  0  0
  8 11  1  0  0  0
 17 18  1  0  0  0
M  END
> <minimizedAffinity>
-7.96276

> <CNNscore>
0.1553011835

> <CNNaffinity>
6.4885511398

> <CNN_VS>
1.0076797009

> <CNNaffinity_variance>
0.1927857399

$$$$
[H]c1nc2c([H])c(OC([H])([H])C([H])([H])C([H])([H])N3C([H])([H])C([H])([H])C([H])([H])C([H])([H])C3([H])[H])c(OC([H])([H])[H])c([H])c2c(Oc2c([H])c([H])c(N([H])C(=O)C3(C(=O)N([H])c4c([H])c([H])c(F)c([H])c4[H])C([H])([H])C3([H])[H])c([H])c2F)c1[H]


 48 53  0  0  0  0  0  0  0  0999 V2000
  152.3970  139.5395  182.2149 C   0  0  0  0  0  0  0  0  0  0  0  0
  152.6157  140.7735  181.6474 C   0  0  0  0  0  0  0  0  0  0  0  0
  153.7653  141.5312  181.8798 C   0  0  0  0  0  0  0  0  0  0  0  0
  154.7639  141.0665  182.7110 C   0  0  0  0  0  0  0  0  0  0  0  0
  154.5609  139.8387  183.2841 C   0  0  0  0  0  0  0  0  0  0  0  0
  153.4366  139.0862  183.0638 C   0  0  0  0  0  0  0  0  0  0  0  0
  153.2948  137.8849  183.6653 F   0  0  0  0  0  0  0  0  0  0  0  0
  155.9529  141.8308  182.8877 N   0  0  0  0  0  0  0  0  0  0  0  0
  157.0904  141.7961  182.0921 C   0  0  0  0  0  0  0  0  0  0  0  0
  157.1786  141.0072  181.1186 O   0  0  0  0  0  0  0  0  0  0  0  0
  155.9560  142.4559  183.7622 H   0  0  0  0  0  0  0  0  0  0  0  0
  158.2522  142.6636  182.3509 C   0  0  0  0  0  0  0  0  0  0  0  0
  159.0967  143.0524  181.1758 C   0  0  0  0  0  0  0  0  0  0  0  0
  158.2224  144.0583  181.7726 C   0  0  0  0  0  0  0  0  0  0  0  0
  158.9898  142.4650  183.6197 C   0  0  0  0  0  0  0  0  0  0  0  0
  158.3888  141.8153  184.5248 O   0  0  0  0  0  0  0  0  0  0  0  0
  160.2873  142.9582  183.8102 N   0  0  0  0  0  0  0  0  0  0  0  0
  160.7220  143.4091  182.9296 H   0  0  0  0  0  0  0  0  0  0  0  0
  161.0831  142.8732  184.9636 C   0  0  0  0  0  0  0  0  0  0  0  0
  160.7044  143.2338  186.2133 C   0  0  0  0  0  0  0  0  0  0  0  0
  161.5433  143.1211  187.3155 C   0  0  0  0  0  0  0  0  0  0  0  0
  162.8063  142.6218  187.1115 C   0  0  0  0  0  0  0  0  0  0  0  0
  163.7143  142.4716  188.1331 F   0  0  0  0  0  0  0  0  0  0  0  0
  163.2161  142.2492  185.8589 C   0  0  0  0  0  0  0  0  0  0  0  0
  162.3647  142.3741  184.8018 C   0  0  0  0  0  0  0  0  0  0  0  0
  151.3259  138.7652  182.0405 O   0  0  0  0  0  0  0  0  0  0  0  0
  149.2496  135.4651  182.9946 C   0  0  0  0  0  0  0  0  0  0  0  0
  149.9624  136.6244  182.6537 C   0  0  0  0  0  0  0  0  0  0  0  0
  149.7182  137.2079  181.4264 C   0  0  0  0  0  0  0  0  0  0  0  0
  150.4742  138.3698  181.1104 C   0  0  0  0  0  0  0  0  0  0  0  0
  150.2185  138.9127  179.8799 C   0  0  0  0  0  0  0  0  0  0  0  0
  149.2847  138.3368  179.0372 C   0  0  0  0  0  0  0  0  0  0  0  0
  148.5938  137.2423  179.3703 N   0  0  0  0  0  0  0  0  0  0  0  0
  148.8033  136.6742  180.5557 C   0  0  0  0  0  0  0  0  0  0  0  0
  148.1034  135.5167  180.9142 C   0  0  0  0  0  0  0  0  0  0  0  0
  148.3144  134.9026  182.1257 C   0  0  0  0  0  0  0  0  0  0  0  0
  149.9070  135.6304  185.3050 C   0  0  0  0  0  0  0  0  0  0  0  0
  149.4641  134.8509  184.2126 O   0  0  0  0  0  0  0  0  0  0  0  0
  147.6825  133.7872  182.5475 O   0  0  0  0  0  0  0  0  0  0  0  0
  146.6335  133.5742  183.4085 C   0  0  0  0  0  0  0  0  0  0  0  0
  145.5995  134.6650  183.5022 C   0  0  0  0  0  0  0  0  0  0  0  0
  145.9165  135.4831  184.7398 C   0  0  0  0  0  0  0  0  0  0  0  0
  146.2999  136.8040  184.4764 N   0  0  0  0  0  0  0  0  0  0  0  0
  146.7962  137.5898  185.5285 C   0  0  0  0  0  0  0  0  0  0  0  0
  147.2475  138.9515  185.1530 C   0  0  0  0  0  0  0  0  0  0  0  0
  147.4663  139.1756  183.6935 C   0  0  0  0  0  0  0  0  0  0  0  0
  146.5169  138.4465  182.7954 C   0  0  0  0  0  0  0  0  0  0  0  0
  145.5359  137.5800  183.5596 C   0  0  0  0  0  0  0  0  0  0  0  0
 37 38  1  0  0  0
 38 27  1  0  0  0
 27 28  2  0  0  0
 28 29  1  0  0  0
 29 30  2  0  0  0
 30 26  1  0  0  0
 26  1  1  0  0  0
  1  2  2  0  0  0
  2  3  1  0  0  0
  3  4  2  0  0  0
  4  8  1  0  0  0
  8  9  1  0  0  0
  9 10  2  0  0  0
  9 12  1  0  0  0
 12 13  1  0  0  0
 13 14  1  0  0  0
 12 15  1  0  0  0
 15 16  2  0  0  0
 15 17  1  0  0  0
 17 19  1  0  0  0
 19 20  2  0  0  0
 20 21  1  0  0  0
 21 22  2  0  0  0
 22 23  1  0  0  0
 22 24  1  0  0  0
 24 25  2  0  0  0
  4  5  1  0  0  0
  5  6  2  0  0  0
  6  7  1  0  0  0
 30 31  1  0  0  0
 31 32  2  0  0  0
 32 33  1  0  0  0
 33 34  2  0  0  0
 34 35  1  0  0  0
 35 36  2  0  0  0
 36 39  1  0  0  0
 39 40  1  0  0  0
 40 41  1  0  0  0
 41 42  1  0  0  0
 42 43  1  0  0  0
 43 44  1  0  0  0
 44 45  1  0  0  0
 45 46  1  0  0  0
 46 47  1  0  0  0
 47 48  1  0  0  0
 36 27  1  0  0  0
 48 43  1  0  0  0
 34 29  1  0  0  0
  6  1  1  0  0  0
 14 12  1  0  0  0
 25 19  1  0  0  0
  8 11  1  0  0  0
 17 18  1  0  0  0
M  END
> <minimizedAffinity>
-9.05891

> <CNNscore>
0.1314319819

> <CNNaffinity>
6.6555161476

> <CNN_VS>
0.8747476935

> <CNNaffinity_variance>
0.2070452422

$$$$
[H]c1nc2c([H])c(OC([H])([H])C([H])([H])C([H])([H])N3C([H])([H])C([H])([H])C([H])([H])C([H])([H])C3([H])[H])c(OC([H])([H])[H])c([H])c2c(Oc2c([H])c([H])c(N([H])C(=O)C3(C(=O)N([H])c4c([H])c([H])c(F)c([H])c4[H])C([H])([H])C3([H])[H])c([H])c2F)c1[H]


 48 53  0  0  0  0  0  0  0  0999 V2000
  152.4018  139.1621  182.3432 C   0  0  0  0  0  0  0  0  0  0  0  0
  153.3916  138.9108  183.2649 C   0  0  0  0  0  0  0  0  0  0  0  0
  154.5063  139.7340  183.4364 C   0  0  0  0  0  0  0  0  0  0  0  0
  154.6730  140.8693  182.6700 C   0  0  0  0  0  0  0  0  0  0  0  0
  153.6954  141.1334  181.7470 C   0  0  0  0  0  0  0  0  0  0  0  0
  152.5972  140.3326  181.5695 C   0  0  0  0  0  0  0  0  0  0  0  0
  151.6718  140.6461  180.6366 F   0  0  0  0  0  0  0  0  0  0  0  0
  155.7882  141.7245  182.9020 N   0  0  0  0  0  0  0  0  0  0  0  0
  156.9330  141.8290  182.1231 C   0  0  0  0  0  0  0  0  0  0  0  0
  157.1008  141.1005  181.1136 O   0  0  0  0  0  0  0  0  0  0  0  0
  155.7270  142.3029  183.8060 H   0  0  0  0  0  0  0  0  0  0  0  0
  158.0112  142.7804  182.4417 C   0  0  0  0  0  0  0  0  0  0  0  0
  158.6500  143.5060  181.2968 C   0  0  0  0  0  0  0  0  0  0  0  0
  157.7491  144.2440  182.1776 C   0  0  0  0  0  0  0  0  0  0  0  0
  158.9215  142.4394  183.5591 C   0  0  0  0  0  0  0  0  0  0  0  0
  158.5640  141.4804  184.3041 O   0  0  0  0  0  0  0  0  0  0  0  0
  160.1203  143.1306  183.7787 N   0  0  0  0  0  0  0  0  0  0  0  0
  160.3547  143.8608  183.0173 H   0  0  0  0  0  0  0  0  0  0  0  0
  161.0524  142.9373  184.8104 C   0  0  0  0  0  0  0  0  0  0  0  0
  162.2863  142.3965  184.6695 C   0  0  0  0  0  0  0  0  0  0  0  0
  163.1635  142.2354  185.7353 C   0  0  0  0  0  0  0  0  0  0  0  0
  162.7456  142.6467  186.9772 C   0  0  0  0  0  0  0  0  0  0  0  0
  163.5346  142.5305  188.0972 F   0  0  0  0  0  0  0  0  0  0  0  0
  161.5032  143.1971  187.1492 C   0  0  0  0  0  0  0  0  0  0  0  0
  160.6705  143.3392  186.0795 C   0  0  0  0  0  0  0  0  0  0  0  0
  151.3156  138.4208  182.1241 O   0  0  0  0  0  0  0  0  0  0  0  0
  150.1272  136.2454  185.2814 C   0  0  0  0  0  0  0  0  0  0  0  0
  150.5312  137.0164  184.1810 C   0  0  0  0  0  0  0  0  0  0  0  0
  149.5607  137.6597  183.4387 C   0  0  0  0  0  0  0  0  0  0  0  0
  150.0087  138.4152  182.3207 C   0  0  0  0  0  0  0  0  0  0  0  0
  149.0193  139.0261  181.5980 C   0  0  0  0  0  0  0  0  0  0  0  0
  147.6927  138.8884  181.9652 C   0  0  0  0  0  0  0  0  0  0  0  0
  147.3106  138.1677  183.0240 N   0  0  0  0  0  0  0  0  0  0  0  0
  148.2325  137.5531  183.7617 C   0  0  0  0  0  0  0  0  0  0  0  0
  147.8501  136.7783  184.8625 C   0  0  0  0  0  0  0  0  0  0  0  0
  148.7822  136.1208  185.6296 C   0  0  0  0  0  0  0  0  0  0  0  0
  152.3021  136.2190  186.3142 C   0  0  0  0  0  0  0  0  0  0  0  0
  151.0664  135.5863  186.0497 O   0  0  0  0  0  0  0  0  0  0  0  0
  148.4981  135.3562  186.7047 O   0  0  0  0  0  0  0  0  0  0  0  0
  147.6570  135.5249  187.7777 C   0  0  0  0  0  0  0  0  0  0  0  0
  148.2968  135.8867  189.0920 C   0  0  0  0  0  0  0  0  0  0  0  0
  149.6612  135.2243  189.1279 C   0  0  0  0  0  0  0  0  0  0  0  0
  150.4719  135.6292  190.1956 N   0  0  0  0  0  0  0  0  0  0  0  0
  151.8658  135.6269  190.0289 C   0  0  0  0  0  0  0  0  0  0  0  0
  152.6492  136.1375  191.1797 C   0  0  0  0  0  0  0  0  0  0  0  0
  151.8737  136.9183  192.1883 C   0  0  0  0  0  0  0  0  0  0  0  0
  150.4727  136.4422  192.4114 C   0  0  0  0  0  0  0  0  0  0  0  0
  150.1035  135.2708  191.5231 C   0  0  0  0  0  0  0  0  0  0  0  0
 37 38  1  0  0  0
 38 27  1  0  0  0
 27 28  2  0  0  0
 28 29  1  0  0  0
 29 30  2  0  0  0
 30 26  1  0  0  0
 26  1  1  0  0  0
  1  2  2  0  0  0
  2  3  1  0  0  0
  3  4  2  0  0  0
  4  8  1  0  0  0
  8  9  1  0  0  0
  9 10  2  0  0  0
  9 12  1  0  0  0
 12 13  1  0  0  0
 13 14  1  0  0  0
 12 15  1  0  0  0
 15 16  2  0  0  0
 15 17  1  0  0  0
 17 19  1  0  0  0
 19 20  2  0  0  0
 20 21  1  0  0  0
 21 22  2  0  0  0
 22 23  1  0  0  0
 22 24  1  0  0  0
 24 25  2  0  0  0
  4  5  1  0  0  0
  5  6  2  0  0  0
  6  7  1  0  0  0
 30 31  1  0  0  0
 31 32  2  0  0  0
 32 33  1  0  0  0
 33 34  2  0  0  0
 34 35  1  0  0  0
 35 36  2  0  0  0
 36 39  1  0  0  0
 39 40  1  0  0  0
 40 41  1  0  0  0
 41 42  1  0  0  0
 42 43  1  0  0  0
 43 44  1  0  0  0
 44 45  1  0  0  0
 45 46  1  0  0  0
 46 47  1  0  0  0
 47 48  1  0  0  0
 36 27  1  0  0  0
 48 43  1  0  0  0
 34 29  1  0  0  0
  6  1  1  0  0  0
 14 12  1  0  0  0
 25 19  1  0  0  0
  8 11  1  0  0  0
 17 18  1  0  0  0
M  END
> <minimizedAffinity>
-9.68781

> <CNNscore>
0.1292247474

> <CNNaffinity>
6.5400695801

> <CNN_VS>
0.8451388478

> <CNNaffinity_variance>
0.3068648875

$$$$
[H]c1nc2c([H])c(OC([H])([H])C([H])([H])C([H])([H])N3C([H])([H])C([H])([H])C([H])([H])C([H])([H])C3([H])[H])c(OC([H])([H])[H])c([H])c2c(Oc2c([H])c([H])c(N([H])C(=O)C3(C(=O)N([H])c4c([H])c([H])c(F)c([H])c4[H])C([H])([H])C3([H])[H])c([H])c2F)c1[H]


 48 53  0  0  0  0  0  0  0  0999 V2000
  153.0719  139.2714  183.0321 C   0  0  0  0  0  0  0  0  0  0  0  0
  153.0775  140.3115  182.1317 C   0  0  0  0  0  0  0  0  0  0  0  0
  154.1499  141.1940  181.9865 C   0  0  0  0  0  0  0  0  0  0  0  0
  155.2856  141.0615  182.7589 C   0  0  0  0  0  0  0  0  0  0  0  0
  155.2954  140.0302  183.6608 C   0  0  0  0  0  0  0  0  0  0  0  0
  154.2488  139.1582  183.8125 C   0  0  0  0  0  0  0  0  0  0  0  0
  154.3191  138.1650  184.7256 F   0  0  0  0  0  0  0  0  0  0  0  0
  156.3896  141.9379  182.5533 N   0  0  0  0  0  0  0  0  0  0  0  0
  157.4606  141.7393  181.6921 C   0  0  0  0  0  0  0  0  0  0  0  0
  157.5648  140.6851  181.0170 O   0  0  0  0  0  0  0  0  0  0  0  0
  156.3872  142.8131  183.1774 H   0  0  0  0  0  0  0  0  0  0  0  0
  158.5320  142.7375  181.5338 C   0  0  0  0  0  0  0  0  0  0  0  0
  159.2755  142.7494  180.2329 C   0  0  0  0  0  0  0  0  0  0  0  0
  158.3253  143.8241  180.5056 C   0  0  0  0  0  0  0  0  0  0  0  0
  159.3434  143.0706  182.7271 C   0  0  0  0  0  0  0  0  0  0  0  0
  159.3529  144.2863  183.0802 O   0  0  0  0  0  0  0  0  0  0  0  0
  160.0560  142.0956  183.4375 N   0  0  0  0  0  0  0  0  0  0  0  0
  159.8873  141.0858  183.0914 H   0  0  0  0  0  0  0  0  0  0  0  0
  160.8856  142.2750  184.5556 C   0  0  0  0  0  0  0  0  0  0  0  0
  162.2354  142.1615  184.5644 C   0  0  0  0  0  0  0  0  0  0  0  0
  162.9994  142.3553  185.7090 C   0  0  0  0  0  0  0  0  0  0  0  0
  162.3421  142.6742  186.8719 C   0  0  0  0  0  0  0  0  0  0  0  0
  163.0030  142.8844  188.0593 F   0  0  0  0  0  0  0  0  0  0  0  0
  160.9780  142.7957  186.8925 C   0  0  0  0  0  0  0  0  0  0  0  0
  160.2624  142.5984  185.7493 C   0  0  0  0  0  0  0  0  0  0  0  0
  152.0856  138.3956  183.2256 O   0  0  0  0  0  0  0  0  0  0  0  0
  153.3530  134.7436  182.1443 C   0  0  0  0  0  0  0  0  0  0  0  0
  152.8955  136.0141  182.5250 C   0  0  0  0  0  0  0  0  0  0  0  0
  151.6098  136.3796  182.1786 C   0  0  0  0  0  0  0  0  0  0  0  0
  151.1902  137.6817  182.5658 C   0  0  0  0  0  0  0  0  0  0  0  0
  149.9165  138.0169  182.1923 C   0  0  0  0  0  0  0  0  0  0  0  0
  149.1313  137.1218  181.4881 C   0  0  0  0  0  0  0  0  0  0  0  0
  149.5624  135.9051  181.1412 N   0  0  0  0  0  0  0  0  0  0  0  0
  150.7932  135.5281  181.4799 C   0  0  0  0  0  0  0  0  0  0  0  0
  151.2689  134.2656  181.1087 C   0  0  0  0  0  0  0  0  0  0  0  0
  152.5417  133.8599  181.4324 C   0  0  0  0  0  0  0  0  0  0  0  0
  154.9207  133.9937  183.8109 C   0  0  0  0  0  0  0  0  0  0  0  0
  154.6323  134.3395  182.4714 O   0  0  0  0  0  0  0  0  0  0  0  0
  153.0759  132.6622  181.1139 O   0  0  0  0  0  0  0  0  0  0  0  0
  152.9936  131.4174  181.6893 C   0  0  0  0  0  0  0  0  0  0  0  0
  154.0384  130.4115  181.2841 C   0  0  0  0  0  0  0  0  0  0  0  0
  155.3165  130.7657  182.0206 C   0  0  0  0  0  0  0  0  0  0  0  0
  156.3811  131.1307  181.1871 N   0  0  0  0  0  0  0  0  0  0  0  0
  157.3015  132.0886  181.6412 C   0  0  0  0  0  0  0  0  0  0  0  0
  158.4385  132.3660  180.7306 C   0  0  0  0  0  0  0  0  0  0  0  0
  158.6625  131.3539  179.6565 C   0  0  0  0  0  0  0  0  0  0  0  0
  157.4166  130.7370  179.1030 C   0  0  0  0  0  0  0  0  0  0  0  0
  156.1604  131.2410  179.7852 C   0  0  0  0  0  0  0  0  0  0  0  0
 37 38  1  0  0  0
 38 27  1  0  0  0
 27 28  2  0  0  0
 28 29  1  0  0  0
 29 30  2  0  0  0
 30 26  1  0  0  0
 26  1  1  0  0  0
  1  2  2  0  0  0
  2  3  1  0  0  0
  3  4  2  0  0  0
  4  8  1  0  0  0
  8  9  1  0  0  0
  9 10  2  0  0  0
  9 12  1  0  0  0
 12 13  1  0  0  0
 13 14  1  0  0  0
 12 15  1  0  0  0
 15 16  2  0  0  0
 15 17  1  0  0  0
 17 19  1  0  0  0
 19 20  2  0  0  0
 20 21  1  0  0  0
 21 22  2  0  0  0
 22 23  1  0  0  0
 22 24  1  0  0  0
 24 25  2  0  0  0
  4  5  1  0  0  0
  5  6  2  0  0  0
  6  7  1  0  0  0
 30 31  1  0  0  0
 31 32  2  0  0  0
 32 33  1  0  0  0
 33 34  2  0  0  0
 34 35  1  0  0  0
 35 36  2  0  0  0
 36 39  1  0  0  0
 39 40  1  0  0  0
 40 41  1  0  0  0
 41 42  1  0  0  0
 42 43  1  0  0  0
 43 44  1  0  0  0
 44 45  1  0  0  0
 45 46  1  0  0  0
 46 47  1  0  0  0
 47 48  1  0  0  0
 36 27  1  0  0  0
 48 43  1  0  0  0
 34 29  1  0  0  0
  6  1  1  0  0  0
 14 12  1  0  0  0
 25 19  1  0  0  0
  8 11  1  0  0  0
 17 18  1  0  0  0
M  END
> <minimizedAffinity>
-9.46145

> <CNNscore>
0.1093607247

> <CNNaffinity>
6.7349863052

> <CNN_VS>
0.7365429997

> <CNNaffinity_variance>
0.3475887179

$$$$
[H]c1nc2c([H])c(OC([H])([H])C([H])([H])C([H])([H])N3C([H])([H])C([H])([H])C([H])([H])C([H])([H])C3([H])[H])c(OC([H])([H])[H])c([H])c2c(Oc2c([H])c([H])c(N([H])C(=O)C3(C(=O)N([H])c4c([H])c([H])c(F)c([H])c4[H])C([H])([H])C3([H])[H])c([H])c2F)c1[H]


 48 53  0  0  0  0  0  0  0  0999 V2000
  153.4015  138.9257  183.4552 C   0  0  0  0  0  0  0  0  0  0  0  0
  153.3016  139.9609  182.5547 C   0  0  0  0  0  0  0  0  0  0  0  0
  154.3104  140.9060  182.3582 C   0  0  0  0  0  0  0  0  0  0  0  0
  155.4873  140.8454  183.0760 C   0  0  0  0  0  0  0  0  0  0  0  0
  155.6021  139.8199  183.9774 C   0  0  0  0  0  0  0  0  0  0  0  0
  154.6186  138.8867  184.1791 C   0  0  0  0  0  0  0  0  0  0  0  0
  154.7920  137.9030  185.0887 F   0  0  0  0  0  0  0  0  0  0  0  0
  156.5252  141.7862  182.8177 N   0  0  0  0  0  0  0  0  0  0  0  0
  157.5333  141.6736  181.8694 C   0  0  0  0  0  0  0  0  0  0  0  0
  157.6375  140.6489  181.1503 O   0  0  0  0  0  0  0  0  0  0  0  0
  156.5275  142.6393  183.4716 H   0  0  0  0  0  0  0  0  0  0  0  0
  158.5364  142.7325  181.6652 C   0  0  0  0  0  0  0  0  0  0  0  0
  159.2144  142.7908  180.3302 C   0  0  0  0  0  0  0  0  0  0  0  0
  158.2178  143.8078  180.6538 C   0  0  0  0  0  0  0  0  0  0  0  0
  159.3837  143.1093  182.8200 C   0  0  0  0  0  0  0  0  0  0  0  0
  159.5721  144.3482  182.9998 O   0  0  0  0  0  0  0  0  0  0  0  0
  159.9410  142.1512  183.6770 N   0  0  0  0  0  0  0  0  0  0  0  0
  159.6258  141.1382  183.4713 H   0  0  0  0  0  0  0  0  0  0  0  0
  160.7839  142.3642  184.7793 C   0  0  0  0  0  0  0  0  0  0  0  0
  160.3862  142.7516  186.0149 C   0  0  0  0  0  0  0  0  0  0  0  0
  161.2751  142.9424  187.0660 C   0  0  0  0  0  0  0  0  0  0  0  0
  162.6095  142.7254  186.8244 C   0  0  0  0  0  0  0  0  0  0  0  0
  163.5709  142.8876  187.7940 F   0  0  0  0  0  0  0  0  0  0  0  0
  163.0402  142.3331  185.5848 C   0  0  0  0  0  0  0  0  0  0  0  0
  162.1382  142.1558  184.5784 C   0  0  0  0  0  0  0  0  0  0  0  0
  152.4803  137.9926  183.6960 O   0  0  0  0  0  0  0  0  0  0  0  0
  151.7069  135.4852  186.7336 C   0  0  0  0  0  0  0  0  0  0  0  0
  151.9653  136.3550  185.6636 C   0  0  0  0  0  0  0  0  0  0  0  0
  151.8223  135.8737  184.3773 C   0  0  0  0  0  0  0  0  0  0  0  0
  152.1118  136.7800  183.3209 C   0  0  0  0  0  0  0  0  0  0  0  0
  151.9754  136.2652  182.0597 C   0  0  0  0  0  0  0  0  0  0  0  0
  151.5838  134.9513  181.8747 C   0  0  0  0  0  0  0  0  0  0  0  0
  151.3211  134.1288  182.8950 N   0  0  0  0  0  0  0  0  0  0  0  0
  151.4377  134.5788  184.1423 C   0  0  0  0  0  0  0  0  0  0  0  0
  151.1857  133.7269  185.2234 C   0  0  0  0  0  0  0  0  0  0  0  0
  151.3152  134.1635  186.5204 C   0  0  0  0  0  0  0  0  0  0  0  0
  152.6224  137.0742  188.2940 C   0  0  0  0  0  0  0  0  0  0  0  0
  151.8381  135.9275  188.0352 O   0  0  0  0  0  0  0  0  0  0  0  0
  151.0912  133.4086  187.6163 O   0  0  0  0  0  0  0  0  0  0  0  0
  149.9508  133.0729  188.3049 C   0  0  0  0  0  0  0  0  0  0  0  0
  149.2982  131.7653  187.9417 C   0  0  0  0  0  0  0  0  0  0  0  0
  150.3956  130.8260  187.4779 C   0  0  0  0  0  0  0  0  0  0  0  0
  150.1738  130.2560  186.2181 N   0  0  0  0  0  0  0  0  0  0  0  0
  149.0875  130.7056  185.4509 C   0  0  0  0  0  0  0  0  0  0  0  0
  148.9645  130.1043  184.1010 C   0  0  0  0  0  0  0  0  0  0  0  0
  150.1828  129.4045  183.5966 C   0  0  0  0  0  0  0  0  0  0  0  0
  150.9788  128.6920  184.6444 C   0  0  0  0  0  0  0  0  0  0  0  0
  150.4018  128.8628  186.0355 C   0  0  0  0  0  0  0  0  0  0  0  0
 37 38  1  0  0  0
 38 27  1  0  0  0
 27 28  2  0  0  0
 28 29  1  0  0  0
 29 30  2  0  0  0
 30 26  1  0  0  0
 26  1  1  0  0  0
  1  2  2  0  0  0
  2  3  1  0  0  0
  3  4  2  0  0  0
  4  8  1  0  0  0
  8  9  1  0  0  0
  9 10  2  0  0  0
  9 12  1  0  0  0
 12 13  1  0  0  0
 13 14  1  0  0  0
 12 15  1  0  0  0
 15 16  2  0  0  0
 15 17  1  0  0  0
 17 19  1  0  0  0
 19 20  2  0  0  0
 20 21  1  0  0  0
 21 22  2  0  0  0
 22 23  1  0  0  0
 22 24  1  0  0  0
 24 25  2  0  0  0
  4  5  1  0  0  0
  5  6  2  0  0  0
  6  7  1  0  0  0
 30 31  1  0  0  0
 31 32  2  0  0  0
 32 33  1  0  0  0
 33 34  2  0  0  0
 34 35  1  0  0  0
 35 36  2  0  0  0
 36 39  1  0  0  0
 39 40  1  0  0  0
 40 41  1  0  0  0
 41 42  1  0  0  0
 42 43  1  0  0  0
 43 44  1  0  0  0
 44 45  1  0  0  0
 45 46  1  0  0  0
 46 47  1  0  0  0
 47 48  1  0  0  0
 36 27  1  0  0  0
 48 43  1  0  0  0
 34 29  1  0  0  0
  6  1  1  0  0  0
 14 12  1  0  0  0
 25 19  1  0  0  0
  8 11  1  0  0  0
 17 18  1  0  0  0
M  END
> <minimizedAffinity>
-7.81740

> <CNNscore>
0.1047058553

> <CNNaffinity>
6.8485350609

> <CNN_VS>
0.7170817256

> <CNNaffinity_variance>
0.3066278696

$$$$
[H]c1nc2c([H])c(OC([H])([H])C([H])([H])C([H])([H])N3C([H])([H])C([H])([H])C([H])([H])C([H])([H])C3([H])[H])c(OC([H])([H])[H])c([H])c2c(Oc2c([H])c([H])c(N([H])C(=O)C3(C(=O)N([H])c4c([H])c([H])c(F)c([H])c4[H])C([H])([H])C3([H])[H])c([H])c2F)c1[H]


 48 53  0  0  0  0  0  0  0  0999 V2000
  153.1338  139.2118  183.1110 C   0  0  0  0  0  0  0  0  0  0  0  0
  154.3163  139.1353  183.8099 C   0  0  0  0  0  0  0  0  0  0  0  0
  155.3942  139.9950  183.5892 C   0  0  0  0  0  0  0  0  0  0  0  0
  155.3232  140.9893  182.6351 C   0  0  0  0  0  0  0  0  0  0  0  0
  154.1517  141.0786  181.9302 C   0  0  0  0  0  0  0  0  0  0  0  0
  153.0874  140.2402  182.1377 C   0  0  0  0  0  0  0  0  0  0  0  0
  151.9616  140.3773  181.4036 F   0  0  0  0  0  0  0  0  0  0  0  0
  156.4134  141.8908  182.4674 N   0  0  0  0  0  0  0  0  0  0  0  0
  157.5215  141.7135  181.6497 C   0  0  0  0  0  0  0  0  0  0  0  0
  157.6769  140.6587  180.9855 O   0  0  0  0  0  0  0  0  0  0  0  0
  156.3659  142.7688  183.0856 H   0  0  0  0  0  0  0  0  0  0  0  0
  158.5744  142.7361  181.5273 C   0  0  0  0  0  0  0  0  0  0  0  0
  159.3710  142.7560  180.2582 C   0  0  0  0  0  0  0  0  0  0  0  0
  158.3848  143.8093  180.4819 C   0  0  0  0  0  0  0  0  0  0  0  0
  159.3272  143.0981  182.7503 C   0  0  0  0  0  0  0  0  0  0  0  0
  159.3917  144.3316  183.0275 O   0  0  0  0  0  0  0  0  0  0  0  0
  159.9289  142.1311  183.5664 N   0  0  0  0  0  0  0  0  0  0  0  0
  159.7186  141.1126  183.2726 H   0  0  0  0  0  0  0  0  0  0  0  0
  160.6948  142.3340  184.7252 C   0  0  0  0  0  0  0  0  0  0  0  0
  160.2073  142.6449  185.9503 C   0  0  0  0  0  0  0  0  0  0  0  0
  161.0232  142.8303  187.0599 C   0  0  0  0  0  0  0  0  0  0  0  0
  162.3786  142.6892  186.8897 C   0  0  0  0  0  0  0  0  0  0  0  0
  163.2730  142.8533  187.9211 F   0  0  0  0  0  0  0  0  0  0  0  0
  162.8995  142.3752  185.6624 C   0  0  0  0  0  0  0  0  0  0  0  0
  162.0672  142.2007  184.5971 C   0  0  0  0  0  0  0  0  0  0  0  0
  152.0686  138.4254  183.2665 O   0  0  0  0  0  0  0  0  0  0  0  0
  152.8532  134.6979  182.0006 C   0  0  0  0  0  0  0  0  0  0  0  0
  152.5638  135.9966  182.4456 C   0  0  0  0  0  0  0  0  0  0  0  0
  151.3343  136.5398  182.1297 C   0  0  0  0  0  0  0  0  0  0  0  0
  151.0867  137.8646  182.5823 C   0  0  0  0  0  0  0  0  0  0  0  0
  149.8651  138.3777  182.2378 C   0  0  0  0  0  0  0  0  0  0  0  0
  148.9689  137.6255  181.4996 C   0  0  0  0  0  0  0  0  0  0  0  0
  149.2392  136.3819  181.0912 N   0  0  0  0  0  0  0  0  0  0  0  0
  150.4128  135.8346  181.3994 C   0  0  0  0  0  0  0  0  0  0  0  0
  150.7212  134.5410  180.9640 C   0  0  0  0  0  0  0  0  0  0  0  0
  151.9327  133.9606  181.2555 C   0  0  0  0  0  0  0  0  0  0  0  0
  154.6263  134.3052  183.5816 C   0  0  0  0  0  0  0  0  0  0  0  0
  154.0713  134.1181  182.2955 O   0  0  0  0  0  0  0  0  0  0  0  0
  152.3077  132.7213  180.8753 O   0  0  0  0  0  0  0  0  0  0  0  0
  152.4873  131.5453  181.5624 C   0  0  0  0  0  0  0  0  0  0  0  0
  151.5386  131.2713  182.6993 C   0  0  0  0  0  0  0  0  0  0  0  0
  152.0527  130.0461  183.4315 C   0  0  0  0  0  0  0  0  0  0  0  0
  153.0570  130.3132  184.3702 N   0  0  0  0  0  0  0  0  0  0  0  0
  154.2274  129.5382  184.3518 C   0  0  0  0  0  0  0  0  0  0  0  0
  155.2710  129.9310  185.3293 C   0  0  0  0  0  0  0  0  0  0  0  0
  155.1106  131.2887  185.9286 C   0  0  0  0  0  0  0  0  0  0  0  0
  153.6940  131.7103  186.1627 C   0  0  0  0  0  0  0  0  0  0  0  0
  152.6900  130.6746  185.6973 C   0  0  0  0  0  0  0  0  0  0  0  0
 37 38  1  0  0  0
 38 27  1  0  0  0
 27 28  2  0  0  0
 28 29  1  0  0  0
 29 30  2  0  0  0
 30 26  1  0  0  0
 26  1  1  0  0  0
  1  2  2  0  0  0
  2  3  1  0  0  0
  3  4  2  0  0  0
  4  8  1  0  0  0
  8  9  1  0  0  0
  9 10  2  0  0  0
  9 12  1  0  0  0
 12 13  1  0  0  0
 13 14  1  0  0  0
 12 15  1  0  0  0
 15 16  2  0  0  0
 15 17  1  0  0  0
 17 19  1  0  0  0
 19 20  2  0  0  0
 20 21  1  0  0  0
 21 22  2  0  0  0
 22 23  1  0  0  0
 22 24  1  0  0  0
 24 25  2  0  0  0
  4  5  1  0  0  0
  5  6  2  0  0  0
  6  7  1  0  0  0
 30 31  1  0  0  0
 31 32  2  0  0  0
 32 33  1  0  0  0
 33 34  2  0  0  0
 34 35  1  0  0  0
 35 36  2  0  0  0
 36 39  1  0  0  0
 39 40  1  0  0  0
 40 41  1  0  0  0
 41 42  1  0  0  0
 42 43  1  0  0  0
 43 44  1  0  0  0
 44 45  1  0  0  0
 45 46  1  0  0  0
 46 47  1  0  0  0
 47 48  1  0  0  0
 36 27  1  0  0  0
 48 43  1  0  0  0
 34 29  1  0  0  0
  6  1  1  0  0  0
 14 12  1  0  0  0
 25 19  1  0  0  0
  8 11  1  0  0  0
 17 18  1  0  0  0
M  END
> <minimizedAffinity>
-8.34068

> <CNNscore>
0.1044655517

> <CNNaffinity>
6.7268877029

> <CNN_VS>
0.7027280331

> <CNNaffinity_variance>
0.1849371791

$$$$
[H]c1nc2c([H])c(OC([H])([H])C([H])([H])C([H])([H])N3C([H])([H])C([H])([H])C([H])([H])C([H])([H])C3([H])[H])c(OC([H])([H])[H])c([H])c2c(Oc2c([H])c([H])c(N([H])C(=O)C3(C(=O)N([H])c4c([H])c([H])c(F)c([H])c4[H])C([H])([H])C3([H])[H])c([H])c2F)c1[H]


 48 53  0  0  0  0  0  0  0  0999 V2000
  153.2231  138.5369  183.4586 C   0  0  0  0  0  0  0  0  0  0  0  0
  153.0265  139.5636  182.5644 C   0  0  0  0  0  0  0  0  0  0  0  0
  153.9631  140.5746  182.3400 C   0  0  0  0  0  0  0  0  0  0  0  0
  155.1628  140.5927  183.0216 C   0  0  0  0  0  0  0  0  0  0  0  0
  155.3736  139.5766  183.9162 C   0  0  0  0  0  0  0  0  0  0  0  0
  154.4616  138.5793  184.1451 C   0  0  0  0  0  0  0  0  0  0  0  0
  154.7283  137.6088  185.0463 F   0  0  0  0  0  0  0  0  0  0  0  0
  156.1268  141.6013  182.7345 N   0  0  0  0  0  0  0  0  0  0  0  0
  157.3037  141.4466  182.0140 C   0  0  0  0  0  0  0  0  0  0  0  0
  157.6499  140.3244  181.5683 O   0  0  0  0  0  0  0  0  0  0  0  0
  155.9148  142.5595  183.1732 H   0  0  0  0  0  0  0  0  0  0  0  0
  158.2110  142.5756  181.7468 C   0  0  0  0  0  0  0  0  0  0  0  0
  158.7552  142.7078  180.3570 C   0  0  0  0  0  0  0  0  0  0  0  0
  157.7285  143.6475  180.7987 C   0  0  0  0  0  0  0  0  0  0  0  0
  159.1362  142.9853  182.8282 C   0  0  0  0  0  0  0  0  0  0  0  0
  159.4819  144.2030  182.8425 O   0  0  0  0  0  0  0  0  0  0  0  0
  159.5994  142.0807  183.7927 N   0  0  0  0  0  0  0  0  0  0  0  0
  159.1549  141.0979  183.7257 H   0  0  0  0  0  0  0  0  0  0  0  0
  160.4983  142.3230  184.8434 C   0  0  0  0  0  0  0  0  0  0  0  0
  160.1605  142.6774  186.1065 C   0  0  0  0  0  0  0  0  0  0  0  0
  161.1032  142.9005  187.1029 C   0  0  0  0  0  0  0  0  0  0  0  0
  162.4288  142.7517  186.7762 C   0  0  0  0  0  0  0  0  0  0  0  0
  163.4400  142.9507  187.6864 F   0  0  0  0  0  0  0  0  0  0  0  0
  162.7994  142.3942  185.5070 C   0  0  0  0  0  0  0  0  0  0  0  0
  161.8458  142.1835  184.5561 C   0  0  0  0  0  0  0  0  0  0  0  0
  152.3745  137.5437  183.7247 O   0  0  0  0  0  0  0  0  0  0  0  0
  152.2551  136.0069  187.4309 C   0  0  0  0  0  0  0  0  0  0  0  0
  152.2838  136.5526  186.1387 C   0  0  0  0  0  0  0  0  0  0  0  0
  151.0832  136.7822  185.4965 C   0  0  0  0  0  0  0  0  0  0  0  0
  151.1550  137.3180  184.1815 C   0  0  0  0  0  0  0  0  0  0  0  0
  149.9473  137.5178  183.5686 C   0  0  0  0  0  0  0  0  0  0  0  0
  148.7676  137.2043  184.2196 C   0  0  0  0  0  0  0  0  0  0  0  0
  148.7412  136.7007  185.4574 N   0  0  0  0  0  0  0  0  0  0  0  0
  149.8876  136.4871  186.0993 C   0  0  0  0  0  0  0  0  0  0  0  0
  149.8806  135.9424  187.3882 C   0  0  0  0  0  0  0  0  0  0  0  0
  151.0517  135.6974  188.0649 C   0  0  0  0  0  0  0  0  0  0  0  0
  154.5722  135.3542  187.3765 C   0  0  0  0  0  0  0  0  0  0  0  0
  153.4337  135.7622  188.1076 O   0  0  0  0  0  0  0  0  0  0  0  0
  151.1324  135.1762  189.3071 O   0  0  0  0  0  0  0  0  0  0  0  0
  150.6533  135.5865  190.5276 C   0  0  0  0  0  0  0  0  0  0  0  0
  151.5004  136.5669  191.2950 C   0  0  0  0  0  0  0  0  0  0  0  0
  152.7204  135.8160  191.7943 C   0  0  0  0  0  0  0  0  0  0  0  0
  153.9428  136.4068  191.4508 N   0  0  0  0  0  0  0  0  0  0  0  0
  153.9371  137.5831  190.6845 C   0  0  0  0  0  0  0  0  0  0  0  0
  155.2673  138.1848  190.4252 C   0  0  0  0  0  0  0  0  0  0  0  0
  156.3744  137.6959  191.2991 C   0  0  0  0  0  0  0  0  0  0  0  0
  156.2869  136.2505  191.6767 C   0  0  0  0  0  0  0  0  0  0  0  0
  155.0493  135.5739  191.1219 C   0  0  0  0  0  0  0  0  0  0  0  0
 37 38  1  0  0  0
 38 27  1  0  0  0
 27 28  2  0  0  0
 28 29  1  0  0  0
 29 30  2  0  0  0
 30 26  1  0  0  0
 26  1  1  0  0  0
  1  2  2  0  0  0
  2  3  1  0  0  0
  3  4  2  0  0  0
  4  8  1  0  0  0
  8  9  1  0  0  0
  9 10  2  0  0  0
  9 12  1  0  0  0
 12 13  1  0  0  0
 13 14  1  0  0  0
 12 15  1  0  0  0
 15 16  2  0  0  0
 15 17  1  0  0  0
 17 19  1  0  0  0
 19 20  2  0  0  0
 20 21  1  0  0  0
 21 22  2  0  0  0
 22 23  1  0  0  0
 22 24  1  0  0  0
 24 25  2  0  0  0
  4  5  1  0  0  0
  5  6  2  0  0  0
  6  7  1  0  0  0
 30 31  1  0  0  0
 31 32  2  0  0  0
 32 33  1  0  0  0
 33 34  2  0  0  0
 34 35  1  0  0  0
 35 36  2  0  0  0
 36 39  1  0  0  0
 39 40  1  0  0  0
 40 41  1  0  0  0
 41 42  1  0  0  0
 42 43  1  0  0  0
 43 44  1  0  0  0
 44 45  1  0  0  0
 45 46  1  0  0  0
 46 47  1  0  0  0
 47 48  1  0  0  0
 36 27  1  0  0  0
 48 43  1  0  0  0
 34 29  1  0  0  0
  6  1  1  0  0  0
 14 12  1  0  0  0
 25 19  1  0  0  0
  8 11  1  0  0  0
 17 18  1  0  0  0
M  END
> <minimizedAffinity>
-9.73174

> <CNNscore>
0.1012462005

> <CNNaffinity>
7.0124497414

> <CNN_VS>
0.7099838853

> <CNNaffinity_variance>
0.3557691276

$$$$
[H]c1c([H])c(C([H])([H])N2C([H])([H])C([H])([H])N(C([H])([H])C([H])([H])[H])C([H])([H])C2([H])[H])c(C(F)(F)F)c([H])c1C(=O)N([H])c1c([H])c([H])c(C([H])([H])[H])c(C(=O)N([H])[H])c1[H]


 35 37  0  0  0  0  0  0  0  0999 V2000
  157.7288  142.3126  183.2189 C   0  0  0  0  0  0  0  0  0  0  0  0
  156.6304  142.6250  183.9926 C   0  0  0  0  0  0  0  0  0  0  0  0
  155.3296  142.3500  183.5848 C   0  0  0  0  0  0  0  0  0  0  0  0
  155.1017  141.7429  182.3678 C   0  0  0  0  0  0  0  0  0  0  0  0
  156.1927  141.4395  181.6158 C   0  0  0  0  0  0  0  0  0  0  0  0
  157.4974  141.6961  181.9846 C   0  0  0  0  0  0  0  0  0  0  0  0
  158.6220  141.3399  181.1130 C   0  0  0  0  0  0  0  0  0  0  0  0
  159.5726  142.3077  180.9590 F   0  0  0  0  0  0  0  0  0  0  0  0
  159.1943  140.1139  181.4848 F   0  0  0  0  0  0  0  0  0  0  0  0
  158.1161  141.0951  179.8270 F   0  0  0  0  0  0  0  0  0  0  0  0
  153.7029  141.4622  181.9803 C   0  0  0  0  0  0  0  0  0  0  0  0
  152.8462  142.3062  182.2586 O   0  0  0  0  0  0  0  0  0  0  0  0
  153.4113  140.2723  181.3243 N   0  0  0  0  0  0  0  0  0  0  0  0
  154.2218  139.6223  181.1263 H   0  0  0  0  0  0  0  0  0  0  0  0
  152.1376  139.7989  180.8700 C   0  0  0  0  0  0  0  0  0  0  0  0
  151.6986  139.9138  179.5747 C   0  0  0  0  0  0  0  0  0  0  0  0
  150.4529  139.4079  179.2098 C   0  0  0  0  0  0  0  0  0  0  0  0
  149.6070  138.7753  180.1146 C   0  0  0  0  0  0  0  0  0  0  0  0
  148.2930  138.2557  179.6658 C   0  0  0  0  0  0  0  0  0  0  0  0
  150.0329  138.6551  181.4087 C   0  0  0  0  0  0  0  0  0  0  0  0
  151.2915  139.1708  181.7575 C   0  0  0  0  0  0  0  0  0  0  0  0
  149.2499  138.0229  182.4498 C   0  0  0  0  0  0  0  0  0  0  0  0
  148.3158  138.7198  183.2286 N   0  0  0  0  0  0  0  0  0  0  0  0
  149.4138  136.7740  182.6731 O   0  0  0  0  0  0  0  0  0  0  0  0
  147.3291  138.7612  182.9310 H   0  0  0  0  0  0  0  0  0  0  0  0
  148.5632  139.2040  184.1186 H   0  0  0  0  0  0  0  0  0  0  0  0
  159.0730  142.5667  183.7221 C   0  0  0  0  0  0  0  0  0  0  0  0
  161.0567  143.0423  186.2128 N   0  0  0  0  0  0  0  0  0  0  0  0
  161.5444  142.7466  184.9107 C   0  0  0  0  0  0  0  0  0  0  0  0
  161.0832  141.4456  184.3575 C   0  0  0  0  0  0  0  0  0  0  0  0
  159.5996  141.3767  184.3814 N   0  0  0  0  0  0  0  0  0  0  0  0
  159.2183  141.4106  185.8090 C   0  0  0  0  0  0  0  0  0  0  0  0
  159.7945  142.5585  186.5584 C   0  0  0  0  0  0  0  0  0  0  0  0
  163.3321  142.5234  186.7827 C   0  0  0  0  0  0  0  0  0  0  0  0
  162.0372  143.1548  187.2298 C   0  0  0  0  0  0  0  0  0  0  0  0
 34 35  1  0  0  0
 35 28  1  0  0  0
 28 29  1  0  0  0
 29 30  1  0  0  0
 30 31  1  0  0  0
 31 27  1  0  0  0
 27  1  1  0  0  0
  1  2  2  0  0  0
  2  3  1  0  0  0
  3  4  2  0  0  0
  4  5  1  0  0  0
  5  6  2  0  0  0
  6  7  1  0  0  0
  7  8  1  0  0  0
  7  9  1  0  0  0
  7 10  1  0  0  0
  4 11  1  0  0  0
 11 12  2  0  0  0
 11 13  1  0  0  0
 13 15  1  0  0  0
 15 16  2  0  0  0
 16 17  1  0  0  0
 17 18  2  0  0  0
 18 19  1  0  0  0
 18 20  1  0  0  0
 20 21  2  0  0  0
 20 22  1  0  0  0
 22 23  1  0  0  0
 22 24  2  0  0  0
 31 32  1  0  0  0
 32 33  1  0  0  0
 33 28  1  0  0  0
  6  1  1  0  0  0
 21 15  1  0  0  0
 13 14  1  0  0  0
 23 25  1  0  0  0
 23 26  1  0  0  0
M  END
> <minimizedAffinity>
-9.48773

> <CNNscore>
0.3597848117

> <CNNaffinity>
6.3214559555

> <CNN_VS>
2.2743637562

> <CNNaffinity_variance>
0.0540468320

$$$$
[H]c1c([H])c(C([H])([H])N2C([H])([H])C([H])([H])N(C([H])([H])C([H])([H])[H])C([H])([H])C2([H])[H])c(C(F)(F)F)c([H])c1C(=O)N([H])c1c([H])c([H])c(C([H])([H])[H])c(C(=O)N([H])[H])c1[H]


 35 37  0  0  0  0  0  0  0  0999 V2000
  157.3730  141.8575  183.5343 C   0  0  0  0  0  0  0  0  0  0  0  0
  156.9506  140.6600  184.0732 C   0  0  0  0  0  0  0  0  0  0  0  0
  155.7413  140.0702  183.7214 C   0  0  0  0  0  0  0  0  0  0  0  0
  154.9162  140.6832  182.8023 C   0  0  0  0  0  0  0  0  0  0  0  0
  155.3447  141.8620  182.2781 C   0  0  0  0  0  0  0  0  0  0  0  0
  156.5359  142.4789  182.6013 C   0  0  0  0  0  0  0  0  0  0  0  0
  156.9255  143.7550  181.9923 C   0  0  0  0  0  0  0  0  0  0  0  0
  157.6353  144.5965  182.7999 F   0  0  0  0  0  0  0  0  0  0  0  0
  157.5688  143.5634  180.7602 F   0  0  0  0  0  0  0  0  0  0  0  0
  155.7551  144.4509  181.6524 F   0  0  0  0  0  0  0  0  0  0  0  0
  153.6447  140.0148  182.4527 C   0  0  0  0  0  0  0  0  0  0  0  0
  153.2408  139.1168  183.1969 O   0  0  0  0  0  0  0  0  0  0  0  0
  152.9617  140.4204  181.3124 N   0  0  0  0  0  0  0  0  0  0  0  0
  153.3915  141.2056  180.7491 H   0  0  0  0  0  0  0  0  0  0  0  0
  151.7300  139.9101  180.7876 C   0  0  0  0  0  0  0  0  0  0  0  0
  151.4413  139.8424  179.4476 C   0  0  0  0  0  0  0  0  0  0  0  0
  150.2265  139.3125  179.0186 C   0  0  0  0  0  0  0  0  0  0  0  0
  149.2636  138.8356  179.9017 C   0  0  0  0  0  0  0  0  0  0  0  0
  147.9897  138.2813  179.3843 C   0  0  0  0  0  0  0  0  0  0  0  0
  149.5391  138.8981  181.2398 C   0  0  0  0  0  0  0  0  0  0  0  0
  150.7690  139.4350  181.6531 C   0  0  0  0  0  0  0  0  0  0  0  0
  148.6238  138.4402  182.2640 C   0  0  0  0  0  0  0  0  0  0  0  0
  148.5867  137.1129  182.7131 N   0  0  0  0  0  0  0  0  0  0  0  0
  147.8109  139.2793  182.7852 O   0  0  0  0  0  0  0  0  0  0  0  0
  149.1584  136.8296  183.5236 H   0  0  0  0  0  0  0  0  0  0  0  0
  147.9938  136.3775  182.2710 H   0  0  0  0  0  0  0  0  0  0  0  0
  158.6778  142.3998  183.8919 C   0  0  0  0  0  0  0  0  0  0  0  0
  160.8253  143.3517  186.0936 N   0  0  0  0  0  0  0  0  0  0  0  0
  161.1939  143.1058  184.7428 C   0  0  0  0  0  0  0  0  0  0  0  0
  160.9345  141.7190  184.2730 C   0  0  0  0  0  0  0  0  0  0  0  0
  159.5094  141.3626  184.4925 N   0  0  0  0  0  0  0  0  0  0  0  0
  159.3120  141.3776  185.9573 C   0  0  0  0  0  0  0  0  0  0  0  0
  159.7383  142.6447  186.6086 C   0  0  0  0  0  0  0  0  0  0  0  0
  162.9057  142.5849  187.0183 C   0  0  0  0  0  0  0  0  0  0  0  0
  161.8841  143.6937  186.9713 C   0  0  0  0  0  0  0  0  0  0  0  0
 34 35  1  0  0  0
 35 28  1  0  0  0
 28 29  1  0  0  0
 29 30  1  0  0  0
 30 31  1  0  0  0
 31 27  1  0  0  0
 27  1  1  0  0  0
  1  2  2  0  0  0
  2  3  1  0  0  0
  3  4  2  0  0  0
  4  5  1  0  0  0
  5  6  2  0  0  0
  6  7  1  0  0  0
  7  8  1  0  0  0
  7  9  1  0  0  0
  7 10  1  0  0  0
  4 11  1  0  0  0
 11 12  2  0  0  0
 11 13  1  0  0  0
 13 15  1  0  0  0
 15 16  2  0  0  0
 16 17  1  0  0  0
 17 18  2  0  0  0
 18 19  1  0  0  0
 18 20  1  0  0  0
 20 21  2  0  0  0
 20 22  1  0  0  0
 22 23  1  0  0  0
 22 24  2  0  0  0
 31 32  1  0  0  0
 32 33  1  0  0  0
 33 28  1  0  0  0
  6  1  1  0  0  0
 21 15  1  0  0  0
 13 14  1  0  0  0
 23 25  1  0  0  0
 23 26  1  0  0  0
M  END
> <minimizedAffinity>
-9.98839

> <CNNscore>
0.3223645389

> <CNNaffinity>
6.2650074959

> <CNN_VS>
2.0196163654

> <CNNaffinity_variance>
0.0670149922

$$$$
[H]c1c([H])c(C([H])([H])N2C([H])([H])C([H])([H])N(C([H])([H])C([H])([H])[H])C([H])([H])C2([H])[H])c(C(F)(F)F)c([H])c1C(=O)N([H])c1c([H])c([H])c(C([H])([H])[H])c(C(=O)N([H])[H])c1[H]


 35 37  0  0  0  0  0  0  0  0999 V2000
  153.6006  137.4039  189.6175 C   0  0  0  0  0  0  0  0  0  0  0  0
  152.9118  137.3327  188.4245 C   0  0  0  0  0  0  0  0  0  0  0  0
  153.4849  137.6963  187.2107 C   0  0  0  0  0  0  0  0  0  0  0  0
  154.7876  138.1466  187.1700 C   0  0  0  0  0  0  0  0  0  0  0  0
  155.4554  138.2108  188.3523 C   0  0  0  0  0  0  0  0  0  0  0  0
  154.9225  137.8602  189.5758 C   0  0  0  0  0  0  0  0  0  0  0  0
  155.7095  137.9614  190.8093 C   0  0  0  0  0  0  0  0  0  0  0  0
  155.6173  136.8911  191.6520 F   0  0  0  0  0  0  0  0  0  0  0  0
  157.0473  138.2894  190.5421 F   0  0  0  0  0  0  0  0  0  0  0  0
  155.2360  139.0625  191.5393 F   0  0  0  0  0  0  0  0  0  0  0  0
  155.3573  138.5133  185.8559 C   0  0  0  0  0  0  0  0  0  0  0  0
  154.9113  137.9459  184.8546 O   0  0  0  0  0  0  0  0  0  0  0  0
  156.3610  139.4729  185.8010 N   0  0  0  0  0  0  0  0  0  0  0  0
  156.6641  139.9036  186.7181 H   0  0  0  0  0  0  0  0  0  0  0  0
  157.0526  139.9680  184.6480 C   0  0  0  0  0  0  0  0  0  0  0  0
  156.5649  139.8773  183.3683 C   0  0  0  0  0  0  0  0  0  0  0  0
  157.2919  140.4032  182.3026 C   0  0  0  0  0  0  0  0  0  0  0  0
  158.5206  141.0325  182.4722 C   0  0  0  0  0  0  0  0  0  0  0  0
  159.2468  141.5741  181.2986 C   0  0  0  0  0  0  0  0  0  0  0  0
  159.0177  141.1287  183.7426 C   0  0  0  0  0  0  0  0  0  0  0  0
  158.2705  140.5930  184.8039 C   0  0  0  0  0  0  0  0  0  0  0  0
  160.2848  141.7549  184.0572 C   0  0  0  0  0  0  0  0  0  0  0  0
  161.5202  141.1519  183.7831 N   0  0  0  0  0  0  0  0  0  0  0  0
  160.2828  142.9086  184.6097 O   0  0  0  0  0  0  0  0  0  0  0  0
  161.9946  141.3395  182.8866 H   0  0  0  0  0  0  0  0  0  0  0  0
  162.0053  140.5157  184.4521 H   0  0  0  0  0  0  0  0  0  0  0  0
  152.9720  136.9516  190.8523 C   0  0  0  0  0  0  0  0  0  0  0  0
  151.4357  135.6801  193.3798 N   0  0  0  0  0  0  0  0  0  0  0  0
  152.7070  135.2045  192.9572 C   0  0  0  0  0  0  0  0  0  0  0  0
  152.7417  134.6842  191.5646 C   0  0  0  0  0  0  0  0  0  0  0  0
  152.2356  135.7137  190.6211 N   0  0  0  0  0  0  0  0  0  0  0  0
  150.8172  135.9251  190.9792 C   0  0  0  0  0  0  0  0  0  0  0  0
  150.6007  136.2449  192.4152 C   0  0  0  0  0  0  0  0  0  0  0  0
  149.6874  134.1422  193.9709 C   0  0  0  0  0  0  0  0  0  0  0  0
  150.8416  134.9811  194.4600 C   0  0  0  0  0  0  0  0  0  0  0  0
 34 35  1  0  0  0
 35 28  1  0  0  0
 28 29  1  0  0  0
 29 30  1  0  0  0
 30 31  1  0  0  0
 31 27  1  0  0  0
 27  1  1  0  0  0
  1  2  2  0  0  0
  2  3  1  0  0  0
  3  4  2  0  0  0
  4  5  1  0  0  0
  5  6  2  0  0  0
  6  7  1  0  0  0
  7  8  1  0  0  0
  7  9  1  0  0  0
  7 10  1  0  0  0
  4 11  1  0  0  0
 11 12  2  0  0  0
 11 13  1  0  0  0
 13 15  1  0  0  0
 15 16  2  0  0  0
 16 17  1  0  0  0
 17 18  2  0  0  0
 18 19  1  0  0  0
 18 20  1  0  0  0
 20 21  2  0  0  0
 20 22  1  0  0  0
 22 23  1  0  0  0
 22 24  2  0  0  0
 31 32  1  0  0  0
 32 33  1  0  0  0
 33 28  1  0  0  0
  6  1  1  0  0  0
 21 15  1  0  0  0
 13 14  1  0  0  0
 23 25  1  0  0  0
 23 26  1  0  0  0
M  END
> <minimizedAffinity>
-8.18424

> <CNNscore>
0.2817752361

> <CNNaffinity>
5.6954030991

> <CNN_VS>
1.6048235893

> <CNNaffinity_variance>
0.0920420289

$$$$
[H]c1c([H])c(C([H])([H])N2C([H])([H])C([H])([H])N(C([H])([H])C([H])([H])[H])C([H])([H])C2([H])[H])c(C(F)(F)F)c([H])c1C(=O)N([H])c1c([H])c([H])c(C([H])([H])[H])c(C(=O)N([H])[H])c1[H]


 35 37  0  0  0  0  0  0  0  0999 V2000
  151.8118  138.4772  181.9078 C   0  0  0  0  0  0  0  0  0  0  0  0
  152.8073  138.3987  182.8594 C   0  0  0  0  0  0  0  0  0  0  0  0
  153.6888  139.4463  183.1032 C   0  0  0  0  0  0  0  0  0  0  0  0
  153.5855  140.6172  182.3824 C   0  0  0  0  0  0  0  0  0  0  0  0
  152.5996  140.6819  181.4486 C   0  0  0  0  0  0  0  0  0  0  0  0
  151.7066  139.6656  181.1770 C   0  0  0  0  0  0  0  0  0  0  0  0
  150.6710  139.8129  180.1490 C   0  0  0  0  0  0  0  0  0  0  0  0
  150.6862  138.8683  179.1633 F   0  0  0  0  0  0  0  0  0  0  0  0
  149.3945  139.9399  180.7174 F   0  0  0  0  0  0  0  0  0  0  0  0
  150.8712  141.0419  179.5016 F   0  0  0  0  0  0  0  0  0  0  0  0
  154.5389  141.7066  182.6823 C   0  0  0  0  0  0  0  0  0  0  0  0
  154.0982  142.7292  183.2148 O   0  0  0  0  0  0  0  0  0  0  0  0
  155.8793  141.5373  182.3569 N   0  0  0  0  0  0  0  0  0  0  0  0
  156.1527  140.6181  181.9109 H   0  0  0  0  0  0  0  0  0  0  0  0
  156.9615  142.4564  182.5488 C   0  0  0  0  0  0  0  0  0  0  0  0
  157.0091  143.7074  181.9862 C   0  0  0  0  0  0  0  0  0  0  0  0
  158.0899  144.5490  182.2399 C   0  0  0  0  0  0  0  0  0  0  0  0
  159.1533  144.1774  183.0558 C   0  0  0  0  0  0  0  0  0  0  0  0
  160.2751  145.1180  183.2895 C   0  0  0  0  0  0  0  0  0  0  0  0
  159.1180  142.9329  183.6219 C   0  0  0  0  0  0  0  0  0  0  0  0
  158.0202  142.0990  183.3548 C   0  0  0  0  0  0  0  0  0  0  0  0
  160.1604  142.4210  184.4866 C   0  0  0  0  0  0  0  0  0  0  0  0
  160.1427  142.5846  185.8786 N   0  0  0  0  0  0  0  0  0  0  0  0
  161.1430  141.7912  183.9627 O   0  0  0  0  0  0  0  0  0  0  0  0
  159.7120  141.8612  186.4745 H   0  0  0  0  0  0  0  0  0  0  0  0
  160.5577  143.4109  186.3611 H   0  0  0  0  0  0  0  0  0  0  0  0
  150.8761  137.3729  181.7364 C   0  0  0  0  0  0  0  0  0  0  0  0
  148.0898  135.7600  181.7571 N   0  0  0  0  0  0  0  0  0  0  0  0
  148.1586  137.1435  182.0766 C   0  0  0  0  0  0  0  0  0  0  0  0
  149.0246  137.4677  183.2412 C   0  0  0  0  0  0  0  0  0  0  0  0
  150.3884  136.9171  183.0335 N   0  0  0  0  0  0  0  0  0  0  0  0
  150.2280  135.4482  182.9968 C   0  0  0  0  0  0  0  0  0  0  0  0
  149.2167  134.9781  182.0131 C   0  0  0  0  0  0  0  0  0  0  0  0
  146.8787  133.9602  182.7891 C   0  0  0  0  0  0  0  0  0  0  0  0
  146.8115  135.1601  181.8775 C   0  0  0  0  0  0  0  0  0  0  0  0
 34 35  1  0  0  0
 35 28  1  0  0  0
 28 29  1  0  0  0
 29 30  1  0  0  0
 30 31  1  0  0  0
 31 27  1  0  0  0
 27  1  1  0  0  0
  1  2  2  0  0  0
  2  3  1  0  0  0
  3  4  2  0  0  0
  4  5  1  0  0  0
  5  6  2  0  0  0
  6  7  1  0  0  0
  7  8  1  0  0  0
  7  9  1  0  0  0
  7 10  1  0  0  0
  4 11  1  0  0  0
 11 12  2  0  0  0
 11 13  1  0  0  0
 13 15  1  0  0  0
 15 16  2  0  0  0
 16 17  1  0  0  0
 17 18  2  0  0  0
 18 19  1  0  0  0
 18 20  1  0  0  0
 20 21  2  0  0  0
 20 22  1  0  0  0
 22 23  1  0  0  0
 22 24  2  0  0  0
 31 32  1  0  0  0
 32 33  1  0  0  0
 33 28  1  0  0  0
  6  1  1  0  0  0
 21 15  1  0  0  0
 13 14  1  0  0  0
 23 25  1  0  0  0
 23 26  1  0  0  0
M  END
> <minimizedAffinity>
-7.85435

> <CNNscore>
0.2660771608

> <CNNaffinity>
5.7970833778

> <CNN_VS>
1.5424715281

> <CNNaffinity_variance>
0.0660538748

$$$$
[H]c1c([H])c(C([H])([H])N2C([H])([H])C([H])([H])N(C([H])([H])C([H])([H])[H])C([H])([H])C2([H])[H])c(C(F)(F)F)c([H])c1C(=O)N([H])c1c([H])c([H])c(C([H])([H])[H])c(C(=O)N([H])[H])c1[H]


 35 37  0  0  0  0  0  0  0  0999 V2000
  151.1354  138.2104  182.0650 C   0  0  0  0  0  0  0  0  0  0  0  0
  152.0803  138.0064  183.0490 C   0  0  0  0  0  0  0  0  0  0  0  0
  153.1661  138.8570  183.2269 C   0  0  0  0  0  0  0  0  0  0  0  0
  153.3271  139.9517  182.4041 C   0  0  0  0  0  0  0  0  0  0  0  0
  152.3885  140.1418  181.4393 C   0  0  0  0  0  0  0  0  0  0  0  0
  151.2987  139.3215  181.2307 C   0  0  0  0  0  0  0  0  0  0  0  0
  150.3303  139.5941  180.1634 C   0  0  0  0  0  0  0  0  0  0  0  0
  150.2203  138.6222  179.2108 F   0  0  0  0  0  0  0  0  0  0  0  0
  149.0757  139.9467  180.6831 F   0  0  0  0  0  0  0  0  0  0  0  0
  150.7456  140.7490  179.4827 F   0  0  0  0  0  0  0  0  0  0  0  0
  154.4915  140.8326  182.6363 C   0  0  0  0  0  0  0  0  0  0  0  0
  154.4195  142.0004  182.2433 O   0  0  0  0  0  0  0  0  0  0  0  0
  155.6087  140.3163  183.2817 N   0  0  0  0  0  0  0  0  0  0  0  0
  155.5629  139.3042  183.5852 H   0  0  0  0  0  0  0  0  0  0  0  0
  156.8368  140.9827  183.5988 C   0  0  0  0  0  0  0  0  0  0  0  0
  157.5541  140.7552  184.7466 C   0  0  0  0  0  0  0  0  0  0  0  0
  158.7516  141.4312  184.9698 C   0  0  0  0  0  0  0  0  0  0  0  0
  159.2727  142.3506  184.0656 C   0  0  0  0  0  0  0  0  0  0  0  0
  160.5534  143.0375  184.3585 C   0  0  0  0  0  0  0  0  0  0  0  0
  158.5669  142.5865  182.9181 C   0  0  0  0  0  0  0  0  0  0  0  0
  157.3624  141.8954  182.7105 C   0  0  0  0  0  0  0  0  0  0  0  0
  158.9946  143.5200  181.8973 C   0  0  0  0  0  0  0  0  0  0  0  0
  158.9094  144.9104  182.0541 N   0  0  0  0  0  0  0  0  0  0  0  0
  159.4716  143.0617  180.8024 O   0  0  0  0  0  0  0  0  0  0  0  0
  159.7106  145.4329  182.4400 H   0  0  0  0  0  0  0  0  0  0  0  0
  158.0660  145.4637  181.7888 H   0  0  0  0  0  0  0  0  0  0  0  0
  149.9838  137.3229  181.9626 C   0  0  0  0  0  0  0  0  0  0  0  0
  147.9969  134.8130  182.3061 N   0  0  0  0  0  0  0  0  0  0  0  0
  149.1835  134.9420  183.0781 C   0  0  0  0  0  0  0  0  0  0  0  0
  150.4375  135.0003  182.2809 C   0  0  0  0  0  0  0  0  0  0  0  0
  150.3543  136.0905  181.2756 N   0  0  0  0  0  0  0  0  0  0  0  0
  149.2627  135.7071  180.3557 C   0  0  0  0  0  0  0  0  0  0  0  0
  147.9789  135.4005  181.0407 C   0  0  0  0  0  0  0  0  0  0  0  0
  147.7193  132.5470  181.5581 C   0  0  0  0  0  0  0  0  0  0  0  0
  147.2541  133.6230  182.5075 C   0  0  0  0  0  0  0  0  0  0  0  0
 34 35  1  0  0  0
 35 28  1  0  0  0
 28 29  1  0  0  0
 29 30  1  0  0  0
 30 31  1  0  0  0
 31 27  1  0  0  0
 27  1  1  0  0  0
  1  2  2  0  0  0
  2  3  1  0  0  0
  3  4  2  0  0  0
  4  5  1  0  0  0
  5  6  2  0  0  0
  6  7  1  0  0  0
  7  8  1  0  0  0
  7  9  1  0  0  0
  7 10  1  0  0  0
  4 11  1  0  0  0
 11 12  2  0  0  0
 11 13  1  0  0  0
 13 15  1  0  0  0
 15 16  2  0  0  0
 16 17  1  0  0  0
 17 18  2  0  0  0
 18 19  1  0  0  0
 18 20  1  0  0  0
 20 21  2  0  0  0
 20 22  1  0  0  0
 22 23  1  0  0  0
 22 24  2  0  0  0
 31 32  1  0  0  0
 32 33  1  0  0  0
 33 28  1  0  0  0
  6  1  1  0  0  0
 21 15  1  0  0  0
 13 14  1  0  0  0
 23 25  1  0  0  0
 23 26  1  0  0  0
M  END
> <minimizedAffinity>
-7.48821

> <CNNscore>
0.2372376174

> <CNNaffinity>
5.7340612411

> <CNN_VS>
1.3603349924

> <CNNaffinity_variance>
0.0701466277

$$$$
[H]c1c([H])c(C([H])([H])N2C([H])([H])C([H])([H])N(C([H])([H])C([H])([H])[H])C([H])([H])C2([H])[H])c(C(F)(F)F)c([H])c1C(=O)N([H])c1c([H])c([H])c(C([H])([H])[H])c(C(=O)N([H])[H])c1[H]


 35 37  0  0  0  0  0  0  0  0999 V2000
  154.3686  137.0090  189.3614 C   0  0  0  0  0  0  0  0  0  0  0  0
  153.5658  136.8551  188.2503 C   0  0  0  0  0  0  0  0  0  0  0  0
  153.9019  137.3855  187.0094 C   0  0  0  0  0  0  0  0  0  0  0  0
  155.0748  138.0943  186.8566 C   0  0  0  0  0  0  0  0  0  0  0  0
  155.8571  138.2376  187.9591 C   0  0  0  0  0  0  0  0  0  0  0  0
  155.5588  137.7276  189.2060 C   0  0  0  0  0  0  0  0  0  0  0  0
  156.4560  137.9291  190.3487 C   0  0  0  0  0  0  0  0  0  0  0  0
  155.9764  138.7449  191.3327 F   0  0  0  0  0  0  0  0  0  0  0  0
  156.9085  136.7078  190.8707 F   0  0  0  0  0  0  0  0  0  0  0  0
  157.6267  138.5453  189.8801 F   0  0  0  0  0  0  0  0  0  0  0  0
  155.3946  138.6319  185.5170 C   0  0  0  0  0  0  0  0  0  0  0  0
  154.6059  138.3969  184.5972 O   0  0  0  0  0  0  0  0  0  0  0  0
  156.5580  139.3732  185.3488 N   0  0  0  0  0  0  0  0  0  0  0  0
  157.1599  139.5230  186.2054 H   0  0  0  0  0  0  0  0  0  0  0  0
  157.0608  139.9746  184.1495 C   0  0  0  0  0  0  0  0  0  0  0  0
  157.9204  139.3464  183.2833 C   0  0  0  0  0  0  0  0  0  0  0  0
  158.3469  139.9948  182.1264 C   0  0  0  0  0  0  0  0  0  0  0  0
  157.9363  141.2814  181.7940 C   0  0  0  0  0  0  0  0  0  0  0  0
  158.4235  141.9185  180.5472 C   0  0  0  0  0  0  0  0  0  0  0  0
  157.0801  141.9183  182.6494 C   0  0  0  0  0  0  0  0  0  0  0  0
  156.6609  141.2486  183.8102 C   0  0  0  0  0  0  0  0  0  0  0  0
  156.5796  143.2582  182.4247 C   0  0  0  0  0  0  0  0  0  0  0  0
  155.2245  143.5361  182.1978 N   0  0  0  0  0  0  0  0  0  0  0  0
  157.4055  144.2350  182.4322 O   0  0  0  0  0  0  0  0  0  0  0  0
  154.6079  143.7648  182.9923 H   0  0  0  0  0  0  0  0  0  0  0  0
  154.7931  143.5341  181.2482 H   0  0  0  0  0  0  0  0  0  0  0  0
  153.9985  136.3795  190.6229 C   0  0  0  0  0  0  0  0  0  0  0  0
  152.7563  135.2245  193.3593 N   0  0  0  0  0  0  0  0  0  0  0  0
  153.2305  134.3669  192.3295 C   0  0  0  0  0  0  0  0  0  0  0  0
  152.5418  134.5301  191.0218 C   0  0  0  0  0  0  0  0  0  0  0  0
  152.6057  135.9478  190.5835 N   0  0  0  0  0  0  0  0  0  0  0  0
  151.8371  136.7142  191.5869 C   0  0  0  0  0  0  0  0  0  0  0  0
  152.2777  136.4813  192.9880 C   0  0  0  0  0  0  0  0  0  0  0  0
  152.2386  133.0838  194.3189 C   0  0  0  0  0  0  0  0  0  0  0  0
  152.1677  134.5822  194.4771 C   0  0  0  0  0  0  0  0  0  0  0  0
 34 35  1  0  0  0
 35 28  1  0  0  0
 28 29  1  0  0  0
 29 30  1  0  0  0
 30 31  1  0  0  0
 31 27  1  0  0  0
 27  1  1  0  0  0
  1  2  2  0  0  0
  2  3  1  0  0  0
  3  4  2  0  0  0
  4  5  1  0  0  0
  5  6  2  0  0  0
  6  7  1  0  0  0
  7  8  1  0  0  0
  7  9  1  0  0  0
  7 10  1  0  0  0
  4 11  1  0  0  0
 11 12  2  0  0  0
 11 13  1  0  0  0
 13 15  1  0  0  0
 15 16  2  0  0  0
 16 17  1  0  0  0
 17 18  2  0  0  0
 18 19  1  0  0  0
 18 20  1  0  0  0
 20 21  2  0  0  0
 20 22  1  0  0  0
 22 23  1  0  0  0
 22 24  2  0  0  0
 31 32  1  0  0  0
 32 33  1  0  0  0
 33 28  1  0  0  0
  6  1  1  0  0  0
 21 15  1  0  0  0
 13 14  1  0  0  0
 23 25  1  0  0  0
 23 26  1  0  0  0
M  END
> <minimizedAffinity>
-7.91493

> <CNNscore>
0.2315018922

> <CNNaffinity>
5.5832967758

> <CNN_VS>
1.2925437689

> <CNNaffinity_variance>
0.0962844044

$$$$
[H]c1c([H])c(C([H])([H])N2C([H])([H])C([H])([H])N(C([H])([H])C([H])([H])[H])C([H])([H])C2([H])[H])c(C(F)(F)F)c([H])c1C(=O)N([H])c1c([H])c([H])c(C([H])([H])[H])c(C(=O)N([H])[H])c1[H]


 35 37  0  0  0  0  0  0  0  0999 V2000
  155.9384  141.1749  183.6083 C   0  0  0  0  0  0  0  0  0  0  0  0
  155.6465  139.8617  183.9135 C   0  0  0  0  0  0  0  0  0  0  0  0
  154.4912  139.2316  183.4636 C   0  0  0  0  0  0  0  0  0  0  0  0
  153.5886  139.9213  182.6820 C   0  0  0  0  0  0  0  0  0  0  0  0
  153.8888  141.2141  182.3878 C   0  0  0  0  0  0  0  0  0  0  0  0
  155.0228  141.8743  182.8148 C   0  0  0  0  0  0  0  0  0  0  0  0
  155.2727  143.2742  182.4558 C   0  0  0  0  0  0  0  0  0  0  0  0
  156.2930  143.4786  181.5719 F   0  0  0  0  0  0  0  0  0  0  0  0
  154.0974  143.9177  182.0397 F   0  0  0  0  0  0  0  0  0  0  0  0
  155.6356  143.9651  183.6223 F   0  0  0  0  0  0  0  0  0  0  0  0
  152.3791  139.2078  182.2198 C   0  0  0  0  0  0  0  0  0  0  0  0
  151.9799  138.2527  182.8921 O   0  0  0  0  0  0  0  0  0  0  0  0
  151.7460  139.6368  181.0595 N   0  0  0  0  0  0  0  0  0  0  0  0
  152.1660  140.4713  180.5638 H   0  0  0  0  0  0  0  0  0  0  0  0
  150.5782  139.0921  180.4330 C   0  0  0  0  0  0  0  0  0  0  0  0
  150.2715  139.2679  179.1068 C   0  0  0  0  0  0  0  0  0  0  0  0
  149.1250  138.6865  178.5700 C   0  0  0  0  0  0  0  0  0  0  0  0
  148.2501  137.9161  179.3287 C   0  0  0  0  0  0  0  0  0  0  0  0
  147.0462  137.3218  178.7000 C   0  0  0  0  0  0  0  0  0  0  0  0
  148.5444  137.7340  180.6518 C   0  0  0  0  0  0  0  0  0  0  0  0
  149.7045  138.3275  181.1748 C   0  0  0  0  0  0  0  0  0  0  0  0
  147.7173  136.9590  181.5527 C   0  0  0  0  0  0  0  0  0  0  0  0
  147.8624  135.5745  181.7176 N   0  0  0  0  0  0  0  0  0  0  0  0
  146.8128  137.5585  182.2301 O   0  0  0  0  0  0  0  0  0  0  0  0
  148.4822  135.2082  182.4561 H   0  0  0  0  0  0  0  0  0  0  0  0
  147.3613  134.8744  181.1289 H   0  0  0  0  0  0  0  0  0  0  0  0
  157.1934  141.7670  184.0543 C   0  0  0  0  0  0  0  0  0  0  0  0
  160.1375  142.7601  184.8974 N   0  0  0  0  0  0  0  0  0  0  0  0
  159.4970  143.2275  183.7175 C   0  0  0  0  0  0  0  0  0  0  0  0
  159.1471  142.1630  182.7399 C   0  0  0  0  0  0  0  0  0  0  0  0
  158.3214  141.1171  183.3961 N   0  0  0  0  0  0  0  0  0  0  0  0
  159.1896  140.5055  184.4242 C   0  0  0  0  0  0  0  0  0  0  0  0
  159.7978  141.4883  185.3599 C   0  0  0  0  0  0  0  0  0  0  0  0
  161.7383  143.3644  186.5837 C   0  0  0  0  0  0  0  0  0  0  0  0
  161.4604  143.2228  185.1079 C   0  0  0  0  0  0  0  0  0  0  0  0
 34 35  1  0  0  0
 35 28  1  0  0  0
 28 29  1  0  0  0
 29 30  1  0  0  0
 30 31  1  0  0  0
 31 27  1  0  0  0
 27  1  1  0  0  0
  1  2  2  0  0  0
  2  3  1  0  0  0
  3  4  2  0  0  0
  4  5  1  0  0  0
  5  6  2  0  0  0
  6  7  1  0  0  0
  7  8  1  0  0  0
  7  9  1  0  0  0
  7 10  1  0  0  0
  4 11  1  0  0  0
 11 12  2  0  0  0
 11 13  1  0  0  0
 13 15  1  0  0  0
 15 16  2  0  0  0
 16 17  1  0  0  0
 17 18  2  0  0  0
 18 19  1  0  0  0
 18 20  1  0  0  0
 20 21  2  0  0  0
 20 22  1  0  0  0
 22 23  1  0  0  0
 22 24  2  0  0  0
 31 32  1  0  0  0
 32 33  1  0  0  0
 33 28  1  0  0  0
  6  1  1  0  0  0
 21 15  1  0  0  0
 13 14  1  0  0  0
 23 25  1  0  0  0
 23 26  1  0  0  0
M  END
> <minimizedAffinity>
-8.65405

> <CNNscore>
0.2200915366

> <CNNaffinity>
5.9885878563

> <CNN_VS>
1.3180375099

> <CNNaffinity_variance>
0.0690739900

$$$$
[H]c1c([H])c(C([H])([H])N2C([H])([H])C([H])([H])N(C([H])([H])C([H])([H])[H])C([H])([H])C2([H])[H])c(C(F)(F)F)c([H])c1C(=O)N([H])c1c([H])c([H])c(C([H])([H])[H])c(C(=O)N([H])[H])c1[H]


 35 37  0  0  0  0  0  0  0  0999 V2000
  156.7023  141.6972  183.5812 C   0  0  0  0  0  0  0  0  0  0  0  0
  155.8235  142.2267  182.6592 C   0  0  0  0  0  0  0  0  0  0  0  0
  154.6816  141.5499  182.2446 C   0  0  0  0  0  0  0  0  0  0  0  0
  154.3934  140.3033  182.7588 C   0  0  0  0  0  0  0  0  0  0  0  0
  155.2669  139.7936  183.6672 C   0  0  0  0  0  0  0  0  0  0  0  0
  156.4094  140.4328  184.1032 C   0  0  0  0  0  0  0  0  0  0  0  0
  157.3042  139.8125  185.0859 C   0  0  0  0  0  0  0  0  0  0  0  0
  158.0077  140.6827  185.8682 F   0  0  0  0  0  0  0  0  0  0  0  0
  156.6341  138.8537  185.8607 F   0  0  0  0  0  0  0  0  0  0  0  0
  158.2657  139.0647  184.3888 F   0  0  0  0  0  0  0  0  0  0  0  0
  153.1640  139.6255  182.2952 C   0  0  0  0  0  0  0  0  0  0  0  0
  152.8407  138.5721  182.8513 O   0  0  0  0  0  0  0  0  0  0  0  0
  152.4285  140.1960  181.2632 N   0  0  0  0  0  0  0  0  0  0  0  0
  152.7896  141.1056  180.8622 H   0  0  0  0  0  0  0  0  0  0  0  0
  151.2238  139.7101  180.6588 C   0  0  0  0  0  0  0  0  0  0  0  0
  150.9945  139.7120  179.3056 C   0  0  0  0  0  0  0  0  0  0  0  0
  149.8024  139.2016  178.7964 C   0  0  0  0  0  0  0  0  0  0  0  0
  148.8044  138.6760  179.6101 C   0  0  0  0  0  0  0  0  0  0  0  0
  147.5574  138.1456  179.0089 C   0  0  0  0  0  0  0  0  0  0  0  0
  149.0207  138.6689  180.9605 C   0  0  0  0  0  0  0  0  0  0  0  0
  150.2284  139.1873  181.4550 C   0  0  0  0  0  0  0  0  0  0  0  0
  148.0639  138.1551  181.9181 C   0  0  0  0  0  0  0  0  0  0  0  0
  148.0456  136.8158  182.3315 N   0  0  0  0  0  0  0  0  0  0  0  0
  147.1947  138.9536  182.4114 O   0  0  0  0  0  0  0  0  0  0  0  0
  148.5788  136.5297  183.1667 H   0  0  0  0  0  0  0  0  0  0  0  0
  147.5039  136.0738  181.8377 H   0  0  0  0  0  0  0  0  0  0  0  0
  157.8510  142.4761  184.0266 C   0  0  0  0  0  0  0  0  0  0  0  0
  161.0064  142.2972  184.6405 N   0  0  0  0  0  0  0  0  0  0  0  0
  160.3208  143.5415  184.5908 C   0  0  0  0  0  0  0  0  0  0  0  0
  159.6683  143.8373  183.2877 C   0  0  0  0  0  0  0  0  0  0  0  0
  158.7547  142.7288  182.9098 N   0  0  0  0  0  0  0  0  0  0  0  0
  159.6180  141.5451  182.7137 C   0  0  0  0  0  0  0  0  0  0  0  0
  160.5028  141.2477  183.8713 C   0  0  0  0  0  0  0  0  0  0  0  0
  162.7096  142.6260  186.3024 C   0  0  0  0  0  0  0  0  0  0  0  0
  162.4065  142.3702  184.8471 C   0  0  0  0  0  0  0  0  0  0  0  0
 34 35  1  0  0  0
 35 28  1  0  0  0
 28 29  1  0  0  0
 29 30  1  0  0  0
 30 31  1  0  0  0
 31 27  1  0  0  0
 27  1  1  0  0  0
  1  2  2  0  0  0
  2  3  1  0  0  0
  3  4  2  0  0  0
  4  5  1  0  0  0
  5  6  2  0  0  0
  6  7  1  0  0  0
  7  8  1  0  0  0
  7  9  1  0  0  0
  7 10  1  0  0  0
  4 11  1  0  0  0
 11 12  2  0  0  0
 11 13  1  0  0  0
 13 15  1  0  0  0
 15 16  2  0  0  0
 16 17  1  0  0  0
 17 18  2  0  0  0
 18 19  1  0  0  0
 18 20  1  0  0  0
 20 21  2  0  0  0
 20 22  1  0  0  0
 22 23  1  0  0  0
 22 24  2  0  0  0
 31 32  1  0  0  0
 32 33  1  0  0  0
 33 28  1  0  0  0
  6  1  1  0  0  0
 21 15  1  0  0  0
 13 14  1  0  0  0
 23 25  1  0  0  0
 23 26  1  0  0  0
M  END
> <minimizedAffinity>
-9.23015

> <CNNscore>
0.2066223323

> <CNNaffinity>
6.0413045883

> <CNN_VS>
1.2482684851

> <CNNaffinity_variance>
0.0578072369

$$$$
[H]c1c([H])c(C([H])([H])N2C([H])([H])C([H])([H])N(C([H])([H])C([H])([H])[H])C([H])([H])C2([H])[H])c(C(F)(F)F)c([H])c1C(=O)N([H])c1c([H])c([H])c(C([H])([H])[H])c(C(=O)N([H])[H])c1[H]


 35 37  0  0  0  0  0  0  0  0999 V2000
  155.7268  140.1431  184.3561 C   0  0  0  0  0  0  0  0  0  0  0  0
  156.0610  139.1638  185.2682 C   0  0  0  0  0  0  0  0  0  0  0  0
  155.1605  138.1842  185.6727 C   0  0  0  0  0  0  0  0  0  0  0  0
  153.8813  138.1680  185.1582 C   0  0  0  0  0  0  0  0  0  0  0  0
  153.5653  139.1379  184.2596 C   0  0  0  0  0  0  0  0  0  0  0  0
  154.4291  140.1260  183.8337 C   0  0  0  0  0  0  0  0  0  0  0  0
  154.0095  141.1406  182.8612 C   0  0  0  0  0  0  0  0  0  0  0  0
  152.7848  140.9361  182.2936 F   0  0  0  0  0  0  0  0  0  0  0  0
  154.1205  142.4366  183.3875 F   0  0  0  0  0  0  0  0  0  0  0  0
  154.9273  141.1325  181.7995 F   0  0  0  0  0  0  0  0  0  0  0  0
  152.9616  137.1026  185.6109 C   0  0  0  0  0  0  0  0  0  0  0  0
  153.4552  136.0882  186.1117 O   0  0  0  0  0  0  0  0  0  0  0  0
  151.5925  137.2841  185.4568 N   0  0  0  0  0  0  0  0  0  0  0  0
  151.2747  138.1949  185.0233 H   0  0  0  0  0  0  0  0  0  0  0  0
  150.5332  136.3879  185.8141 C   0  0  0  0  0  0  0  0  0  0  0  0
  150.2137  135.2606  185.0994 C   0  0  0  0  0  0  0  0  0  0  0  0
  149.1805  134.4296  185.5268 C   0  0  0  0  0  0  0  0  0  0  0  0
  148.4346  134.6899  186.6715 C   0  0  0  0  0  0  0  0  0  0  0  0
  147.3477  133.7666  187.0765 C   0  0  0  0  0  0  0  0  0  0  0  0
  148.7429  135.8107  187.3921 C   0  0  0  0  0  0  0  0  0  0  0  0
  149.7877  136.6358  186.9459 C   0  0  0  0  0  0  0  0  0  0  0  0
  148.0435  136.1994  188.5989 C   0  0  0  0  0  0  0  0  0  0  0  0
  146.9394  137.0630  188.5937 N   0  0  0  0  0  0  0  0  0  0  0  0
  148.4467  135.7377  189.7218 O   0  0  0  0  0  0  0  0  0  0  0  0
  145.9858  136.6756  188.5276 H   0  0  0  0  0  0  0  0  0  0  0  0
  147.0261  138.1000  188.6635 H   0  0  0  0  0  0  0  0  0  0  0  0
  156.7285  141.1082  183.9205 C   0  0  0  0  0  0  0  0  0  0  0  0
  158.7091  142.4115  181.7425 N   0  0  0  0  0  0  0  0  0  0  0  0
  157.8912  141.2897  181.4369 C   0  0  0  0  0  0  0  0  0  0  0  0
  158.1399  140.0930  182.2839 C   0  0  0  0  0  0  0  0  0  0  0  0
  158.0138  140.4481  183.7206 N   0  0  0  0  0  0  0  0  0  0  0  0
  159.0977  141.4156  183.9926 C   0  0  0  0  0  0  0  0  0  0  0  0
  159.1100  142.5804  183.0682 C   0  0  0  0  0  0  0  0  0  0  0  0
  158.8461  142.9436  179.4039 C   0  0  0  0  0  0  0  0  0  0  0  0
  159.5864  142.8361  180.7137 C   0  0  0  0  0  0  0  0  0  0  0  0
 34 35  1  0  0  0
 35 28  1  0  0  0
 28 29  1  0  0  0
 29 30  1  0  0  0
 30 31  1  0  0  0
 31 27  1  0  0  0
 27  1  1  0  0  0
  1  2  2  0  0  0
  2  3  1  0  0  0
  3  4  2  0  0  0
  4  5  1  0  0  0
  5  6  2  0  0  0
  6  7  1  0  0  0
  7  8  1  0  0  0
  7  9  1  0  0  0
  7 10  1  0  0  0
  4 11  1  0  0  0
 11 12  2  0  0  0
 11 13  1  0  0  0
 13 15  1  0  0  0
 15 16  2  0  0  0
 16 17  1  0  0  0
 17 18  2  0  0  0
 18 19  1  0  0  0
 18 20  1  0  0  0
 20 21  2  0  0  0
 20 22  1  0  0  0
 22 23  1  0  0  0
 22 24  2  0  0  0
 31 32  1  0  0  0
 32 33  1  0  0  0
 33 28  1  0  0  0
  6  1  1  0  0  0
 21 15  1  0  0  0
 13 14  1  0  0  0
 23 25  1  0  0  0
 23 26  1  0  0  0
M  END
> <minimizedAffinity>
-7.12988

> <CNNscore>
0.1849025935

> <CNNaffinity>
5.7213296890

> <CNN_VS>
1.0578887463

> <CNNaffinity_variance>
0.1885776967

$$$$
