[H]c1nc(N([H])c2c([H])c([H])c(N([H])C(=O)C([H])([H])c3c([H])n(C4([H])C([H])([H])C([H])([H])N(C([H])([H])[H])C([H])([H])C4([H])[H])c4c([H])c([H])c([H])c([H])c34)c([H])c2Cl)c2c([H])c3c([H])nn(C([H])([H])C([H])([H])c4nc([H])c([H])c([H])c4[H])c3c([H])c2n1


 51 58  0  0  0  0  0  0  0  0999 V2000
    4.7661  -51.0296  -24.4205 C   0  0  0  0  0  0  0  0  0  0  0  0
    4.1054  -52.1819  -24.6984 C   0  0  0  0  0  0  0  0  0  0  0  0
    2.7665  -52.4267  -24.3657 C   0  0  0  0  0  0  0  0  0  0  0  0
    2.0466  -51.4602  -23.7172 C   0  0  0  0  0  0  0  0  0  0  0  0
    2.7088  -50.2515  -23.4166 C   0  0  0  0  0  0  0  0  0  0  0  0
    1.8018  -48.9809  -22.5794 Cl  0  0  0  0  0  0  0  0  0  0  0  0
    4.0100  -50.0380  -23.7500 C   0  0  0  0  0  0  0  0  0  0  0  0
    7.0894  -50.4365  -23.7481 C   0  0  0  0  0  0  0  0  0  0  0  0
    6.8072  -50.3418  -22.5416 O   0  0  0  0  0  0  0  0  0  0  0  0
    6.0977  -50.7730  -24.7200 N   0  0  0  0  0  0  0  0  0  0  0  0
    6.3816  -50.8361  -25.7496 H   0  0  0  0  0  0  0  0  0  0  0  0
    8.4391  -50.2175  -24.2818 C   0  0  0  0  0  0  0  0  0  0  0  0
    8.7993  -47.7922  -27.0266 N   0  0  0  0  0  0  0  0  0  0  0  0
    8.7789  -49.0913  -26.5865 C   0  0  0  0  0  0  0  0  0  0  0  0
    8.5510  -49.1281  -25.2397 C   0  0  0  0  0  0  0  0  0  0  0  0
    8.4313  -47.7691  -24.8643 C   0  0  0  0  0  0  0  0  0  0  0  0
    8.1974  -47.1981  -23.6280 C   0  0  0  0  0  0  0  0  0  0  0  0
    8.1226  -45.8131  -23.5277 C   0  0  0  0  0  0  0  0  0  0  0  0
    8.2817  -45.0422  -24.6554 C   0  0  0  0  0  0  0  0  0  0  0  0
    8.5127  -45.5849  -25.8825 C   0  0  0  0  0  0  0  0  0  0  0  0
    8.5878  -46.9886  -25.9765 C   0  0  0  0  0  0  0  0  0  0  0  0
    7.5089  -48.7865  -32.0704 C   0  0  0  0  0  0  0  0  0  0  0  0
    7.9985  -48.9391  -30.7197 N   0  0  0  0  0  0  0  0  0  0  0  0
    7.1228  -48.3529  -29.7330 C   0  0  0  0  0  0  0  0  0  0  0  0
    7.6988  -47.1039  -29.1129 C   0  0  0  0  0  0  0  0  0  0  0  0
    9.0026  -47.3451  -28.3813 C   0  0  0  0  0  0  0  0  0  0  0  0
    9.8441  -48.2305  -29.2315 C   0  0  0  0  0  0  0  0  0  0  0  0
    9.3046  -48.3714  -30.6537 C   0  0  0  0  0  0  0  0  0  0  0  0
    0.6976  -51.5713  -23.3242 N   0  0  0  0  0  0  0  0  0  0  0  0
    0.0451  -50.8305  -23.7254 H   0  0  0  0  0  0  0  0  0  0  0  0
    0.1060  -52.5141  -22.4866 C   0  0  0  0  0  0  0  0  0  0  0  0
   -0.4150  -53.6874  -22.8822 N   0  0  0  0  0  0  0  0  0  0  0  0
   -0.9896  -54.5883  -22.0810 C   0  0  0  0  0  0  0  0  0  0  0  0
   -1.0661  -54.3217  -20.7580 N   0  0  0  0  0  0  0  0  0  0  0  0
   -0.5744  -53.1747  -20.2569 C   0  0  0  0  0  0  0  0  0  0  0  0
   -0.6657  -52.9203  -18.8953 C   0  0  0  0  0  0  0  0  0  0  0  0
   -0.1725  -51.7517  -18.3512 C   0  0  0  0  0  0  0  0  0  0  0  0
   -0.1345  -51.2646  -17.0999 N   0  0  0  0  0  0  0  0  0  0  0  0
    0.4686  -50.0625  -17.1523 N   0  0  0  0  0  0  0  0  0  0  0  0
    0.8180  -49.7729  -18.4208 C   0  0  0  0  0  0  0  0  0  0  0  0
    0.4153  -50.8391  -19.1923 C   0  0  0  0  0  0  0  0  0  0  0  0
    0.5061  -51.1005  -20.5732 C   0  0  0  0  0  0  0  0  0  0  0  0
    0.0149  -52.2608  -21.1093 C   0  0  0  0  0  0  0  0  0  0  0  0
   -0.5956  -51.8515  -15.8691 C   0  0  0  0  0  0  0  0  0  0  0  0
   -1.7359  -51.0724  -15.3101 C   0  0  0  0  0  0  0  0  0  0  0  0
   -2.9258  -51.9002  -15.1591 C   0  0  0  0  0  0  0  0  0  0  0  0
   -3.5377  -52.4655  -16.2810 C   0  0  0  0  0  0  0  0  0  0  0  0
   -4.6649  -53.2360  -16.1324 C   0  0  0  0  0  0  0  0  0  0  0  0
   -5.2116  -53.4669  -14.8940 C   0  0  0  0  0  0  0  0  0  0  0  0
   -4.5819  -52.8911  -13.7900 C   0  0  0  0  0  0  0  0  0  0  0  0
   -3.4768  -52.1383  -13.9517 N   0  0  0  0  0  0  0  0  0  0  0  0
 22 23  1  0  0  0
 23 24  1  0  0  0
 24 25  1  0  0  0
 25 26  1  0  0  0
 26 27  1  0  0  0
 27 28  1  0  0  0
 26 13  1  0  0  0
 13 14  1  0  0  0
 14 15  2  0  0  0
 15 12  1  0  0  0
 12  8  1  0  0  0
  8  9  2  0  0  0
  8 10  1  0  0  0
 10  1  1  0  0  0
  1  2  2  0  0  0
  2  3  1  0  0  0
  3  4  2  0  0  0
  4 29  1  0  0  0
 29 31  1  0  0  0
 31 32  2  0  0  0
 32 33  1  0  0  0
 33 34  2  0  0  0
 34 35  1  0  0  0
 35 36  2  0  0  0
 36 37  1  0  0  0
 37 38  1  0  0  0
 38 44  1  0  0  0
 44 45  1  0  0  0
 45 46  1  0  0  0
 46 47  2  0  0  0
 47 48  1  0  0  0
 48 49  2  0  0  0
 49 50  1  0  0  0
 50 51  2  0  0  0
 38 39  1  0  0  0
 39 40  2  0  0  0
 40 41  1  0  0  0
 41 42  1  0  0  0
 42 43  2  0  0  0
  4  5  1  0  0  0
  5  6  1  0  0  0
  5  7  2  0  0  0
 15 16  1  0  0  0
 16 17  2  0  0  0
 17 18  1  0  0  0
 18 19  2  0  0  0
 19 20  1  0  0  0
 20 21  2  0  0  0
 28 23  1  0  0  0
 21 13  1  0  0  0
  7  1  1  0  0  0
 21 16  1  0  0  0
 43 31  1  0  0  0
 43 35  1  0  0  0
 41 37  2  0  0  0
 51 46  1  0  0  0
 10 11  1  0  0  0
 29 30  1  0  0  0
M  END
> <minimizedAffinity>
-8.97409

> <CNNscore>
0.2442552596

> <CNNaffinity>
7.5091261864

> <CNN_VS>
1.8341435194

> <CNNaffinity_variance>
0.0134950131

$$$$
[H]c1nc(N([H])c2c([H])c([H])c(N([H])C(=O)C([H])([H])c3c([H])n(C4([H])C([H])([H])C([H])([H])N(C([H])([H])[H])C([H])([H])C4([H])[H])c4c([H])c([H])c([H])c([H])c34)c([H])c2Cl)c2c([H])c3c([H])nn(C([H])([H])C([H])([H])c4nc([H])c([H])c([H])c4[H])c3c([H])c2n1


 51 58  0  0  0  0  0  0  0  0999 V2000
   -3.9293  -52.6318  -15.6063 C   0  0  0  0  0  0  0  0  0  0  0  0
   -3.4442  -53.1488  -16.7634 C   0  0  0  0  0  0  0  0  0  0  0  0
   -2.1636  -52.8910  -17.2701 C   0  0  0  0  0  0  0  0  0  0  0  0
   -1.3187  -52.0675  -16.5766 C   0  0  0  0  0  0  0  0  0  0  0  0
   -1.7972  -51.5166  -15.3695 C   0  0  0  0  0  0  0  0  0  0  0  0
   -0.7251  -50.4484  -14.4488 Cl  0  0  0  0  0  0  0  0  0  0  0  0
   -3.0452  -51.7820  -14.8986 C   0  0  0  0  0  0  0  0  0  0  0  0
   -5.4966  -53.7818  -14.0497 C   0  0  0  0  0  0  0  0  0  0  0  0
   -4.6052  -54.4708  -13.5253 O   0  0  0  0  0  0  0  0  0  0  0  0
   -5.2016  -52.8548  -15.0960 N   0  0  0  0  0  0  0  0  0  0  0  0
   -6.0001  -52.2870  -15.5257 H   0  0  0  0  0  0  0  0  0  0  0  0
   -6.9085  -53.8503  -13.6544 C   0  0  0  0  0  0  0  0  0  0  0  0
   -8.1668  -57.3022  -13.8711 N   0  0  0  0  0  0  0  0  0  0  0  0
   -7.2601  -56.3988  -13.3774 C   0  0  0  0  0  0  0  0  0  0  0  0
   -7.5383  -55.1473  -13.8499 C   0  0  0  0  0  0  0  0  0  0  0  0
   -8.6763  -55.3246  -14.6719 C   0  0  0  0  0  0  0  0  0  0  0  0
   -9.3999  -54.4082  -15.4105 C   0  0  0  0  0  0  0  0  0  0  0  0
  -10.4960  -54.8481  -16.1448 C   0  0  0  0  0  0  0  0  0  0  0  0
  -10.8370  -56.1803  -16.1214 C   0  0  0  0  0  0  0  0  0  0  0  0
  -10.1375  -57.0990  -15.4002 C   0  0  0  0  0  0  0  0  0  0  0  0
   -9.0280  -56.6463  -14.6592 C   0  0  0  0  0  0  0  0  0  0  0  0
   -5.1502  -61.5013  -12.7043 C   0  0  0  0  0  0  0  0  0  0  0  0
   -5.6960  -60.3422  -13.3723 N   0  0  0  0  0  0  0  0  0  0  0  0
   -6.0227  -59.2695  -12.4631 C   0  0  0  0  0  0  0  0  0  0  0  0
   -7.5103  -59.0759  -12.3025 C   0  0  0  0  0  0  0  0  0  0  0  0
   -8.2104  -58.7161  -13.5963 C   0  0  0  0  0  0  0  0  0  0  0  0
   -7.6686  -59.5965  -14.6668 C   0  0  0  0  0  0  0  0  0  0  0  0
   -6.8399  -60.7555  -14.1160 C   0  0  0  0  0  0  0  0  0  0  0  0
   -0.0090  -51.7234  -16.9679 N   0  0  0  0  0  0  0  0  0  0  0  0
    0.7678  -52.1332  -16.3645 H   0  0  0  0  0  0  0  0  0  0  0  0
    0.4039  -50.9241  -18.0314 C   0  0  0  0  0  0  0  0  0  0  0  0
    0.8964  -49.6790  -17.9228 N   0  0  0  0  0  0  0  0  0  0  0  0
    1.2849  -48.9089  -18.9426 C   0  0  0  0  0  0  0  0  0  0  0  0
    1.1846  -49.3993  -20.1982 N   0  0  0  0  0  0  0  0  0  0  0  0
    0.7045  -50.6361  -20.4184 C   0  0  0  0  0  0  0  0  0  0  0  0
    0.6079  -51.1188  -21.7163 C   0  0  0  0  0  0  0  0  0  0  0  0
    0.1175  -52.3827  -21.9749 C   0  0  0  0  0  0  0  0  0  0  0  0
   -0.0811  -53.0780  -23.1070 N   0  0  0  0  0  0  0  0  0  0  0  0
   -0.5919  -54.2746  -22.7621 N   0  0  0  0  0  0  0  0  0  0  0  0
   -0.7231  -54.3555  -21.4238 C   0  0  0  0  0  0  0  0  0  0  0  0
   -0.2757  -53.1587  -20.9122 C   0  0  0  0  0  0  0  0  0  0  0  0
   -0.1764  -52.6656  -19.5967 C   0  0  0  0  0  0  0  0  0  0  0  0
    0.3101  -51.4107  -19.3443 C   0  0  0  0  0  0  0  0  0  0  0  0
    0.1952  -52.7133  -24.4717 C   0  0  0  0  0  0  0  0  0  0  0  0
    0.0175  -53.8848  -25.3751 C   0  0  0  0  0  0  0  0  0  0  0  0
   -0.3040  -53.4678  -26.7340 C   0  0  0  0  0  0  0  0  0  0  0  0
    0.6576  -53.5561  -27.7441 C   0  0  0  0  0  0  0  0  0  0  0  0
    0.3511  -53.1516  -29.0203 C   0  0  0  0  0  0  0  0  0  0  0  0
   -0.8915  -52.6566  -29.3314 C   0  0  0  0  0  0  0  0  0  0  0  0
   -1.8336  -52.5785  -28.3051 C   0  0  0  0  0  0  0  0  0  0  0  0
   -1.5182  -52.9797  -27.0586 N   0  0  0  0  0  0  0  0  0  0  0  0
 22 23  1  0  0  0
 23 24  1  0  0  0
 24 25  1  0  0  0
 25 26  1  0  0  0
 26 27  1  0  0  0
 27 28  1  0  0  0
 26 13  1  0  0  0
 13 14  1  0  0  0
 14 15  2  0  0  0
 15 12  1  0  0  0
 12  8  1  0  0  0
  8  9  2  0  0  0
  8 10  1  0  0  0
 10  1  1  0  0  0
  1  2  2  0  0  0
  2  3  1  0  0  0
  3  4  2  0  0  0
  4 29  1  0  0  0
 29 31  1  0  0  0
 31 32  2  0  0  0
 32 33  1  0  0  0
 33 34  2  0  0  0
 34 35  1  0  0  0
 35 36  2  0  0  0
 36 37  1  0  0  0
 37 38  1  0  0  0
 38 44  1  0  0  0
 44 45  1  0  0  0
 45 46  1  0  0  0
 46 47  2  0  0  0
 47 48  1  0  0  0
 48 49  2  0  0  0
 49 50  1  0  0  0
 50 51  2  0  0  0
 38 39  1  0  0  0
 39 40  2  0  0  0
 40 41  1  0  0  0
 41 42  1  0  0  0
 42 43  2  0  0  0
  4  5  1  0  0  0
  5  6  1  0  0  0
  5  7  2  0  0  0
 15 16  1  0  0  0
 16 17  2  0  0  0
 17 18  1  0  0  0
 18 19  2  0  0  0
 19 20  1  0  0  0
 20 21  2  0  0  0
 28 23  1  0  0  0
 21 13  1  0  0  0
  7  1  1  0  0  0
 21 16  1  0  0  0
 43 31  1  0  0  0
 43 35  1  0  0  0
 41 37  2  0  0  0
 51 46  1  0  0  0
 10 11  1  0  0  0
 29 30  1  0  0  0
M  END
> <minimizedAffinity>
-10.12509

> <CNNscore>
0.1653804332

> <CNNaffinity>
7.5871520042

> <CNN_VS>
1.2547664642

> <CNNaffinity_variance>
0.0421465635

$$$$
[H]c1nc(N([H])c2c([H])c([H])c(N([H])C(=O)C([H])([H])c3c([H])n(C4([H])C([H])([H])C([H])([H])N(C([H])([H])[H])C([H])([H])C4([H])[H])c4c([H])c([H])c([H])c([H])c34)c([H])c2Cl)c2c([H])c3c([H])nn(C([H])([H])C([H])([H])c4nc([H])c([H])c([H])c4[H])c3c([H])c2n1


 51 58  0  0  0  0  0  0  0  0999 V2000
   -3.9788  -52.6641  -15.7900 C   0  0  0  0  0  0  0  0  0  0  0  0
   -3.4108  -53.2780  -16.8586 C   0  0  0  0  0  0  0  0  0  0  0  0
   -2.1090  -53.0305  -17.3141 C   0  0  0  0  0  0  0  0  0  0  0  0
   -1.3300  -52.1148  -16.6602 C   0  0  0  0  0  0  0  0  0  0  0  0
   -1.8954  -51.4620  -15.5450 C   0  0  0  0  0  0  0  0  0  0  0  0
   -0.9099  -50.2729  -14.6772 Cl  0  0  0  0  0  0  0  0  0  0  0  0
   -3.1622  -51.7195  -15.1224 C   0  0  0  0  0  0  0  0  0  0  0  0
   -5.6036  -53.6730  -14.1951 C   0  0  0  0  0  0  0  0  0  0  0  0
   -4.7248  -54.2480  -13.5308 O   0  0  0  0  0  0  0  0  0  0  0  0
   -5.2733  -52.8763  -15.3341 N   0  0  0  0  0  0  0  0  0  0  0  0
   -6.0615  -52.4050  -15.8829 H   0  0  0  0  0  0  0  0  0  0  0  0
   -7.0354  -53.7533  -13.8818 C   0  0  0  0  0  0  0  0  0  0  0  0
   -8.0926  -57.2678  -14.1572 N   0  0  0  0  0  0  0  0  0  0  0  0
   -7.2336  -56.2567  -14.5055 C   0  0  0  0  0  0  0  0  0  0  0  0
   -7.5865  -55.0998  -13.8699 C   0  0  0  0  0  0  0  0  0  0  0  0
   -8.7222  -55.4506  -13.1022 C   0  0  0  0  0  0  0  0  0  0  0  0
   -9.5043  -54.6860  -12.2580 C   0  0  0  0  0  0  0  0  0  0  0  0
  -10.5815  -55.2823  -11.6114 C   0  0  0  0  0  0  0  0  0  0  0  0
  -10.8460  -56.6152  -11.8235 C   0  0  0  0  0  0  0  0  0  0  0  0
  -10.0877  -57.3859  -12.6508 C   0  0  0  0  0  0  0  0  0  0  0  0
   -8.9984  -56.7750  -13.3029 C   0  0  0  0  0  0  0  0  0  0  0  0
  -11.1048  -61.3337  -15.7350 C   0  0  0  0  0  0  0  0  0  0  0  0
  -10.5460  -60.2602  -14.9458 N   0  0  0  0  0  0  0  0  0  0  0  0
  -10.2685  -59.0752  -15.7220 C   0  0  0  0  0  0  0  0  0  0  0  0
   -8.7909  -58.8380  -15.9134 C   0  0  0  0  0  0  0  0  0  0  0  0
   -8.0437  -58.6343  -14.6120 C   0  0  0  0  0  0  0  0  0  0  0  0
   -8.5319  -59.6527  -13.6429 C   0  0  0  0  0  0  0  0  0  0  0  0
   -9.3686  -60.7458  -14.3053 C   0  0  0  0  0  0  0  0  0  0  0  0
   -0.0085  -51.7690  -17.0082 N   0  0  0  0  0  0  0  0  0  0  0  0
    0.7498  -52.1980  -16.3946 H   0  0  0  0  0  0  0  0  0  0  0  0
    0.4367  -50.9466  -18.0405 C   0  0  0  0  0  0  0  0  0  0  0  0
    0.8922  -49.6914  -17.8932 N   0  0  0  0  0  0  0  0  0  0  0  0
    1.3117  -48.8993  -18.8834 C   0  0  0  0  0  0  0  0  0  0  0  0
    1.2860  -49.3761  -20.1480 N   0  0  0  0  0  0  0  0  0  0  0  0
    0.8483  -50.6211  -20.4060 C   0  0  0  0  0  0  0  0  0  0  0  0
    0.8283  -51.0896  -21.7126 C   0  0  0  0  0  0  0  0  0  0  0  0
    0.3828  -52.3616  -22.0098 C   0  0  0  0  0  0  0  0  0  0  0  0
    0.2580  -53.0471  -23.1583 N   0  0  0  0  0  0  0  0  0  0  0  0
   -0.2395  -54.2599  -22.8532 N   0  0  0  0  0  0  0  0  0  0  0  0
   -0.4349  -54.3609  -21.5240 C   0  0  0  0  0  0  0  0  0  0  0  0
   -0.0433  -53.1602  -20.9770 C   0  0  0  0  0  0  0  0  0  0  0  0
   -0.0217  -52.6816  -19.6527 C   0  0  0  0  0  0  0  0  0  0  0  0
    0.4203  -51.4186  -19.3620 C   0  0  0  0  0  0  0  0  0  0  0  0
    0.5927  -52.6586  -24.5033 C   0  0  0  0  0  0  0  0  0  0  0  0
   -0.5166  -51.8741  -25.1151 C   0  0  0  0  0  0  0  0  0  0  0  0
   -0.7139  -52.2296  -26.5146 C   0  0  0  0  0  0  0  0  0  0  0  0
   -1.9969  -52.2260  -27.0683 C   0  0  0  0  0  0  0  0  0  0  0  0
   -2.1768  -52.5722  -28.3850 C   0  0  0  0  0  0  0  0  0  0  0  0
   -1.1144  -52.9260  -29.1800 C   0  0  0  0  0  0  0  0  0  0  0  0
    0.1562  -52.9219  -28.6033 C   0  0  0  0  0  0  0  0  0  0  0  0
    0.3167  -52.5795  -27.3106 N   0  0  0  0  0  0  0  0  0  0  0  0
 22 23  1  0  0  0
 23 24  1  0  0  0
 24 25  1  0  0  0
 25 26  1  0  0  0
 26 27  1  0  0  0
 27 28  1  0  0  0
 26 13  1  0  0  0
 13 14  1  0  0  0
 14 15  2  0  0  0
 15 12  1  0  0  0
 12  8  1  0  0  0
  8  9  2  0  0  0
  8 10  1  0  0  0
 10  1  1  0  0  0
  1  2  2  0  0  0
  2  3  1  0  0  0
  3  4  2  0  0  0
  4 29  1  0  0  0
 29 31  1  0  0  0
 31 32  2  0  0  0
 32 33  1  0  0  0
 33 34  2  0  0  0
 34 35  1  0  0  0
 35 36  2  0  0  0
 36 37  1  0  0  0
 37 38  1  0  0  0
 38 44  1  0  0  0
 44 45  1  0  0  0
 45 46  1  0  0  0
 46 47  2  0  0  0
 47 48  1  0  0  0
 48 49  2  0  0  0
 49 50  1  0  0  0
 50 51  2  0  0  0
 38 39  1  0  0  0
 39 40  2  0  0  0
 40 41  1  0  0  0
 41 42  1  0  0  0
 42 43  2  0  0  0
  4  5  1  0  0  0
  5  6  1  0  0  0
  5  7  2  0  0  0
 15 16  1  0  0  0
 16 17  2  0  0  0
 17 18  1  0  0  0
 18 19  2  0  0  0
 19 20  1  0  0  0
 20 21  2  0  0  0
 28 23  1  0  0  0
 21 13  1  0  0  0
  7  1  1  0  0  0
 21 16  1  0  0  0
 43 31  1  0  0  0
 43 35  1  0  0  0
 41 37  2  0  0  0
 51 46  1  0  0  0
 10 11  1  0  0  0
 29 30  1  0  0  0
M  END
> <minimizedAffinity>
-8.52945

> <CNNscore>
0.1540377289

> <CNNaffinity>
7.4485597610

> <CNN_VS>
1.1473592520

> <CNNaffinity_variance>
0.0870844796

$$$$
[H]c1nc(N([H])c2c([H])c([H])c(N([H])C(=O)C([H])([H])c3c([H])n(C4([H])C([H])([H])C([H])([H])N(C([H])([H])[H])C([H])([H])C4([H])[H])c4c([H])c([H])c([H])c([H])c34)c([H])c2Cl)c2c([H])c3c([H])nn(C([H])([H])C([H])([H])c4nc([H])c([H])c([H])c4[H])c3c([H])c2n1


 51 58  0  0  0  0  0  0  0  0999 V2000
    5.2923  -46.5397  -26.2600 C   0  0  0  0  0  0  0  0  0  0  0  0
    5.4455  -47.6996  -25.5724 C   0  0  0  0  0  0  0  0  0  0  0  0
    4.5935  -48.1304  -24.5469 C   0  0  0  0  0  0  0  0  0  0  0  0
    3.5246  -47.3542  -24.1894 C   0  0  0  0  0  0  0  0  0  0  0  0
    3.3410  -46.1429  -24.8886 C   0  0  0  0  0  0  0  0  0  0  0  0
    1.9645  -45.1181  -24.4493 Cl  0  0  0  0  0  0  0  0  0  0  0  0
    4.1826  -45.7464  -25.8807 C   0  0  0  0  0  0  0  0  0  0  0  0
    7.1829  -45.1310  -27.0616 C   0  0  0  0  0  0  0  0  0  0  0  0
    7.4008  -44.6364  -25.9426 O   0  0  0  0  0  0  0  0  0  0  0  0
    6.1357  -46.0816  -27.2637 N   0  0  0  0  0  0  0  0  0  0  0  0
    5.9769  -46.4767  -28.2452 H   0  0  0  0  0  0  0  0  0  0  0  0
    7.9628  -44.7954  -28.2591 C   0  0  0  0  0  0  0  0  0  0  0  0
    6.9250  -46.8903  -31.1017 N   0  0  0  0  0  0  0  0  0  0  0  0
    6.6033  -46.0348  -30.0788 C   0  0  0  0  0  0  0  0  0  0  0  0
    7.7319  -45.6623  -29.4046 C   0  0  0  0  0  0  0  0  0  0  0  0
    8.7808  -46.3402  -30.0697 C   0  0  0  0  0  0  0  0  0  0  0  0
   10.1411  -46.3436  -29.8276 C   0  0  0  0  0  0  0  0  0  0  0  0
   10.9697  -47.1074  -30.6424 C   0  0  0  0  0  0  0  0  0  0  0  0
   10.4219  -47.8409  -31.6687 C   0  0  0  0  0  0  0  0  0  0  0  0
    9.0846  -47.8510  -31.9241 C   0  0  0  0  0  0  0  0  0  0  0  0
    8.2513  -47.0753  -31.0943 C   0  0  0  0  0  0  0  0  0  0  0  0
    2.8575  -45.8521  -34.3376 C   0  0  0  0  0  0  0  0  0  0  0  0
    3.6847  -45.9586  -33.1578 N   0  0  0  0  0  0  0  0  0  0  0  0
    5.0592  -45.5879  -33.3977 C   0  0  0  0  0  0  0  0  0  0  0  0
    5.9939  -46.7719  -33.3724 C   0  0  0  0  0  0  0  0  0  0  0  0
    6.0121  -47.4920  -32.0403 C   0  0  0  0  0  0  0  0  0  0  0  0
    4.6047  -47.6232  -31.5748 C   0  0  0  0  0  0  0  0  0  0  0  0
    3.5879  -47.2933  -32.6661 C   0  0  0  0  0  0  0  0  0  0  0  0
    2.5907  -47.6640  -23.1802 N   0  0  0  0  0  0  0  0  0  0  0  0
    1.6514  -48.0288  -23.5269 H   0  0  0  0  0  0  0  0  0  0  0  0
    2.7298  -47.5580  -21.7982 C   0  0  0  0  0  0  0  0  0  0  0  0
    3.4350  -46.6105  -21.1582 N   0  0  0  0  0  0  0  0  0  0  0  0
    3.5756  -46.5130  -19.8336 C   0  0  0  0  0  0  0  0  0  0  0  0
    2.9682  -47.4312  -19.0493 N   0  0  0  0  0  0  0  0  0  0  0  0
    2.2370  -48.4224  -19.5889 C   0  0  0  0  0  0  0  0  0  0  0  0
    1.6237  -49.3560  -18.7648 C   0  0  0  0  0  0  0  0  0  0  0  0
    0.8687  -50.3860  -19.2884 C   0  0  0  0  0  0  0  0  0  0  0  0
    0.1873  -51.4013  -18.7321 N   0  0  0  0  0  0  0  0  0  0  0  0
   -0.3666  -52.1121  -19.7319 N   0  0  0  0  0  0  0  0  0  0  0  0
   -0.0494  -51.5655  -20.9217 C   0  0  0  0  0  0  0  0  0  0  0  0
    0.7360  -50.4677  -20.6528 C   0  0  0  0  0  0  0  0  0  0  0  0
    1.3596  -49.5188  -21.4859 C   0  0  0  0  0  0  0  0  0  0  0  0
    2.1086  -48.4988  -20.9626 C   0  0  0  0  0  0  0  0  0  0  0  0
   -0.0000  -51.7330  -17.3441 C   0  0  0  0  0  0  0  0  0  0  0  0
   -1.1569  -52.6568  -17.1759 C   0  0  0  0  0  0  0  0  0  0  0  0
   -2.2505  -52.0179  -16.4550 C   0  0  0  0  0  0  0  0  0  0  0  0
   -3.5355  -52.5656  -16.4948 C   0  0  0  0  0  0  0  0  0  0  0  0
   -4.5637  -51.9525  -15.8217 C   0  0  0  0  0  0  0  0  0  0  0  0
   -4.3575  -50.8011  -15.1022 C   0  0  0  0  0  0  0  0  0  0  0  0
   -3.0656  -50.2744  -15.0785 C   0  0  0  0  0  0  0  0  0  0  0  0
   -2.0674  -50.8874  -15.7434 N   0  0  0  0  0  0  0  0  0  0  0  0
 22 23  1  0  0  0
 23 24  1  0  0  0
 24 25  1  0  0  0
 25 26  1  0  0  0
 26 27  1  0  0  0
 27 28  1  0  0  0
 26 13  1  0  0  0
 13 14  1  0  0  0
 14 15  2  0  0  0
 15 12  1  0  0  0
 12  8  1  0  0  0
  8  9  2  0  0  0
  8 10  1  0  0  0
 10  1  1  0  0  0
  1  2  2  0  0  0
  2  3  1  0  0  0
  3  4  2  0  0  0
  4 29  1  0  0  0
 29 31  1  0  0  0
 31 32  2  0  0  0
 32 33  1  0  0  0
 33 34  2  0  0  0
 34 35  1  0  0  0
 35 36  2  0  0  0
 36 37  1  0  0  0
 37 38  1  0  0  0
 38 44  1  0  0  0
 44 45  1  0  0  0
 45 46  1  0  0  0
 46 47  2  0  0  0
 47 48  1  0  0  0
 48 49  2  0  0  0
 49 50  1  0  0  0
 50 51  2  0  0  0
 38 39  1  0  0  0
 39 40  2  0  0  0
 40 41  1  0  0  0
 41 42  1  0  0  0
 42 43  2  0  0  0
  4  5  1  0  0  0
  5  6  1  0  0  0
  5  7  2  0  0  0
 15 16  1  0  0  0
 16 17  2  0  0  0
 17 18  1  0  0  0
 18 19  2  0  0  0
 19 20  1  0  0  0
 20 21  2  0  0  0
 28 23  1  0  0  0
 21 13  1  0  0  0
  7  1  1  0  0  0
 21 16  1  0  0  0
 43 31  1  0  0  0
 43 35  1  0  0  0
 41 37  2  0  0  0
 51 46  1  0  0  0
 10 11  1  0  0  0
 29 30  1  0  0  0
M  END
> <minimizedAffinity>
-7.81178

> <CNNscore>
0.1141714752

> <CNNaffinity>
6.7604494095

> <CNN_VS>
0.7718504667

> <CNNaffinity_variance>
0.1621343791

$$$$
[H]c1nc(N([H])c2c([H])c([H])c(N([H])C(=O)C([H])([H])c3c([H])n(C4([H])C([H])([H])C([H])([H])N(C([H])([H])[H])C([H])([H])C4([H])[H])c4c([H])c([H])c([H])c([H])c34)c([H])c2Cl)c2c([H])c3c([H])nn(C([H])([H])C([H])([H])c4nc([H])c([H])c([H])c4[H])c3c([H])c2n1


 51 58  0  0  0  0  0  0  0  0999 V2000
    1.8774  -49.2944  -19.2155 C   0  0  0  0  0  0  0  0  0  0  0  0
    1.0505  -48.9710  -20.2418 C   0  0  0  0  0  0  0  0  0  0  0  0
    1.4787  -48.4448  -21.4677 C   0  0  0  0  0  0  0  0  0  0  0  0
    2.8139  -48.2306  -21.6786 C   0  0  0  0  0  0  0  0  0  0  0  0
    3.6964  -48.5588  -20.6283 C   0  0  0  0  0  0  0  0  0  0  0  0
    5.4308  -48.2943  -20.8731 Cl  0  0  0  0  0  0  0  0  0  0  0  0
    3.2558  -49.0683  -19.4468 C   0  0  0  0  0  0  0  0  0  0  0  0
    0.7194  -50.9963  -17.8141 C   0  0  0  0  0  0  0  0  0  0  0  0
    0.3598  -51.6785  -18.7886 O   0  0  0  0  0  0  0  0  0  0  0  0
    1.4746  -49.7956  -17.9846 N   0  0  0  0  0  0  0  0  0  0  0  0
    1.7569  -49.2337  -17.1190 H   0  0  0  0  0  0  0  0  0  0  0  0
    0.4112  -51.3492  -16.4230 C   0  0  0  0  0  0  0  0  0  0  0  0
   -3.1470  -51.2222  -15.4907 N   0  0  0  0  0  0  0  0  0  0  0  0
   -2.0547  -51.9399  -15.9074 C   0  0  0  0  0  0  0  0  0  0  0  0
   -0.9686  -51.1189  -16.0227 C   0  0  0  0  0  0  0  0  0  0  0  0
   -1.4506  -49.8410  -15.6528 C   0  0  0  0  0  0  0  0  0  0  0  0
   -0.8002  -48.6241  -15.5812 C   0  0  0  0  0  0  0  0  0  0  0  0
   -1.5144  -47.4998  -15.1815 C   0  0  0  0  0  0  0  0  0  0  0  0
   -2.8477  -47.6203  -14.8664 C   0  0  0  0  0  0  0  0  0  0  0  0
   -3.5069  -48.8098  -14.9303 C   0  0  0  0  0  0  0  0  0  0  0  0
   -2.7772  -49.9444  -15.3365 C   0  0  0  0  0  0  0  0  0  0  0  0
   -5.8367  -55.0026  -12.9280 C   0  0  0  0  0  0  0  0  0  0  0  0
   -4.8998  -54.3300  -13.7982 N   0  0  0  0  0  0  0  0  0  0  0  0
   -4.2856  -53.1778  -13.1823 C   0  0  0  0  0  0  0  0  0  0  0  0
   -4.7731  -51.8759  -13.7685 C   0  0  0  0  0  0  0  0  0  0  0  0
   -4.4714  -51.7343  -15.2458 C   0  0  0  0  0  0  0  0  0  0  0  0
   -4.7911  -53.0314  -15.9017 C   0  0  0  0  0  0  0  0  0  0  0  0
   -5.5843  -53.9720  -14.9964 C   0  0  0  0  0  0  0  0  0  0  0  0
    3.3816  -47.7090  -22.8586 N   0  0  0  0  0  0  0  0  0  0  0  0
    3.8662  -46.7660  -22.7512 H   0  0  0  0  0  0  0  0  0  0  0  0
    3.3943  -48.2574  -24.1390 C   0  0  0  0  0  0  0  0  0  0  0  0
    3.2519  -49.5617  -24.4277 N   0  0  0  0  0  0  0  0  0  0  0  0
    3.2721  -50.0893  -25.6544 C   0  0  0  0  0  0  0  0  0  0  0  0
    3.4489  -49.2643  -26.7105 N   0  0  0  0  0  0  0  0  0  0  0  0
    3.6010  -47.9401  -26.5323 C   0  0  0  0  0  0  0  0  0  0  0  0
    3.7836  -47.1116  -27.6309 C   0  0  0  0  0  0  0  0  0  0  0  0
    3.9447  -45.7491  -27.4806 C   0  0  0  0  0  0  0  0  0  0  0  0
    4.1368  -44.7443  -28.3513 N   0  0  0  0  0  0  0  0  0  0  0  0
    4.2315  -43.6056  -27.6401 N   0  0  0  0  0  0  0  0  0  0  0  0
    4.1024  -43.8672  -26.3248 C   0  0  0  0  0  0  0  0  0  0  0  0
    3.9200  -45.2266  -26.2108 C   0  0  0  0  0  0  0  0  0  0  0  0
    3.7345  -46.0703  -25.0984 C   0  0  0  0  0  0  0  0  0  0  0  0
    3.5758  -47.4217  -25.2517 C   0  0  0  0  0  0  0  0  0  0  0  0
    4.2111  -44.7733  -29.7885 C   0  0  0  0  0  0  0  0  0  0  0  0
    3.0024  -45.4272  -30.3642 C   0  0  0  0  0  0  0  0  0  0  0  0
    3.2838  -46.0193  -31.6658 C   0  0  0  0  0  0  0  0  0  0  0  0
    2.4474  -47.0115  -32.1841 C   0  0  0  0  0  0  0  0  0  0  0  0
    2.7245  -47.5727  -33.4066 C   0  0  0  0  0  0  0  0  0  0  0  0
    3.8161  -47.1781  -34.1404 C   0  0  0  0  0  0  0  0  0  0  0  0
    4.6356  -46.1860  -33.6007 C   0  0  0  0  0  0  0  0  0  0  0  0
    4.3504  -45.6448  -32.4007 N   0  0  0  0  0  0  0  0  0  0  0  0
 22 23  1  0  0  0
 23 24  1  0  0  0
 24 25  1  0  0  0
 25 26  1  0  0  0
 26 27  1  0  0  0
 27 28  1  0  0  0
 26 13  1  0  0  0
 13 14  1  0  0  0
 14 15  2  0  0  0
 15 12  1  0  0  0
 12  8  1  0  0  0
  8  9  2  0  0  0
  8 10  1  0  0  0
 10  1  1  0  0  0
  1  2  2  0  0  0
  2  3  1  0  0  0
  3  4  2  0  0  0
  4 29  1  0  0  0
 29 31  1  0  0  0
 31 32  2  0  0  0
 32 33  1  0  0  0
 33 34  2  0  0  0
 34 35  1  0  0  0
 35 36  2  0  0  0
 36 37  1  0  0  0
 37 38  1  0  0  0
 38 44  1  0  0  0
 44 45  1  0  0  0
 45 46  1  0  0  0
 46 47  2  0  0  0
 47 48  1  0  0  0
 48 49  2  0  0  0
 49 50  1  0  0  0
 50 51  2  0  0  0
 38 39  1  0  0  0
 39 40  2  0  0  0
 40 41  1  0  0  0
 41 42  1  0  0  0
 42 43  2  0  0  0
  4  5  1  0  0  0
  5  6  1  0  0  0
  5  7  2  0  0  0
 15 16  1  0  0  0
 16 17  2  0  0  0
 17 18  1  0  0  0
 18 19  2  0  0  0
 19 20  1  0  0  0
 20 21  2  0  0  0
 28 23  1  0  0  0
 21 13  1  0  0  0
  7  1  1  0  0  0
 21 16  1  0  0  0
 43 31  1  0  0  0
 43 35  1  0  0  0
 41 37  2  0  0  0
 51 46  1  0  0  0
 10 11  1  0  0  0
 29 30  1  0  0  0
M  END
> <minimizedAffinity>
-9.04417

> <CNNscore>
0.0970975310

> <CNNaffinity>
6.3376817703

> <CNN_VS>
0.6153732538

> <CNNaffinity_variance>
0.1208199859

$$$$
[H]c1nc(N([H])c2c([H])c([H])c(N([H])C(=O)C([H])([H])c3c([H])n(C4([H])C([H])([H])C([H])([H])N(C([H])([H])[H])C([H])([H])C4([H])[H])c4c([H])c([H])c([H])c([H])c34)c([H])c2Cl)c2c([H])c3c([H])nn(C([H])([H])C([H])([H])c4nc([H])c([H])c([H])c4[H])c3c([H])c2n1


 51 58  0  0  0  0  0  0  0  0999 V2000
    3.4935  -48.4759  -26.4793 C   0  0  0  0  0  0  0  0  0  0  0  0
    3.3221  -48.3256  -25.1416 C   0  0  0  0  0  0  0  0  0  0  0  0
    3.0796  -49.3797  -24.2511 C   0  0  0  0  0  0  0  0  0  0  0  0
    3.0051  -50.6603  -24.7284 C   0  0  0  0  0  0  0  0  0  0  0  0
    3.1803  -50.8456  -26.1157 C   0  0  0  0  0  0  0  0  0  0  0  0
    3.0913  -52.4925  -26.7623 Cl  0  0  0  0  0  0  0  0  0  0  0  0
    3.4145  -49.8054  -26.9599 C   0  0  0  0  0  0  0  0  0  0  0  0
    2.8102  -46.3578  -27.5965 C   0  0  0  0  0  0  0  0  0  0  0  0
    1.7393  -46.2738  -26.9718 O   0  0  0  0  0  0  0  0  0  0  0  0
    3.7124  -47.4450  -27.3837 N   0  0  0  0  0  0  0  0  0  0  0  0
    4.6201  -47.4834  -27.9487 H   0  0  0  0  0  0  0  0  0  0  0  0
    3.2445  -45.3703  -28.5919 C   0  0  0  0  0  0  0  0  0  0  0  0
    5.5238  -46.6763  -31.1698 N   0  0  0  0  0  0  0  0  0  0  0  0
    5.3261  -46.1380  -29.9236 C   0  0  0  0  0  0  0  0  0  0  0  0
    3.9942  -45.9174  -29.7125 C   0  0  0  0  0  0  0  0  0  0  0  0
    3.3706  -46.3507  -30.9064 C   0  0  0  0  0  0  0  0  0  0  0  0
    2.0366  -46.3667  -31.2660 C   0  0  0  0  0  0  0  0  0  0  0  0
    1.6814  -46.8526  -32.5196 C   0  0  0  0  0  0  0  0  0  0  0  0
    2.6599  -47.3059  -33.3731 C   0  0  0  0  0  0  0  0  0  0  0  0
    3.9795  -47.2990  -33.0381 C   0  0  0  0  0  0  0  0  0  0  0  0
    4.3321  -46.8048  -31.7667 C   0  0  0  0  0  0  0  0  0  0  0  0
   10.3994  -48.4012  -30.0089 C   0  0  0  0  0  0  0  0  0  0  0  0
    9.1947  -47.6044  -30.0480 N   0  0  0  0  0  0  0  0  0  0  0  0
    7.9910  -48.3992  -29.9890 C   0  0  0  0  0  0  0  0  0  0  0  0
    7.2457  -48.4242  -31.3006 C   0  0  0  0  0  0  0  0  0  0  0  0
    6.7856  -47.0545  -31.7540 C   0  0  0  0  0  0  0  0  0  0  0  0
    7.9076  -46.1019  -31.5341 C   0  0  0  0  0  0  0  0  0  0  0  0
    9.2287  -46.8050  -31.2279 C   0  0  0  0  0  0  0  0  0  0  0  0
    2.7677  -51.8105  -23.9490 N   0  0  0  0  0  0  0  0  0  0  0  0
    3.6402  -52.2875  -23.5658 H   0  0  0  0  0  0  0  0  0  0  0  0
    1.5528  -52.4041  -23.6143 C   0  0  0  0  0  0  0  0  0  0  0  0
    0.7447  -53.0555  -24.4671 N   0  0  0  0  0  0  0  0  0  0  0  0
   -0.4242  -53.6178  -24.1486 C   0  0  0  0  0  0  0  0  0  0  0  0
   -0.8524  -53.5392  -22.8689 N   0  0  0  0  0  0  0  0  0  0  0  0
   -0.1188  -52.9091  -21.9345 C   0  0  0  0  0  0  0  0  0  0  0  0
   -0.5789  -52.8382  -20.6268 C   0  0  0  0  0  0  0  0  0  0  0  0
    0.1499  -52.1968  -19.6457 C   0  0  0  0  0  0  0  0  0  0  0  0
   -0.0593  -51.9840  -18.3359 N   0  0  0  0  0  0  0  0  0  0  0  0
    0.9934  -51.2893  -17.8661 N   0  0  0  0  0  0  0  0  0  0  0  0
    1.8748  -51.0542  -18.8575 C   0  0  0  0  0  0  0  0  0  0  0  0
    1.3494  -51.6260  -19.9939 C   0  0  0  0  0  0  0  0  0  0  0  0
    1.8131  -51.6998  -21.3217 C   0  0  0  0  0  0  0  0  0  0  0  0
    1.0867  -52.3364  -22.2924 C   0  0  0  0  0  0  0  0  0  0  0  0
   -1.1520  -52.4037  -17.4982 C   0  0  0  0  0  0  0  0  0  0  0  0
   -0.9966  -51.8595  -16.1199 C   0  0  0  0  0  0  0  0  0  0  0  0
   -2.1582  -51.0751  -15.7209 C   0  0  0  0  0  0  0  0  0  0  0  0
   -3.4341  -51.6445  -15.7428 C   0  0  0  0  0  0  0  0  0  0  0  0
   -4.5257  -50.8963  -15.3756 C   0  0  0  0  0  0  0  0  0  0  0  0
   -4.3923  -49.5871  -14.9830 C   0  0  0  0  0  0  0  0  0  0  0  0
   -3.1079  -49.0420  -14.9700 C   0  0  0  0  0  0  0  0  0  0  0  0
   -2.0470  -49.7887  -15.3324 N   0  0  0  0  0  0  0  0  0  0  0  0
 22 23  1  0  0  0
 23 24  1  0  0  0
 24 25  1  0  0  0
 25 26  1  0  0  0
 26 27  1  0  0  0
 27 28  1  0  0  0
 26 13  1  0  0  0
 13 14  1  0  0  0
 14 15  2  0  0  0
 15 12  1  0  0  0
 12  8  1  0  0  0
  8  9  2  0  0  0
  8 10  1  0  0  0
 10  1  1  0  0  0
  1  2  2  0  0  0
  2  3  1  0  0  0
  3  4  2  0  0  0
  4 29  1  0  0  0
 29 31  1  0  0  0
 31 32  2  0  0  0
 32 33  1  0  0  0
 33 34  2  0  0  0
 34 35  1  0  0  0
 35 36  2  0  0  0
 36 37  1  0  0  0
 37 38  1  0  0  0
 38 44  1  0  0  0
 44 45  1  0  0  0
 45 46  1  0  0  0
 46 47  2  0  0  0
 47 48  1  0  0  0
 48 49  2  0  0  0
 49 50  1  0  0  0
 50 51  2  0  0  0
 38 39  1  0  0  0
 39 40  2  0  0  0
 40 41  1  0  0  0
 41 42  1  0  0  0
 42 43  2  0  0  0
  4  5  1  0  0  0
  5  6  1  0  0  0
  5  7  2  0  0  0
 15 16  1  0  0  0
 16 17  2  0  0  0
 17 18  1  0  0  0
 18 19  2  0  0  0
 19 20  1  0  0  0
 20 21  2  0  0  0
 28 23  1  0  0  0
 21 13  1  0  0  0
  7  1  1  0  0  0
 21 16  1  0  0  0
 43 31  1  0  0  0
 43 35  1  0  0  0
 41 37  2  0  0  0
 51 46  1  0  0  0
 10 11  1  0  0  0
 29 30  1  0  0  0
M  END
> <minimizedAffinity>
-9.78205

> <CNNscore>
0.0928495750

> <CNNaffinity>
7.1058454514

> <CNN_VS>
0.6597747207

> <CNNaffinity_variance>
0.1214470044

$$$$
[H]c1nc(N([H])c2c([H])c([H])c(N([H])C(=O)C([H])([H])c3c([H])n(C4([H])C([H])([H])C([H])([H])N(C([H])([H])[H])C([H])([H])C4([H])[H])c4c([H])c([H])c([H])c([H])c34)c([H])c2Cl)c2c([H])c3c([H])nn(C([H])([H])C([H])([H])c4nc([H])c([H])c([H])c4[H])c3c([H])c2n1


 51 58  0  0  0  0  0  0  0  0999 V2000
    4.3433  -50.5257  -24.7402 C   0  0  0  0  0  0  0  0  0  0  0  0
    3.9765  -50.5246  -23.4336 C   0  0  0  0  0  0  0  0  0  0  0  0
    2.6910  -50.8367  -22.9720 C   0  0  0  0  0  0  0  0  0  0  0  0
    1.7154  -51.1705  -23.8720 C   0  0  0  0  0  0  0  0  0  0  0  0
    2.0695  -51.1803  -25.2373 C   0  0  0  0  0  0  0  0  0  0  0  0
    0.8280  -51.6105  -26.4254 Cl  0  0  0  0  0  0  0  0  0  0  0  0
    3.3250  -50.8730  -25.6605 C   0  0  0  0  0  0  0  0  0  0  0  0
    6.0741  -48.8609  -25.3993 C   0  0  0  0  0  0  0  0  0  0  0  0
    5.3568  -47.8821  -25.1318 O   0  0  0  0  0  0  0  0  0  0  0  0
    5.6038  -50.1984  -25.2226 N   0  0  0  0  0  0  0  0  0  0  0  0
    6.2511  -51.0126  -25.4728 H   0  0  0  0  0  0  0  0  0  0  0  0
    7.4448  -48.7424  -25.9109 C   0  0  0  0  0  0  0  0  0  0  0  0
    7.2371  -47.9853  -29.5067 N   0  0  0  0  0  0  0  0  0  0  0  0
    6.6230  -48.1433  -28.2903 C   0  0  0  0  0  0  0  0  0  0  0  0
    7.5461  -48.4649  -27.3356 C   0  0  0  0  0  0  0  0  0  0  0  0
    8.7774  -48.4995  -28.0321 C   0  0  0  0  0  0  0  0  0  0  0  0
   10.0549  -48.7705  -27.5809 C   0  0  0  0  0  0  0  0  0  0  0  0
   11.1110  -48.7379  -28.4851 C   0  0  0  0  0  0  0  0  0  0  0  0
   10.8647  -48.4377  -29.8044 C   0  0  0  0  0  0  0  0  0  0  0  0
    9.6138  -48.1675  -30.2690 C   0  0  0  0  0  0  0  0  0  0  0  0
    8.5487  -48.2029  -29.3475 C   0  0  0  0  0  0  0  0  0  0  0  0
    2.6372  -46.4628  -31.6554 C   0  0  0  0  0  0  0  0  0  0  0  0
    3.6349  -47.2155  -30.9304 N   0  0  0  0  0  0  0  0  0  0  0  0
    4.5016  -46.3807  -30.1331 C   0  0  0  0  0  0  0  0  0  0  0  0
    5.9013  -46.2962  -30.6900 C   0  0  0  0  0  0  0  0  0  0  0  0
    6.6026  -47.6370  -30.7528 C   0  0  0  0  0  0  0  0  0  0  0  0
    5.6320  -48.6338  -31.2811 C   0  0  0  0  0  0  0  0  0  0  0  0
    4.3806  -47.9855  -31.8703 C   0  0  0  0  0  0  0  0  0  0  0  0
    0.3850  -51.5056  -23.5485 N   0  0  0  0  0  0  0  0  0  0  0  0
   -0.3616  -50.9175  -24.0305 H   0  0  0  0  0  0  0  0  0  0  0  0
   -0.0822  -52.4966  -22.6883 C   0  0  0  0  0  0  0  0  0  0  0  0
   -0.5538  -53.6961  -23.0673 N   0  0  0  0  0  0  0  0  0  0  0  0
   -1.0096  -54.6436  -22.2438 C   0  0  0  0  0  0  0  0  0  0  0  0
   -1.0070  -54.4008  -20.9140 N   0  0  0  0  0  0  0  0  0  0  0  0
   -0.5553  -53.2311  -20.4283 C   0  0  0  0  0  0  0  0  0  0  0  0
   -0.5639  -53.0020  -19.0592 C   0  0  0  0  0  0  0  0  0  0  0  0
   -0.1089  -51.8112  -18.5302 C   0  0  0  0  0  0  0  0  0  0  0  0
   -0.0118  -51.3398  -17.2760 N   0  0  0  0  0  0  0  0  0  0  0  0
    0.5072  -50.1001  -17.3492 N   0  0  0  0  0  0  0  0  0  0  0  0
    0.7443  -49.7708  -18.6338 C   0  0  0  0  0  0  0  0  0  0  0  0
    0.3563  -50.8504  -19.3942 C   0  0  0  0  0  0  0  0  0  0  0  0
    0.3635  -51.0862  -20.7826 C   0  0  0  0  0  0  0  0  0  0  0  0
   -0.0894  -52.2688  -21.3036 C   0  0  0  0  0  0  0  0  0  0  0  0
   -0.3437  -51.9726  -16.0265 C   0  0  0  0  0  0  0  0  0  0  0  0
   -0.7296  -50.9555  -15.0084 C   0  0  0  0  0  0  0  0  0  0  0  0
   -2.1381  -50.5978  -15.1176 C   0  0  0  0  0  0  0  0  0  0  0  0
   -2.5587  -49.2964  -14.8310 C   0  0  0  0  0  0  0  0  0  0  0  0
   -3.8891  -48.9689  -14.9258 C   0  0  0  0  0  0  0  0  0  0  0  0
   -4.8269  -49.8998  -15.2996 C   0  0  0  0  0  0  0  0  0  0  0  0
   -4.3814  -51.1920  -15.5801 C   0  0  0  0  0  0  0  0  0  0  0  0
   -3.0732  -51.4978  -15.4831 N   0  0  0  0  0  0  0  0  0  0  0  0
 22 23  1  0  0  0
 23 24  1  0  0  0
 24 25  1  0  0  0
 25 26  1  0  0  0
 26 27  1  0  0  0
 27 28  1  0  0  0
 26 13  1  0  0  0
 13 14  1  0  0  0
 14 15  2  0  0  0
 15 12  1  0  0  0
 12  8  1  0  0  0
  8  9  2  0  0  0
  8 10  1  0  0  0
 10  1  1  0  0  0
  1  2  2  0  0  0
  2  3  1  0  0  0
  3  4  2  0  0  0
  4 29  1  0  0  0
 29 31  1  0  0  0
 31 32  2  0  0  0
 32 33  1  0  0  0
 33 34  2  0  0  0
 34 35  1  0  0  0
 35 36  2  0  0  0
 36 37  1  0  0  0
 37 38  1  0  0  0
 38 44  1  0  0  0
 44 45  1  0  0  0
 45 46  1  0  0  0
 46 47  2  0  0  0
 47 48  1  0  0  0
 48 49  2  0  0  0
 49 50  1  0  0  0
 50 51  2  0  0  0
 38 39  1  0  0  0
 39 40  2  0  0  0
 40 41  1  0  0  0
 41 42  1  0  0  0
 42 43  2  0  0  0
  4  5  1  0  0  0
  5  6  1  0  0  0
  5  7  2  0  0  0
 15 16  1  0  0  0
 16 17  2  0  0  0
 17 18  1  0  0  0
 18 19  2  0  0  0
 19 20  1  0  0  0
 20 21  2  0  0  0
 28 23  1  0  0  0
 21 13  1  0  0  0
  7  1  1  0  0  0
 21 16  1  0  0  0
 43 31  1  0  0  0
 43 35  1  0  0  0
 41 37  2  0  0  0
 51 46  1  0  0  0
 10 11  1  0  0  0
 29 30  1  0  0  0
M  END
> <minimizedAffinity>
-9.63091

> <CNNscore>
0.0905058980

> <CNNaffinity>
7.2064867020

> <CNN_VS>
0.6522295475

> <CNNaffinity_variance>
0.0563207082

$$$$
[H]c1nc(N([H])c2c([H])c([H])c(N([H])C(=O)C([H])([H])c3c([H])n(C4([H])C([H])([H])C([H])([H])N(C([H])([H])[H])C([H])([H])C4([H])[H])c4c([H])c([H])c([H])c([H])c34)c([H])c2Cl)c2c([H])c3c([H])nn(C([H])([H])C([H])([H])c4nc([H])c([H])c([H])c4[H])c3c([H])c2n1


 51 58  0  0  0  0  0  0  0  0999 V2000
    3.7539  -48.6649  -26.4163 C   0  0  0  0  0  0  0  0  0  0  0  0
    3.2041  -49.8824  -26.6550 C   0  0  0  0  0  0  0  0  0  0  0  0
    2.9390  -50.8389  -25.6662 C   0  0  0  0  0  0  0  0  0  0  0  0
    3.2416  -50.5593  -24.3610 C   0  0  0  0  0  0  0  0  0  0  0  0
    3.8137  -49.3001  -24.0842 C   0  0  0  0  0  0  0  0  0  0  0  0
    4.2142  -48.9091  -22.4035 Cl  0  0  0  0  0  0  0  0  0  0  0  0
    4.0618  -48.3882  -25.0623 C   0  0  0  0  0  0  0  0  0  0  0  0
    3.7844  -46.3136  -27.2360 C   0  0  0  0  0  0  0  0  0  0  0  0
    3.2546  -45.8584  -26.2082 O   0  0  0  0  0  0  0  0  0  0  0  0
    4.0463  -47.7105  -27.3818 N   0  0  0  0  0  0  0  0  0  0  0  0
    4.4966  -48.0616  -28.2866 H   0  0  0  0  0  0  0  0  0  0  0  0
    4.1850  -45.4798  -28.3757 C   0  0  0  0  0  0  0  0  0  0  0  0
    5.1137  -47.3446  -31.4098 N   0  0  0  0  0  0  0  0  0  0  0  0
    5.4607  -46.7987  -30.2001 C   0  0  0  0  0  0  0  0  0  0  0  0
    4.3752  -46.1995  -29.6258 C   0  0  0  0  0  0  0  0  0  0  0  0
    3.3266  -46.4039  -30.5536 C   0  0  0  0  0  0  0  0  0  0  0  0
    2.0008  -46.0178  -30.5070 C   0  0  0  0  0  0  0  0  0  0  0  0
    1.1635  -46.3502  -31.5663 C   0  0  0  0  0  0  0  0  0  0  0  0
    1.6687  -47.0537  -32.6347 C   0  0  0  0  0  0  0  0  0  0  0  0
    2.9715  -47.4436  -32.6999 C   0  0  0  0  0  0  0  0  0  0  0  0
    3.8140  -47.1029  -31.6234 C   0  0  0  0  0  0  0  0  0  0  0  0
   10.0729  -47.5770  -33.2660 C   0  0  0  0  0  0  0  0  0  0  0  0
    8.7552  -47.0977  -32.9178 N   0  0  0  0  0  0  0  0  0  0  0  0
    8.3367  -47.5077  -31.5984 C   0  0  0  0  0  0  0  0  0  0  0  0
    7.2444  -48.5480  -31.6317 C   0  0  0  0  0  0  0  0  0  0  0  0
    5.9786  -48.0656  -32.3089 C   0  0  0  0  0  0  0  0  0  0  0  0
    6.3734  -47.3365  -33.5448 C   0  0  0  0  0  0  0  0  0  0  0  0
    7.8405  -47.5494  -33.9136 C   0  0  0  0  0  0  0  0  0  0  0  0
    3.0292  -51.4251  -23.2692 N   0  0  0  0  0  0  0  0  0  0  0  0
    3.9094  -51.7218  -22.7469 H   0  0  0  0  0  0  0  0  0  0  0  0
    1.8302  -51.9421  -22.7840 C   0  0  0  0  0  0  0  0  0  0  0  0
    0.9942  -52.7404  -23.4684 N   0  0  0  0  0  0  0  0  0  0  0  0
   -0.1596  -53.2299  -23.0068 C   0  0  0  0  0  0  0  0  0  0  0  0
   -0.5408  -52.9107  -21.7498 N   0  0  0  0  0  0  0  0  0  0  0  0
    0.2239  -52.1178  -20.9785 C   0  0  0  0  0  0  0  0  0  0  0  0
   -0.1880  -51.8009  -19.6913 C   0  0  0  0  0  0  0  0  0  0  0  0
    0.5734  -50.9881  -18.8762 C   0  0  0  0  0  0  0  0  0  0  0  0
    0.4116  -50.5320  -17.6230 N   0  0  0  0  0  0  0  0  0  0  0  0
    1.4777  -49.7639  -17.3317 N   0  0  0  0  0  0  0  0  0  0  0  0
    2.3209  -49.7218  -18.3815 C   0  0  0  0  0  0  0  0  0  0  0  0
    1.7567  -50.4959  -19.3698 C   0  0  0  0  0  0  0  0  0  0  0  0
    2.1715  -50.8195  -20.6762 C   0  0  0  0  0  0  0  0  0  0  0  0
    1.4128  -51.6257  -21.4821 C   0  0  0  0  0  0  0  0  0  0  0  0
   -0.6475  -50.7838  -16.6814 C   0  0  0  0  0  0  0  0  0  0  0  0
   -0.4388  -52.0881  -15.9920 C   0  0  0  0  0  0  0  0  0  0  0  0
   -0.0150  -51.9005  -14.6103 C   0  0  0  0  0  0  0  0  0  0  0  0
    1.3437  -51.9003  -14.2839 C   0  0  0  0  0  0  0  0  0  0  0  0
    1.7356  -51.7335  -12.9783 C   0  0  0  0  0  0  0  0  0  0  0  0
    0.8142  -51.5650  -11.9740 C   0  0  0  0  0  0  0  0  0  0  0  0
   -0.5360  -51.5691  -12.3260 C   0  0  0  0  0  0  0  0  0  0  0  0
   -0.9048  -51.7334  -13.6110 N   0  0  0  0  0  0  0  0  0  0  0  0
 22 23  1  0  0  0
 23 24  1  0  0  0
 24 25  1  0  0  0
 25 26  1  0  0  0
 26 27  1  0  0  0
 27 28  1  0  0  0
 26 13  1  0  0  0
 13 14  1  0  0  0
 14 15  2  0  0  0
 15 12  1  0  0  0
 12  8  1  0  0  0
  8  9  2  0  0  0
  8 10  1  0  0  0
 10  1  1  0  0  0
  1  2  2  0  0  0
  2  3  1  0  0  0
  3  4  2  0  0  0
  4 29  1  0  0  0
 29 31  1  0  0  0
 31 32  2  0  0  0
 32 33  1  0  0  0
 33 34  2  0  0  0
 34 35  1  0  0  0
 35 36  2  0  0  0
 36 37  1  0  0  0
 37 38  1  0  0  0
 38 44  1  0  0  0
 44 45  1  0  0  0
 45 46  1  0  0  0
 46 47  2  0  0  0
 47 48  1  0  0  0
 48 49  2  0  0  0
 49 50  1  0  0  0
 50 51  2  0  0  0
 38 39  1  0  0  0
 39 40  2  0  0  0
 40 41  1  0  0  0
 41 42  1  0  0  0
 42 43  2  0  0  0
  4  5  1  0  0  0
  5  6  1  0  0  0
  5  7  2  0  0  0
 15 16  1  0  0  0
 16 17  2  0  0  0
 17 18  1  0  0  0
 18 19  2  0  0  0
 19 20  1  0  0  0
 20 21  2  0  0  0
 28 23  1  0  0  0
 21 13  1  0  0  0
  7  1  1  0  0  0
 21 16  1  0  0  0
 43 31  1  0  0  0
 43 35  1  0  0  0
 41 37  2  0  0  0
 51 46  1  0  0  0
 10 11  1  0  0  0
 29 30  1  0  0  0
M  END
> <minimizedAffinity>
-8.17627

> <CNNscore>
0.0891646370

> <CNNaffinity>
6.9105072021

> <CNN_VS>
0.6161728501

> <CNNaffinity_variance>
0.1896525174

$$$$
[H]c1nc(N([H])c2c([H])c([H])c(N([H])C(=O)C([H])([H])c3c([H])n(C4([H])C([H])([H])C([H])([H])N(C([H])([H])[H])C([H])([H])C4([H])[H])c4c([H])c([H])c([H])c([H])c34)c([H])c2Cl)c2c([H])c3c([H])nn(C([H])([H])C([H])([H])c4nc([H])c([H])c([H])c4[H])c3c([H])c2n1


 51 58  0  0  0  0  0  0  0  0999 V2000
    1.9760  -49.5538  -19.3033 C   0  0  0  0  0  0  0  0  0  0  0  0
    1.1916  -48.8764  -20.1793 C   0  0  0  0  0  0  0  0  0  0  0  0
    1.6415  -48.3379  -21.3921 C   0  0  0  0  0  0  0  0  0  0  0  0
    2.9543  -48.4871  -21.7489 C   0  0  0  0  0  0  0  0  0  0  0  0
    3.7924  -49.1880  -20.8567 C   0  0  0  0  0  0  0  0  0  0  0  0
    5.4963  -49.3989  -21.2928 Cl  0  0  0  0  0  0  0  0  0  0  0  0
    3.3316  -49.7014  -19.6846 C   0  0  0  0  0  0  0  0  0  0  0  0
    0.6438  -51.1659  -17.9514 C   0  0  0  0  0  0  0  0  0  0  0  0
    0.1464  -51.7204  -18.9461 O   0  0  0  0  0  0  0  0  0  0  0  0
    1.5582  -50.0765  -18.0864 N   0  0  0  0  0  0  0  0  0  0  0  0
    1.9570  -49.6222  -17.2037 H   0  0  0  0  0  0  0  0  0  0  0  0
    0.3481  -51.5668  -16.5706 C   0  0  0  0  0  0  0  0  0  0  0  0
   -2.0540  -49.3904  -14.8272 N   0  0  0  0  0  0  0  0  0  0  0  0
   -0.7688  -49.6607  -15.2235 C   0  0  0  0  0  0  0  0  0  0  0  0
   -0.7312  -50.8269  -15.9345 C   0  0  0  0  0  0  0  0  0  0  0  0
   -2.0747  -51.2704  -15.9572 C   0  0  0  0  0  0  0  0  0  0  0  0
   -2.6382  -52.3932  -16.5323 C   0  0  0  0  0  0  0  0  0  0  0  0
   -4.0078  -52.5998  -16.4082 C   0  0  0  0  0  0  0  0  0  0  0  0
   -4.7713  -51.6868  -15.7191 C   0  0  0  0  0  0  0  0  0  0  0  0
   -4.2358  -50.5743  -15.1454 C   0  0  0  0  0  0  0  0  0  0  0  0
   -2.8476  -50.3718  -15.2747 C   0  0  0  0  0  0  0  0  0  0  0  0
   -0.7413  -44.4564  -13.4039 C   0  0  0  0  0  0  0  0  0  0  0  0
   -0.7049  -45.8872  -13.6014 N   0  0  0  0  0  0  0  0  0  0  0  0
   -1.1544  -46.2867  -14.9138 C   0  0  0  0  0  0  0  0  0  0  0  0
   -2.4971  -46.9743  -14.8844 C   0  0  0  0  0  0  0  0  0  0  0  0
   -2.4989  -48.2496  -14.0677 C   0  0  0  0  0  0  0  0  0  0  0  0
   -1.7519  -47.9842  -12.8082 C   0  0  0  0  0  0  0  0  0  0  0  0
   -1.4891  -46.4970  -12.5788 C   0  0  0  0  0  0  0  0  0  0  0  0
    3.5396  -47.9987  -22.9345 N   0  0  0  0  0  0  0  0  0  0  0  0
    4.1267  -47.1167  -22.8213 H   0  0  0  0  0  0  0  0  0  0  0  0
    3.4543  -48.5113  -24.2269 C   0  0  0  0  0  0  0  0  0  0  0  0
    3.3002  -49.8085  -24.5403 N   0  0  0  0  0  0  0  0  0  0  0  0
    3.2264  -50.3017  -25.7793 C   0  0  0  0  0  0  0  0  0  0  0  0
    3.3113  -49.4459  -26.8222 N   0  0  0  0  0  0  0  0  0  0  0  0
    3.4662  -48.1256  -26.6190 C   0  0  0  0  0  0  0  0  0  0  0  0
    3.5534  -47.2651  -27.7047 C   0  0  0  0  0  0  0  0  0  0  0  0
    3.7147  -45.9056  -27.5289 C   0  0  0  0  0  0  0  0  0  0  0  0
    3.8282  -44.8752  -28.3833 N   0  0  0  0  0  0  0  0  0  0  0  0
    3.9701  -43.7557  -27.6497 N   0  0  0  0  0  0  0  0  0  0  0  0
    3.9489  -44.0550  -26.3363 C   0  0  0  0  0  0  0  0  0  0  0  0
    3.7874  -45.4189  -26.2468 C   0  0  0  0  0  0  0  0  0  0  0  0
    3.6986  -46.2950  -25.1477 C   0  0  0  0  0  0  0  0  0  0  0  0
    3.5393  -47.6432  -25.3263 C   0  0  0  0  0  0  0  0  0  0  0  0
    3.7875  -44.8635  -29.8220 C   0  0  0  0  0  0  0  0  0  0  0  0
    2.8234  -45.8802  -30.3288 C   0  0  0  0  0  0  0  0  0  0  0  0
    3.1163  -46.2546  -31.7064 C   0  0  0  0  0  0  0  0  0  0  0  0
    3.8950  -45.4202  -32.5128 C   0  0  0  0  0  0  0  0  0  0  0  0
    4.1584  -45.7741  -33.8134 C   0  0  0  0  0  0  0  0  0  0  0  0
    3.6696  -46.9413  -34.3470 C   0  0  0  0  0  0  0  0  0  0  0  0
    2.8947  -47.7567  -33.5213 C   0  0  0  0  0  0  0  0  0  0  0  0
    2.6455  -47.3962  -32.2477 N   0  0  0  0  0  0  0  0  0  0  0  0
 22 23  1  0  0  0
 23 24  1  0  0  0
 24 25  1  0  0  0
 25 26  1  0  0  0
 26 27  1  0  0  0
 27 28  1  0  0  0
 26 13  1  0  0  0
 13 14  1  0  0  0
 14 15  2  0  0  0
 15 12  1  0  0  0
 12  8  1  0  0  0
  8  9  2  0  0  0
  8 10  1  0  0  0
 10  1  1  0  0  0
  1  2  2  0  0  0
  2  3  1  0  0  0
  3  4  2  0  0  0
  4 29  1  0  0  0
 29 31  1  0  0  0
 31 32  2  0  0  0
 32 33  1  0  0  0
 33 34  2  0  0  0
 34 35  1  0  0  0
 35 36  2  0  0  0
 36 37  1  0  0  0
 37 38  1  0  0  0
 38 44  1  0  0  0
 44 45  1  0  0  0
 45 46  1  0  0  0
 46 47  2  0  0  0
 47 48  1  0  0  0
 48 49  2  0  0  0
 49 50  1  0  0  0
 50 51  2  0  0  0
 38 39  1  0  0  0
 39 40  2  0  0  0
 40 41  1  0  0  0
 41 42  1  0  0  0
 42 43  2  0  0  0
  4  5  1  0  0  0
  5  6  1  0  0  0
  5  7  2  0  0  0
 15 16  1  0  0  0
 16 17  2  0  0  0
 17 18  1  0  0  0
 18 19  2  0  0  0
 19 20  1  0  0  0
 20 21  2  0  0  0
 28 23  1  0  0  0
 21 13  1  0  0  0
  7  1  1  0  0  0
 21 16  1  0  0  0
 43 31  1  0  0  0
 43 35  1  0  0  0
 41 37  2  0  0  0
 51 46  1  0  0  0
 10 11  1  0  0  0
 29 30  1  0  0  0
M  END
> <minimizedAffinity>
-8.62172

> <CNNscore>
0.0855671316

> <CNNaffinity>
6.3959913254

> <CNN_VS>
0.5472866297

> <CNNaffinity_variance>
0.1264231503

$$$$
[H]Oc1c([H])c([H])c(C([H])([H])OC([H])([H])C([H])([H])C([H])([H])c2c([H])c([H])c([H])c([H])c2[H])c([H])c1N([H])C(=O)c1oc(-c2sc(C([H])([H])O[H])c([H])c2[H])c([H])c1[H]


 36 39  0  0  0  0  0  0  0  0999 V2000
    0.2338  -53.1041  -21.8850 C   0  0  0  0  0  0  0  0  0  0  0  0
    1.1280  -52.5635  -22.7608 C   0  0  0  0  0  0  0  0  0  0  0  0
    1.2160  -52.9040  -24.1130 C   0  0  0  0  0  0  0  0  0  0  0  0
    0.3485  -53.8444  -24.6005 C   0  0  0  0  0  0  0  0  0  0  0  0
   -0.5745  -54.4200  -23.7526 C   0  0  0  0  0  0  0  0  0  0  0  0
   -0.6317  -54.0626  -22.4363 C   0  0  0  0  0  0  0  0  0  0  0  0
   -1.5757  -54.6681  -21.6231 O   0  0  0  0  0  0  0  0  0  0  0  0
   -2.2220  -55.3635  -21.9691 H   0  0  0  0  0  0  0  0  0  0  0  0
    0.0684  -51.5137  -19.9156 C   0  0  0  0  0  0  0  0  0  0  0  0
    0.0752  -50.4452  -20.5658 O   0  0  0  0  0  0  0  0  0  0  0  0
    0.1420  -52.7620  -20.5173 N   0  0  0  0  0  0  0  0  0  0  0  0
    0.1288  -53.6227  -19.8628 H   0  0  0  0  0  0  0  0  0  0  0  0
    0.2859  -50.6952  -16.4444 C   0  0  0  0  0  0  0  0  0  0  0  0
   -0.5110  -51.8093  -16.3335 C   0  0  0  0  0  0  0  0  0  0  0  0
   -0.7281  -52.3070  -17.6250 C   0  0  0  0  0  0  0  0  0  0  0  0
   -0.0224  -51.4253  -18.4374 C   0  0  0  0  0  0  0  0  0  0  0  0
    0.5386  -50.5199  -17.6916 O   0  0  0  0  0  0  0  0  0  0  0  0
    1.4996  -48.1158  -13.5584 C   0  0  0  0  0  0  0  0  0  0  0  0
    1.4004  -49.4119  -13.1325 C   0  0  0  0  0  0  0  0  0  0  0  0
    1.0063  -50.3270  -14.0223 C   0  0  0  0  0  0  0  0  0  0  0  0
    0.7310  -49.8953  -15.2972 C   0  0  0  0  0  0  0  0  0  0  0  0
    1.0381  -48.2136  -15.1941 S   0  0  0  0  0  0  0  0  0  0  0  0
    3.2809  -46.6989  -12.8543 O   0  0  0  0  0  0  0  0  0  0  0  0
    1.9214  -46.9237  -12.7352 C   0  0  0  0  0  0  0  0  0  0  0  0
    3.4498  -45.7436  -12.9294 H   0  0  0  0  0  0  0  0  0  0  0  0
    2.2089  -52.2854  -25.0273 C   0  0  0  0  0  0  0  0  0  0  0  0
    2.8430  -53.2961  -25.7056 O   0  0  0  0  0  0  0  0  0  0  0  0
    3.0683  -53.0651  -27.0395 C   0  0  0  0  0  0  0  0  0  0  0  0
    1.9750  -52.2269  -27.6690 C   0  0  0  0  0  0  0  0  0  0  0  0
    1.1214  -53.0871  -28.5835 C   0  0  0  0  0  0  0  0  0  0  0  0
   -0.2936  -52.7947  -28.2643 C   0  0  0  0  0  0  0  0  0  0  0  0
   -1.3159  -53.0534  -29.1753 C   0  0  0  0  0  0  0  0  0  0  0  0
   -2.6250  -52.7787  -28.8696 C   0  0  0  0  0  0  0  0  0  0  0  0
   -2.9393  -52.2415  -27.6512 C   0  0  0  0  0  0  0  0  0  0  0  0
   -1.9470  -51.9716  -26.7208 C   0  0  0  0  0  0  0  0  0  0  0  0
   -0.6474  -52.2593  -27.0605 C   0  0  0  0  0  0  0  0  0  0  0  0
 23 24  1  0  0  0
 24 18  1  0  0  0
 18 19  2  0  0  0
 19 20  1  0  0  0
 20 21  2  0  0  0
 21 22  1  0  0  0
 21 13  1  0  0  0
 13 14  2  0  0  0
 14 15  1  0  0  0
 15 16  2  0  0  0
 16 17  1  0  0  0
 16  9  1  0  0  0
  9 10  2  0  0  0
  9 11  1  0  0  0
 11  1  1  0  0  0
  1  2  2  0  0  0
  2  3  1  0  0  0
  3 26  1  0  0  0
 26 27  1  0  0  0
 27 28  1  0  0  0
 28 29  1  0  0  0
 29 30  1  0  0  0
 30 31  1  0  0  0
 31 32  2  0  0  0
 32 33  1  0  0  0
 33 34  2  0  0  0
 34 35  1  0  0  0
 35 36  2  0  0  0
  3  4  2  0  0  0
  4  5  1  0  0  0
  5  6  2  0  0  0
  6  7  1  0  0  0
 22 18  1  0  0  0
 17 13  1  0  0  0
  6  1  1  0  0  0
 36 31  1  0  0  0
 23 25  1  0  0  0
 11 12  1  0  0  0
  7  8  1  0  0  0
M  END
> <minimizedAffinity>
-7.24395

> <CNNscore>
0.4824371338

> <CNNaffinity>
6.4154868126

> <CNN_VS>
3.0950691700

> <CNNaffinity_variance>
0.1381143630

$$$$
[H]Oc1c([H])c([H])c(C([H])([H])OC([H])([H])C([H])([H])C([H])([H])c2c([H])c([H])c([H])c([H])c2[H])c([H])c1N([H])C(=O)c1oc(-c2sc(C([H])([H])O[H])c([H])c2[H])c([H])c1[H]


 36 39  0  0  0  0  0  0  0  0999 V2000
   -0.4996  -52.9756  -22.3412 C   0  0  0  0  0  0  0  0  0  0  0  0
    0.1031  -52.2988  -23.3597 C   0  0  0  0  0  0  0  0  0  0  0  0
    0.2253  -52.7793  -24.6660 C   0  0  0  0  0  0  0  0  0  0  0  0
   -0.2928  -54.0139  -24.9516 C   0  0  0  0  0  0  0  0  0  0  0  0
   -0.9122  -54.7370  -23.9538 C   0  0  0  0  0  0  0  0  0  0  0  0
   -1.0134  -54.2356  -22.6881 C   0  0  0  0  0  0  0  0  0  0  0  0
   -1.6441  -54.9985  -21.7188 O   0  0  0  0  0  0  0  0  0  0  0  0
   -2.0310  -55.9110  -21.9153 H   0  0  0  0  0  0  0  0  0  0  0  0
   -0.0709  -52.9721  -19.8410 C   0  0  0  0  0  0  0  0  0  0  0  0
    0.6717  -53.9777  -19.7998 O   0  0  0  0  0  0  0  0  0  0  0  0
   -0.6250  -52.4927  -21.0194 N   0  0  0  0  0  0  0  0  0  0  0  0
   -1.2533  -51.6159  -20.9439 H   0  0  0  0  0  0  0  0  0  0  0  0
   -0.3270  -50.7536  -17.0518 C   0  0  0  0  0  0  0  0  0  0  0  0
   -1.1348  -51.7590  -16.5773 C   0  0  0  0  0  0  0  0  0  0  0  0
   -1.1750  -52.7669  -17.5497 C   0  0  0  0  0  0  0  0  0  0  0  0
   -0.3625  -52.2729  -18.5653 C   0  0  0  0  0  0  0  0  0  0  0  0
    0.0940  -51.1077  -18.2126 O   0  0  0  0  0  0  0  0  0  0  0  0
    0.9136  -47.4195  -15.1026 C   0  0  0  0  0  0  0  0  0  0  0  0
   -0.4393  -47.6152  -15.0530 C   0  0  0  0  0  0  0  0  0  0  0  0
   -0.9316  -48.6923  -15.6710 C   0  0  0  0  0  0  0  0  0  0  0  0
   -0.0404  -49.5207  -16.3089 C   0  0  0  0  0  0  0  0  0  0  0  0
    1.4600  -48.7496  -16.0137 S   0  0  0  0  0  0  0  0  0  0  0  0
    1.1638  -45.0612  -14.8725 O   0  0  0  0  0  0  0  0  0  0  0  0
    1.6855  -46.2812  -14.4819 C   0  0  0  0  0  0  0  0  0  0  0  0
    1.1449  -44.4543  -14.1123 H   0  0  0  0  0  0  0  0  0  0  0  0
    0.8916  -52.0023  -25.7415 C   0  0  0  0  0  0  0  0  0  0  0  0
    1.7502  -52.8465  -26.4002 O   0  0  0  0  0  0  0  0  0  0  0  0
    3.0853  -52.6445  -26.1550 C   0  0  0  0  0  0  0  0  0  0  0  0
    3.3750  -51.2341  -25.6847 C   0  0  0  0  0  0  0  0  0  0  0  0
    4.3039  -51.2666  -24.4842 C   0  0  0  0  0  0  0  0  0  0  0  0
    3.5196  -50.8195  -23.3117 C   0  0  0  0  0  0  0  0  0  0  0  0
    2.7203  -49.6790  -23.3600 C   0  0  0  0  0  0  0  0  0  0  0  0
    1.9968  -49.2728  -22.2672 C   0  0  0  0  0  0  0  0  0  0  0  0
    2.0565  -49.9953  -21.1068 C   0  0  0  0  0  0  0  0  0  0  0  0
    2.8417  -51.1354  -21.0240 C   0  0  0  0  0  0  0  0  0  0  0  0
    3.5524  -51.5127  -22.1373 C   0  0  0  0  0  0  0  0  0  0  0  0
 23 24  1  0  0  0
 24 18  1  0  0  0
 18 19  2  0  0  0
 19 20  1  0  0  0
 20 21  2  0  0  0
 21 22  1  0  0  0
 21 13  1  0  0  0
 13 14  2  0  0  0
 14 15  1  0  0  0
 15 16  2  0  0  0
 16 17  1  0  0  0
 16  9  1  0  0  0
  9 10  2  0  0  0
  9 11  1  0  0  0
 11  1  1  0  0  0
  1  2  2  0  0  0
  2  3  1  0  0  0
  3 26  1  0  0  0
 26 27  1  0  0  0
 27 28  1  0  0  0
 28 29  1  0  0  0
 29 30  1  0  0  0
 30 31  1  0  0  0
 31 32  2  0  0  0
 32 33  1  0  0  0
 33 34  2  0  0  0
 34 35  1  0  0  0
 35 36  2  0  0  0
  3  4  2  0  0  0
  4  5  1  0  0  0
  5  6  2  0  0  0
  6  7  1  0  0  0
 22 18  1  0  0  0
 17 13  1  0  0  0
  6  1  1  0  0  0
 36 31  1  0  0  0
 23 25  1  0  0  0
 11 12  1  0  0  0
  7  8  1  0  0  0
M  END
> <minimizedAffinity>
-7.06728

> <CNNscore>
0.3834937811

> <CNNaffinity>
6.6011533737

> <CNN_VS>
2.5315012932

> <CNNaffinity_variance>
0.0344007388

$$$$
[H]Oc1c([H])c([H])c(C([H])([H])OC([H])([H])C([H])([H])C([H])([H])c2c([H])c([H])c([H])c([H])c2[H])c([H])c1N([H])C(=O)c1oc(-c2sc(C([H])([H])O[H])c([H])c2[H])c([H])c1[H]


 36 39  0  0  0  0  0  0  0  0999 V2000
   -0.4833  -52.8704  -22.3109 C   0  0  0  0  0  0  0  0  0  0  0  0
    0.1129  -52.1641  -23.3132 C   0  0  0  0  0  0  0  0  0  0  0  0
    0.2503  -52.6176  -24.6276 C   0  0  0  0  0  0  0  0  0  0  0  0
   -0.2448  -53.8554  -24.9393 C   0  0  0  0  0  0  0  0  0  0  0  0
   -0.8568  -54.6078  -23.9587 C   0  0  0  0  0  0  0  0  0  0  0  0
   -0.9734  -54.1323  -22.6844 C   0  0  0  0  0  0  0  0  0  0  0  0
   -1.5958  -54.9241  -21.7332 O   0  0  0  0  0  0  0  0  0  0  0  0
   -1.9658  -55.8393  -21.9490 H   0  0  0  0  0  0  0  0  0  0  0  0
   -0.0402  -52.8849  -19.8133 C   0  0  0  0  0  0  0  0  0  0  0  0
    0.7508  -53.8536  -19.7920 O   0  0  0  0  0  0  0  0  0  0  0  0
   -0.6241  -52.4148  -20.9810 N   0  0  0  0  0  0  0  0  0  0  0  0
   -1.2939  -51.5709  -20.8883 H   0  0  0  0  0  0  0  0  0  0  0  0
   -0.3786  -50.7295  -16.9838 C   0  0  0  0  0  0  0  0  0  0  0  0
   -1.1491  -51.7725  -16.5288 C   0  0  0  0  0  0  0  0  0  0  0  0
   -1.1519  -52.7629  -17.5198 C   0  0  0  0  0  0  0  0  0  0  0  0
   -0.3577  -52.2207  -18.5252 C   0  0  0  0  0  0  0  0  0  0  0  0
    0.0556  -51.0462  -18.1505 O   0  0  0  0  0  0  0  0  0  0  0  0
   -0.1712  -47.3293  -14.7813 C   0  0  0  0  0  0  0  0  0  0  0  0
    1.0373  -47.7431  -15.2706 C   0  0  0  0  0  0  0  0  0  0  0  0
    1.0575  -48.8569  -16.0079 C   0  0  0  0  0  0  0  0  0  0  0  0
   -0.1378  -49.5009  -16.2178 C   0  0  0  0  0  0  0  0  0  0  0  0
   -1.2469  -48.5115  -15.3671 S   0  0  0  0  0  0  0  0  0  0  0  0
   -1.7835  -45.8159  -13.8942 O   0  0  0  0  0  0  0  0  0  0  0  0
   -0.4326  -46.1103  -13.9313 C   0  0  0  0  0  0  0  0  0  0  0  0
   -2.0382  -45.5583  -12.9911 H   0  0  0  0  0  0  0  0  0  0  0  0
    0.9087  -51.8090  -25.6845 C   0  0  0  0  0  0  0  0  0  0  0  0
    2.1650  -51.4796  -25.2408 O   0  0  0  0  0  0  0  0  0  0  0  0
    3.1484  -52.3988  -25.5077 C   0  0  0  0  0  0  0  0  0  0  0  0
    3.9881  -52.7113  -24.2864 C   0  0  0  0  0  0  0  0  0  0  0  0
    3.8135  -51.6226  -23.2427 C   0  0  0  0  0  0  0  0  0  0  0  0
    5.1620  -51.1066  -22.9187 C   0  0  0  0  0  0  0  0  0  0  0  0
    6.1309  -50.9267  -23.9040 C   0  0  0  0  0  0  0  0  0  0  0  0
    7.3785  -50.4475  -23.5932 C   0  0  0  0  0  0  0  0  0  0  0  0
    7.6833  -50.1389  -22.2955 C   0  0  0  0  0  0  0  0  0  0  0  0
    6.7429  -50.3057  -21.2900 C   0  0  0  0  0  0  0  0  0  0  0  0
    5.5042  -50.7875  -21.6372 C   0  0  0  0  0  0  0  0  0  0  0  0
 23 24  1  0  0  0
 24 18  1  0  0  0
 18 19  2  0  0  0
 19 20  1  0  0  0
 20 21  2  0  0  0
 21 22  1  0  0  0
 21 13  1  0  0  0
 13 14  2  0  0  0
 14 15  1  0  0  0
 15 16  2  0  0  0
 16 17  1  0  0  0
 16  9  1  0  0  0
  9 10  2  0  0  0
  9 11  1  0  0  0
 11  1  1  0  0  0
  1  2  2  0  0  0
  2  3  1  0  0  0
  3 26  1  0  0  0
 26 27  1  0  0  0
 27 28  1  0  0  0
 28 29  1  0  0  0
 29 30  1  0  0  0
 30 31  1  0  0  0
 31 32  2  0  0  0
 32 33  1  0  0  0
 33 34  2  0  0  0
 34 35  1  0  0  0
 35 36  2  0  0  0
  3  4  2  0  0  0
  4  5  1  0  0  0
  5  6  2  0  0  0
  6  7  1  0  0  0
 22 18  1  0  0  0
 17 13  1  0  0  0
  6  1  1  0  0  0
 36 31  1  0  0  0
 23 25  1  0  0  0
 11 12  1  0  0  0
  7  8  1  0  0  0
M  END
> <minimizedAffinity>
-7.19347

> <CNNscore>
0.3748142123

> <CNNaffinity>
6.2090411186

> <CNN_VS>
2.3272368908

> <CNNaffinity_variance>
0.1022523865

$$$$
[H]Oc1c([H])c([H])c(C([H])([H])OC([H])([H])C([H])([H])C([H])([H])c2c([H])c([H])c([H])c([H])c2[H])c([H])c1N([H])C(=O)c1oc(-c2sc(C([H])([H])O[H])c([H])c2[H])c([H])c1[H]


 36 39  0  0  0  0  0  0  0  0999 V2000
   -0.3253  -51.8155  -18.3271 C   0  0  0  0  0  0  0  0  0  0  0  0
    0.4781  -50.7304  -18.1380 C   0  0  0  0  0  0  0  0  0  0  0  0
    0.7084  -50.1221  -16.9015 C   0  0  0  0  0  0  0  0  0  0  0  0
    0.0885  -50.6450  -15.7985 C   0  0  0  0  0  0  0  0  0  0  0  0
   -0.7343  -51.7429  -15.9395 C   0  0  0  0  0  0  0  0  0  0  0  0
   -0.9362  -52.3116  -17.1640 C   0  0  0  0  0  0  0  0  0  0  0  0
   -1.7713  -53.4130  -17.2564 O   0  0  0  0  0  0  0  0  0  0  0  0
   -2.2353  -53.8095  -16.4510 H   0  0  0  0  0  0  0  0  0  0  0  0
    0.3161  -53.1097  -20.4124 C   0  0  0  0  0  0  0  0  0  0  0  0
    1.5266  -53.2699  -20.1410 O   0  0  0  0  0  0  0  0  0  0  0  0
   -0.5602  -52.4332  -19.5759 N   0  0  0  0  0  0  0  0  0  0  0  0
   -1.5869  -52.3512  -19.9054 H   0  0  0  0  0  0  0  0  0  0  0  0
   -0.4740  -53.9336  -23.7982 C   0  0  0  0  0  0  0  0  0  0  0  0
   -1.2378  -54.8939  -23.1796 C   0  0  0  0  0  0  0  0  0  0  0  0
   -1.0690  -54.7457  -21.7966 C   0  0  0  0  0  0  0  0  0  0  0  0
   -0.1888  -53.6737  -21.6884 C   0  0  0  0  0  0  0  0  0  0  0  0
    0.1140  -53.2531  -22.8809 O   0  0  0  0  0  0  0  0  0  0  0  0
   -0.4931  -53.0948  -27.7670 C   0  0  0  0  0  0  0  0  0  0  0  0
    0.1684  -54.2497  -27.4513 C   0  0  0  0  0  0  0  0  0  0  0  0
    0.2217  -54.5997  -26.1632 C   0  0  0  0  0  0  0  0  0  0  0  0
   -0.3923  -53.7721  -25.2547 C   0  0  0  0  0  0  0  0  0  0  0  0
   -1.0227  -52.5299  -26.2510 S   0  0  0  0  0  0  0  0  0  0  0  0
    0.4341  -52.7368  -29.9324 O   0  0  0  0  0  0  0  0  0  0  0  0
   -0.6792  -52.5075  -29.1444 C   0  0  0  0  0  0  0  0  0  0  0  0
    0.1544  -52.9802  -30.8320 H   0  0  0  0  0  0  0  0  0  0  0  0
    1.5939  -48.9402  -16.7478 C   0  0  0  0  0  0  0  0  0  0  0  0
    2.1906  -48.7011  -17.9604 O   0  0  0  0  0  0  0  0  0  0  0  0
    3.5593  -48.6034  -17.9391 C   0  0  0  0  0  0  0  0  0  0  0  0
    4.1852  -49.0304  -19.2507 C   0  0  0  0  0  0  0  0  0  0  0  0
    3.9211  -50.5050  -19.4974 C   0  0  0  0  0  0  0  0  0  0  0  0
    3.4280  -50.6350  -20.8864 C   0  0  0  0  0  0  0  0  0  0  0  0
    4.1194  -51.3799  -21.8398 C   0  0  0  0  0  0  0  0  0  0  0  0
    3.6536  -51.4943  -23.1254 C   0  0  0  0  0  0  0  0  0  0  0  0
    2.4909  -50.8688  -23.4843 C   0  0  0  0  0  0  0  0  0  0  0  0
    1.7775  -50.1196  -22.5608 C   0  0  0  0  0  0  0  0  0  0  0  0
    2.2731  -50.0267  -21.2830 C   0  0  0  0  0  0  0  0  0  0  0  0
 23 24  1  0  0  0
 24 18  1  0  0  0
 18 19  2  0  0  0
 19 20  1  0  0  0
 20 21  2  0  0  0
 21 22  1  0  0  0
 21 13  1  0  0  0
 13 14  2  0  0  0
 14 15  1  0  0  0
 15 16  2  0  0  0
 16 17  1  0  0  0
 16  9  1  0  0  0
  9 10  2  0  0  0
  9 11  1  0  0  0
 11  1  1  0  0  0
  1  2  2  0  0  0
  2  3  1  0  0  0
  3 26  1  0  0  0
 26 27  1  0  0  0
 27 28  1  0  0  0
 28 29  1  0  0  0
 29 30  1  0  0  0
 30 31  1  0  0  0
 31 32  2  0  0  0
 32 33  1  0  0  0
 33 34  2  0  0  0
 34 35  1  0  0  0
 35 36  2  0  0  0
  3  4  2  0  0  0
  4  5  1  0  0  0
  5  6  2  0  0  0
  6  7  1  0  0  0
 22 18  1  0  0  0
 17 13  1  0  0  0
  6  1  1  0  0  0
 36 31  1  0  0  0
 23 25  1  0  0  0
 11 12  1  0  0  0
  7  8  1  0  0  0
M  END
> <minimizedAffinity>
-7.96483

> <CNNscore>
0.3204117715

> <CNNaffinity>
6.6220536232

> <CNN_VS>
2.1217839718

> <CNNaffinity_variance>
0.1321537197

$$$$
[H]Oc1c([H])c([H])c(C([H])([H])OC([H])([H])C([H])([H])C([H])([H])c2c([H])c([H])c([H])c([H])c2[H])c([H])c1N([H])C(=O)c1oc(-c2sc(C([H])([H])O[H])c([H])c2[H])c([H])c1[H]


 36 39  0  0  0  0  0  0  0  0999 V2000
   -0.1618  -51.6915  -18.1950 C   0  0  0  0  0  0  0  0  0  0  0  0
    0.5367  -50.5313  -18.0379 C   0  0  0  0  0  0  0  0  0  0  0  0
    0.7687  -49.9073  -16.8095 C   0  0  0  0  0  0  0  0  0  0  0  0
    0.2632  -50.4944  -15.6807 C   0  0  0  0  0  0  0  0  0  0  0  0
   -0.4508  -51.6695  -15.7889 C   0  0  0  0  0  0  0  0  0  0  0  0
   -0.6578  -52.2512  -17.0065 C   0  0  0  0  0  0  0  0  0  0  0  0
   -1.3811  -53.4312  -17.0655 O   0  0  0  0  0  0  0  0  0  0  0  0
   -1.7600  -53.8756  -16.2408 H   0  0  0  0  0  0  0  0  0  0  0  0
    0.4963  -52.6947  -20.4301 C   0  0  0  0  0  0  0  0  0  0  0  0
    1.7280  -52.4949  -20.3440 O   0  0  0  0  0  0  0  0  0  0  0  0
   -0.3980  -52.3252  -19.4355 N   0  0  0  0  0  0  0  0  0  0  0  0
   -1.4425  -52.5440  -19.6101 H   0  0  0  0  0  0  0  0  0  0  0  0
   -0.3558  -53.7451  -23.7372 C   0  0  0  0  0  0  0  0  0  0  0  0
   -1.0327  -54.7183  -23.0420 C   0  0  0  0  0  0  0  0  0  0  0  0
   -0.8257  -54.4867  -21.6758 C   0  0  0  0  0  0  0  0  0  0  0  0
   -0.0147  -53.3564  -21.6557 C   0  0  0  0  0  0  0  0  0  0  0  0
    0.2178  -52.9810  -22.8786 O   0  0  0  0  0  0  0  0  0  0  0  0
   -0.5235  -53.0923  -27.7373 C   0  0  0  0  0  0  0  0  0  0  0  0
    0.0960  -54.2631  -27.3958 C   0  0  0  0  0  0  0  0  0  0  0  0
    0.1937  -54.5549  -26.0959 C   0  0  0  0  0  0  0  0  0  0  0  0
   -0.3359  -53.6561  -25.2020 C   0  0  0  0  0  0  0  0  0  0  0  0
   -0.9526  -52.4315  -26.2283 S   0  0  0  0  0  0  0  0  0  0  0  0
    0.3695  -52.7679  -29.9223 O   0  0  0  0  0  0  0  0  0  0  0  0
   -0.7466  -52.5612  -29.1319 C   0  0  0  0  0  0  0  0  0  0  0  0
    0.0937  -53.0540  -30.8104 H   0  0  0  0  0  0  0  0  0  0  0  0
    1.5371  -48.6424  -16.6911 C   0  0  0  0  0  0  0  0  0  0  0  0
    2.5191  -48.6554  -17.6499 O   0  0  0  0  0  0  0  0  0  0  0  0
    3.7911  -48.4052  -17.1997 C   0  0  0  0  0  0  0  0  0  0  0  0
    4.1135  -46.9253  -17.1850 C   0  0  0  0  0  0  0  0  0  0  0  0
    3.6272  -46.2743  -18.4675 C   0  0  0  0  0  0  0  0  0  0  0  0
    3.3623  -44.8508  -18.1626 C   0  0  0  0  0  0  0  0  0  0  0  0
    2.8758  -44.4487  -16.9201 C   0  0  0  0  0  0  0  0  0  0  0  0
    2.6335  -43.1260  -16.6472 C   0  0  0  0  0  0  0  0  0  0  0  0
    2.8713  -42.1802  -17.6068 C   0  0  0  0  0  0  0  0  0  0  0  0
    3.3555  -42.5453  -18.8541 C   0  0  0  0  0  0  0  0  0  0  0  0
    3.5868  -43.8782  -19.0925 C   0  0  0  0  0  0  0  0  0  0  0  0
 23 24  1  0  0  0
 24 18  1  0  0  0
 18 19  2  0  0  0
 19 20  1  0  0  0
 20 21  2  0  0  0
 21 22  1  0  0  0
 21 13  1  0  0  0
 13 14  2  0  0  0
 14 15  1  0  0  0
 15 16  2  0  0  0
 16 17  1  0  0  0
 16  9  1  0  0  0
  9 10  2  0  0  0
  9 11  1  0  0  0
 11  1  1  0  0  0
  1  2  2  0  0  0
  2  3  1  0  0  0
  3 26  1  0  0  0
 26 27  1  0  0  0
 27 28  1  0  0  0
 28 29  1  0  0  0
 29 30  1  0  0  0
 30 31  1  0  0  0
 31 32  2  0  0  0
 32 33  1  0  0  0
 33 34  2  0  0  0
 34 35  1  0  0  0
 35 36  2  0  0  0
  3  4  2  0  0  0
  4  5  1  0  0  0
  5  6  2  0  0  0
  6  7  1  0  0  0
 22 18  1  0  0  0
 17 13  1  0  0  0
  6  1  1  0  0  0
 36 31  1  0  0  0
 23 25  1  0  0  0
 11 12  1  0  0  0
  7  8  1  0  0  0
M  END
> <minimizedAffinity>
-7.27084

> <CNNscore>
0.3021058142

> <CNNaffinity>
5.8914108276

> <CNN_VS>
1.7798295021

> <CNNaffinity_variance>
0.0662644506

$$$$
[H]Oc1c([H])c([H])c(C([H])([H])OC([H])([H])C([H])([H])C([H])([H])c2c([H])c([H])c([H])c([H])c2[H])c([H])c1N([H])C(=O)c1oc(-c2sc(C([H])([H])O[H])c([H])c2[H])c([H])c1[H]


 36 39  0  0  0  0  0  0  0  0999 V2000
   -4.3421  -53.0009  -15.5293 C   0  0  0  0  0  0  0  0  0  0  0  0
   -5.6010  -53.5210  -15.4707 C   0  0  0  0  0  0  0  0  0  0  0  0
   -6.4772  -53.3538  -14.3954 C   0  0  0  0  0  0  0  0  0  0  0  0
   -6.0504  -52.6186  -13.3222 C   0  0  0  0  0  0  0  0  0  0  0  0
   -4.7842  -52.0720  -13.3350 C   0  0  0  0  0  0  0  0  0  0  0  0
   -3.9548  -52.2561  -14.4036 C   0  0  0  0  0  0  0  0  0  0  0  0
   -2.6919  -51.6878  -14.3711 O   0  0  0  0  0  0  0  0  0  0  0  0
   -2.3636  -51.1429  -13.5859 H   0  0  0  0  0  0  0  0  0  0  0  0
   -2.2043  -52.6062  -16.8365 C   0  0  0  0  0  0  0  0  0  0  0  0
   -1.6640  -51.8142  -16.0332 O   0  0  0  0  0  0  0  0  0  0  0  0
   -3.4537  -53.1679  -16.6150 N   0  0  0  0  0  0  0  0  0  0  0  0
   -3.8296  -53.8407  -17.3736 H   0  0  0  0  0  0  0  0  0  0  0  0
   -0.3243  -54.0976  -19.4836 C   0  0  0  0  0  0  0  0  0  0  0  0
   -0.5282  -52.8660  -20.0580 C   0  0  0  0  0  0  0  0  0  0  0  0
   -1.2725  -52.0943  -19.1561 C   0  0  0  0  0  0  0  0  0  0  0  0
   -1.4640  -52.9495  -18.0755 C   0  0  0  0  0  0  0  0  0  0  0  0
   -0.8911  -54.0884  -18.3310 O   0  0  0  0  0  0  0  0  0  0  0  0
    1.6128  -56.9054  -21.6789 C   0  0  0  0  0  0  0  0  0  0  0  0
    1.7057  -57.1016  -20.3284 C   0  0  0  0  0  0  0  0  0  0  0  0
    1.0946  -56.2203  -19.5319 C   0  0  0  0  0  0  0  0  0  0  0  0
    0.4198  -55.1845  -20.1311 C   0  0  0  0  0  0  0  0  0  0  0  0
    0.6720  -55.4916  -21.7970 S   0  0  0  0  0  0  0  0  0  0  0  0
    1.2373  -58.2695  -23.5960 O   0  0  0  0  0  0  0  0  0  0  0  0
    2.2180  -57.7656  -22.7609 C   0  0  0  0  0  0  0  0  0  0  0  0
    1.5407  -58.2291  -24.5196 H   0  0  0  0  0  0  0  0  0  0  0  0
   -7.8406  -53.9414  -14.3799 C   0  0  0  0  0  0  0  0  0  0  0  0
   -7.8396  -55.0286  -15.2177 O   0  0  0  0  0  0  0  0  0  0  0  0
   -6.6482  -55.2926  -15.8456 C   0  0  0  0  0  0  0  0  0  0  0  0
   -6.5509  -56.7312  -16.3094 C   0  0  0  0  0  0  0  0  0  0  0  0
   -7.2254  -57.6484  -15.3050 C   0  0  0  0  0  0  0  0  0  0  0  0
   -6.6826  -59.0080  -15.5204 C   0  0  0  0  0  0  0  0  0  0  0  0
   -6.9452  -60.0482  -14.6311 C   0  0  0  0  0  0  0  0  0  0  0  0
   -6.4371  -61.3056  -14.8399 C   0  0  0  0  0  0  0  0  0  0  0  0
   -5.6585  -61.5494  -15.9382 C   0  0  0  0  0  0  0  0  0  0  0  0
   -5.3773  -60.5373  -16.8437 C   0  0  0  0  0  0  0  0  0  0  0  0
   -5.9025  -59.2910  -16.6033 C   0  0  0  0  0  0  0  0  0  0  0  0
 23 24  1  0  0  0
 24 18  1  0  0  0
 18 19  2  0  0  0
 19 20  1  0  0  0
 20 21  2  0  0  0
 21 22  1  0  0  0
 21 13  1  0  0  0
 13 14  2  0  0  0
 14 15  1  0  0  0
 15 16  2  0  0  0
 16 17  1  0  0  0
 16  9  1  0  0  0
  9 10  2  0  0  0
  9 11  1  0  0  0
 11  1  1  0  0  0
  1  2  2  0  0  0
  2  3  1  0  0  0
  3 26  1  0  0  0
 26 27  1  0  0  0
 27 28  1  0  0  0
 28 29  1  0  0  0
 29 30  1  0  0  0
 30 31  1  0  0  0
 31 32  2  0  0  0
 32 33  1  0  0  0
 33 34  2  0  0  0
 34 35  1  0  0  0
 35 36  2  0  0  0
  3  4  2  0  0  0
  4  5  1  0  0  0
  5  6  2  0  0  0
  6  7  1  0  0  0
 22 18  1  0  0  0
 17 13  1  0  0  0
  6  1  1  0  0  0
 36 31  1  0  0  0
 23 25  1  0  0  0
 11 12  1  0  0  0
  7  8  1  0  0  0
M  END
> <minimizedAffinity>
40.09498

> <CNNscore>
0.2635923326

> <CNNaffinity>
5.3331203461

> <CNN_VS>
1.4057695866

> <CNNaffinity_variance>
1.0747922659

$$$$
[H]Oc1c([H])c([H])c(C([H])([H])OC([H])([H])C([H])([H])C([H])([H])c2c([H])c([H])c([H])c([H])c2[H])c([H])c1N([H])C(=O)c1oc(-c2sc(C([H])([H])O[H])c([H])c2[H])c([H])c1[H]


 36 39  0  0  0  0  0  0  0  0999 V2000
    0.0686  -51.2170  -18.4840 C   0  0  0  0  0  0  0  0  0  0  0  0
    0.2669  -50.1459  -17.6641 C   0  0  0  0  0  0  0  0  0  0  0  0
   -0.0989  -50.1025  -16.3163 C   0  0  0  0  0  0  0  0  0  0  0  0
   -0.6984  -51.2072  -15.7734 C   0  0  0  0  0  0  0  0  0  0  0  0
   -0.9203  -52.3157  -16.5635 C   0  0  0  0  0  0  0  0  0  0  0  0
   -0.5494  -52.3224  -17.8773 C   0  0  0  0  0  0  0  0  0  0  0  0
   -0.7927  -53.4587  -18.6313 O   0  0  0  0  0  0  0  0  0  0  0  0
   -1.2342  -54.2810  -18.2440 H   0  0  0  0  0  0  0  0  0  0  0  0
    1.5838  -51.7723  -20.4411 C   0  0  0  0  0  0  0  0  0  0  0  0
    2.5125  -52.2960  -19.7871 O   0  0  0  0  0  0  0  0  0  0  0  0
    0.4373  -51.2643  -19.8470 N   0  0  0  0  0  0  0  0  0  0  0  0
   -0.3048  -50.8325  -20.5044 H   0  0  0  0  0  0  0  0  0  0  0  0
    1.2223  -51.8301  -23.9954 C   0  0  0  0  0  0  0  0  0  0  0  0
    2.5269  -51.4020  -23.9381 C   0  0  0  0  0  0  0  0  0  0  0  0
    2.8844  -51.3076  -22.5867 C   0  0  0  0  0  0  0  0  0  0  0  0
    1.7301  -51.6987  -21.9157 C   0  0  0  0  0  0  0  0  0  0  0  0
    0.8105  -51.9863  -22.7887 O   0  0  0  0  0  0  0  0  0  0  0  0
   -0.3796  -52.4765  -27.6657 C   0  0  0  0  0  0  0  0  0  0  0  0
   -1.3124  -52.2886  -26.6830 C   0  0  0  0  0  0  0  0  0  0  0  0
   -0.8682  -52.0690  -25.4424 C   0  0  0  0  0  0  0  0  0  0  0  0
    0.4919  -52.0489  -25.2494 C   0  0  0  0  0  0  0  0  0  0  0  0
    1.0948  -52.3406  -26.8256 S   0  0  0  0  0  0  0  0  0  0  0  0
    0.5337  -52.7637  -29.8475 O   0  0  0  0  0  0  0  0  0  0  0  0
   -0.6470  -52.7381  -29.1275 C   0  0  0  0  0  0  0  0  0  0  0  0
    0.5051  -53.4863  -30.4984 H   0  0  0  0  0  0  0  0  0  0  0  0
    0.1393  -48.9101  -15.4643 C   0  0  0  0  0  0  0  0  0  0  0  0
   -0.9541  -48.7496  -14.6503 O   0  0  0  0  0  0  0  0  0  0  0  0
   -1.8957  -47.8540  -15.0915 C   0  0  0  0  0  0  0  0  0  0  0  0
   -3.2784  -48.4674  -15.1694 C   0  0  0  0  0  0  0  0  0  0  0  0
   -3.5240  -49.3519  -13.9602 C   0  0  0  0  0  0  0  0  0  0  0  0
   -3.9555  -50.6741  -14.4654 C   0  0  0  0  0  0  0  0  0  0  0  0
   -4.0793  -51.7741  -13.6188 C   0  0  0  0  0  0  0  0  0  0  0  0
   -4.4802  -52.9960  -14.0972 C   0  0  0  0  0  0  0  0  0  0  0  0
   -4.7650  -53.1442  -15.4272 C   0  0  0  0  0  0  0  0  0  0  0  0
   -4.6525  -52.0705  -16.2977 C   0  0  0  0  0  0  0  0  0  0  0  0
   -4.2486  -50.8621  -15.7844 C   0  0  0  0  0  0  0  0  0  0  0  0
 23 24  1  0  0  0
 24 18  1  0  0  0
 18 19  2  0  0  0
 19 20  1  0  0  0
 20 21  2  0  0  0
 21 22  1  0  0  0
 21 13  1  0  0  0
 13 14  2  0  0  0
 14 15  1  0  0  0
 15 16  2  0  0  0
 16 17  1  0  0  0
 16  9  1  0  0  0
  9 10  2  0  0  0
  9 11  1  0  0  0
 11  1  1  0  0  0
  1  2  2  0  0  0
  2  3  1  0  0  0
  3 26  1  0  0  0
 26 27  1  0  0  0
 27 28  1  0  0  0
 28 29  1  0  0  0
 29 30  1  0  0  0
 30 31  1  0  0  0
 31 32  2  0  0  0
 32 33  1  0  0  0
 33 34  2  0  0  0
 34 35  1  0  0  0
 35 36  2  0  0  0
  3  4  2  0  0  0
  4  5  1  0  0  0
  5  6  2  0  0  0
  6  7  1  0  0  0
 22 18  1  0  0  0
 17 13  1  0  0  0
  6  1  1  0  0  0
 36 31  1  0  0  0
 23 25  1  0  0  0
 11 12  1  0  0  0
  7  8  1  0  0  0
M  END
> <minimizedAffinity>
-8.01280

> <CNNscore>
0.2580838501

> <CNNaffinity>
5.9736504555

> <CNN_VS>
1.5417027473

> <CNNaffinity_variance>
0.0786828846

$$$$
[H]Oc1c([H])c([H])c(C([H])([H])OC([H])([H])C([H])([H])C([H])([H])c2c([H])c([H])c([H])c([H])c2[H])c([H])c1N([H])C(=O)c1oc(-c2sc(C([H])([H])O[H])c([H])c2[H])c([H])c1[H]


 36 39  0  0  0  0  0  0  0  0999 V2000
    1.1149  -50.6632  -18.3072 C   0  0  0  0  0  0  0  0  0  0  0  0
    0.2883  -49.8865  -17.5508 C   0  0  0  0  0  0  0  0  0  0  0  0
    0.6975  -49.1415  -16.4420 C   0  0  0  0  0  0  0  0  0  0  0  0
    2.0179  -49.1891  -16.0830 C   0  0  0  0  0  0  0  0  0  0  0  0
    2.8931  -49.9613  -16.8177 C   0  0  0  0  0  0  0  0  0  0  0  0
    2.4576  -50.6765  -17.8959 C   0  0  0  0  0  0  0  0  0  0  0  0
    3.3736  -51.4378  -18.6032 O   0  0  0  0  0  0  0  0  0  0  0  0
    4.3508  -51.4824  -18.3498 H   0  0  0  0  0  0  0  0  0  0  0  0
   -0.1772  -52.4862  -19.5080 C   0  0  0  0  0  0  0  0  0  0  0  0
   -0.7680  -52.9541  -18.5098 O   0  0  0  0  0  0  0  0  0  0  0  0
    0.7044  -51.4176  -19.4290 N   0  0  0  0  0  0  0  0  0  0  0  0
    1.1620  -51.0909  -20.3527 H   0  0  0  0  0  0  0  0  0  0  0  0
   -0.4478  -53.3959  -22.9527 C   0  0  0  0  0  0  0  0  0  0  0  0
   -1.1094  -54.4727  -22.4131 C   0  0  0  0  0  0  0  0  0  0  0  0
   -1.1193  -54.3119  -21.0214 C   0  0  0  0  0  0  0  0  0  0  0  0
   -0.4413  -53.1127  -20.8267 C   0  0  0  0  0  0  0  0  0  0  0  0
   -0.0817  -52.6378  -21.9824 O   0  0  0  0  0  0  0  0  0  0  0  0
    0.1919  -53.3451  -26.9581 C   0  0  0  0  0  0  0  0  0  0  0  0
   -0.0165  -52.1059  -26.4179 C   0  0  0  0  0  0  0  0  0  0  0  0
   -0.2353  -52.0335  -25.1021 C   0  0  0  0  0  0  0  0  0  0  0  0
   -0.2341  -53.2100  -24.3928 C   0  0  0  0  0  0  0  0  0  0  0  0
    0.0757  -54.3760  -25.6083 S   0  0  0  0  0  0  0  0  0  0  0  0
    0.9418  -52.5569  -29.0779 O   0  0  0  0  0  0  0  0  0  0  0  0
    0.4567  -53.6659  -28.4085 C   0  0  0  0  0  0  0  0  0  0  0  0
    1.6581  -52.8246  -29.6795 H   0  0  0  0  0  0  0  0  0  0  0  0
   -0.2432  -48.3096  -15.6499 C   0  0  0  0  0  0  0  0  0  0  0  0
   -1.4566  -48.9507  -15.6293 O   0  0  0  0  0  0  0  0  0  0  0  0
   -1.7830  -49.5648  -14.4462 C   0  0  0  0  0  0  0  0  0  0  0  0
   -3.1707  -49.1895  -13.9690 C   0  0  0  0  0  0  0  0  0  0  0  0
   -4.1901  -49.4758  -15.0570 C   0  0  0  0  0  0  0  0  0  0  0  0
   -4.4718  -50.9280  -15.0217 C   0  0  0  0  0  0  0  0  0  0  0  0
   -4.8833  -51.5635  -13.8517 C   0  0  0  0  0  0  0  0  0  0  0  0
   -5.1422  -52.9108  -13.8294 C   0  0  0  0  0  0  0  0  0  0  0  0
   -4.9958  -53.6492  -14.9719 C   0  0  0  0  0  0  0  0  0  0  0  0
   -4.5881  -53.0489  -16.1537 C   0  0  0  0  0  0  0  0  0  0  0  0
   -4.3378  -51.6983  -16.1396 C   0  0  0  0  0  0  0  0  0  0  0  0
 23 24  1  0  0  0
 24 18  1  0  0  0
 18 19  2  0  0  0
 19 20  1  0  0  0
 20 21  2  0  0  0
 21 22  1  0  0  0
 21 13  1  0  0  0
 13 14  2  0  0  0
 14 15  1  0  0  0
 15 16  2  0  0  0
 16 17  1  0  0  0
 16  9  1  0  0  0
  9 10  2  0  0  0
  9 11  1  0  0  0
 11  1  1  0  0  0
  1  2  2  0  0  0
  2  3  1  0  0  0
  3 26  1  0  0  0
 26 27  1  0  0  0
 27 28  1  0  0  0
 28 29  1  0  0  0
 29 30  1  0  0  0
 30 31  1  0  0  0
 31 32  2  0  0  0
 32 33  1  0  0  0
 33 34  2  0  0  0
 34 35  1  0  0  0
 35 36  2  0  0  0
  3  4  2  0  0  0
  4  5  1  0  0  0
  5  6  2  0  0  0
  6  7  1  0  0  0
 22 18  1  0  0  0
 17 13  1  0  0  0
  6  1  1  0  0  0
 36 31  1  0  0  0
 23 25  1  0  0  0
 11 12  1  0  0  0
  7  8  1  0  0  0
M  END
> <minimizedAffinity>
-8.21069

> <CNNscore>
0.2557317317

> <CNNaffinity>
5.9168448448

> <CNN_VS>
1.5131249428

> <CNNaffinity_variance>
0.2201301605

$$$$
[H]Oc1c([H])c([H])c(C([H])([H])OC([H])([H])C([H])([H])C([H])([H])c2c([H])c([H])c([H])c([H])c2[H])c([H])c1N([H])C(=O)c1oc(-c2sc(C([H])([H])O[H])c([H])c2[H])c([H])c1[H]


 36 39  0  0  0  0  0  0  0  0999 V2000
    3.4732  -51.3088  -22.3977 C   0  0  0  0  0  0  0  0  0  0  0  0
    2.7909  -51.7838  -23.4782 C   0  0  0  0  0  0  0  0  0  0  0  0
    3.3911  -52.3284  -24.6164 C   0  0  0  0  0  0  0  0  0  0  0  0
    4.7581  -52.3931  -24.6579 C   0  0  0  0  0  0  0  0  0  0  0  0
    5.4921  -51.9248  -23.5883 C   0  0  0  0  0  0  0  0  0  0  0  0
    4.8714  -51.3989  -22.4921 C   0  0  0  0  0  0  0  0  0  0  0  0
    5.6505  -50.9411  -21.4421 O   0  0  0  0  0  0  0  0  0  0  0  0
    6.6601  -50.9826  -21.4591 H   0  0  0  0  0  0  0  0  0  0  0  0
    2.6248  -51.3347  -20.0072 C   0  0  0  0  0  0  0  0  0  0  0  0
    2.9350  -52.5154  -19.7351 O   0  0  0  0  0  0  0  0  0  0  0  0
    2.8695  -50.7578  -21.2453 N   0  0  0  0  0  0  0  0  0  0  0  0
    2.5613  -49.7295  -21.3760 H   0  0  0  0  0  0  0  0  0  0  0  0
    0.5988  -49.9981  -17.3851 C   0  0  0  0  0  0  0  0  0  0  0  0
    1.4327  -48.9195  -17.5574 C   0  0  0  0  0  0  0  0  0  0  0  0
    2.3388  -49.2413  -18.5765 C   0  0  0  0  0  0  0  0  0  0  0  0
    1.9671  -50.5292  -18.9489 C   0  0  0  0  0  0  0  0  0  0  0  0
    0.9569  -50.9047  -18.2217 O   0  0  0  0  0  0  0  0  0  0  0  0
   -2.3374  -49.6482  -14.6081 C   0  0  0  0  0  0  0  0  0  0  0  0
   -2.1737  -50.9220  -15.0790 C   0  0  0  0  0  0  0  0  0  0  0  0
   -1.2257  -51.1246  -15.9981 C   0  0  0  0  0  0  0  0  0  0  0  0
   -0.4881  -50.0373  -16.3995 C   0  0  0  0  0  0  0  0  0  0  0  0
   -1.1590  -48.7683  -15.4654 S   0  0  0  0  0  0  0  0  0  0  0  0
   -4.6269  -49.2657  -14.0708 O   0  0  0  0  0  0  0  0  0  0  0  0
   -3.3375  -49.1876  -13.5764 C   0  0  0  0  0  0  0  0  0  0  0  0
   -5.2220  -49.6087  -13.3816 H   0  0  0  0  0  0  0  0  0  0  0  0
    2.6025  -52.8331  -25.7686 C   0  0  0  0  0  0  0  0  0  0  0  0
    1.5705  -51.9555  -25.9887 O   0  0  0  0  0  0  0  0  0  0  0  0
    0.4037  -52.5147  -26.4465 C   0  0  0  0  0  0  0  0  0  0  0  0
   -0.6507  -52.6087  -25.3632 C   0  0  0  0  0  0  0  0  0  0  0  0
   -0.4995  -53.9135  -24.6018 C   0  0  0  0  0  0  0  0  0  0  0  0
   -0.5543  -53.5875  -23.1595 C   0  0  0  0  0  0  0  0  0  0  0  0
   -0.5812  -52.2688  -22.7096 C   0  0  0  0  0  0  0  0  0  0  0  0
   -0.6322  -51.9771  -21.3699 C   0  0  0  0  0  0  0  0  0  0  0  0
   -0.6572  -52.9935  -20.4543 C   0  0  0  0  0  0  0  0  0  0  0  0
   -0.6317  -54.3172  -20.8671 C   0  0  0  0  0  0  0  0  0  0  0  0
   -0.5808  -54.5724  -22.2159 C   0  0  0  0  0  0  0  0  0  0  0  0
 23 24  1  0  0  0
 24 18  1  0  0  0
 18 19  2  0  0  0
 19 20  1  0  0  0
 20 21  2  0  0  0
 21 22  1  0  0  0
 21 13  1  0  0  0
 13 14  2  0  0  0
 14 15  1  0  0  0
 15 16  2  0  0  0
 16 17  1  0  0  0
 16  9  1  0  0  0
  9 10  2  0  0  0
  9 11  1  0  0  0
 11  1  1  0  0  0
  1  2  2  0  0  0
  2  3  1  0  0  0
  3 26  1  0  0  0
 26 27  1  0  0  0
 27 28  1  0  0  0
 28 29  1  0  0  0
 29 30  1  0  0  0
 30 31  1  0  0  0
 31 32  2  0  0  0
 32 33  1  0  0  0
 33 34  2  0  0  0
 34 35  1  0  0  0
 35 36  2  0  0  0
  3  4  2  0  0  0
  4  5  1  0  0  0
  5  6  2  0  0  0
  6  7  1  0  0  0
 22 18  1  0  0  0
 17 13  1  0  0  0
  6  1  1  0  0  0
 36 31  1  0  0  0
 23 25  1  0  0  0
 11 12  1  0  0  0
  7  8  1  0  0  0
M  END
> <minimizedAffinity>
-7.44687

> <CNNscore>
0.2311433852

> <CNNaffinity>
6.1423883438

> <CNN_VS>
1.4197723866

> <CNNaffinity_variance>
0.2317705154

$$$$
[H]C([H])=C([H])C(=O)N([H])c1c(OC([H])([H])/C([H])=C2\C([H])([H])C3([H])C([H])([H])N(C([H])([H])[H])C([H])([H])[C@@]3([H])C2([H])[H])c([H])c2nc([H])nc(N([H])c3c([H])c([H])c(F)c(Cl)c3[H])c2c1[H]


 38 42  0  0  0  0  0  0  0  0999 V2000
   -0.3490  -52.1840  -19.4124 C   0  0  0  0  0  0  0  0  0  0  0  0
   -1.0509  -53.2775  -19.9184 C   0  0  0  0  0  0  0  0  0  0  0  0
   -0.9796  -53.6978  -21.1956 C   0  0  0  0  0  0  0  0  0  0  0  0
   -1.6943  -54.7728  -21.5863 N   0  0  0  0  0  0  0  0  0  0  0  0
   -1.5802  -55.1841  -22.8969 C   0  0  0  0  0  0  0  0  0  0  0  0
   -0.7933  -54.5309  -23.7212 N   0  0  0  0  0  0  0  0  0  0  0  0
   -0.0428  -53.4502  -23.4323 C   0  0  0  0  0  0  0  0  0  0  0  0
   -0.1433  -53.0251  -22.1174 C   0  0  0  0  0  0  0  0  0  0  0  0
    0.5735  -51.9267  -21.6504 C   0  0  0  0  0  0  0  0  0  0  0  0
    0.4608  -51.5139  -20.3022 C   0  0  0  0  0  0  0  0  0  0  0  0
    0.9907  -50.3550  -19.8526 N   0  0  0  0  0  0  0  0  0  0  0  0
    1.5226  -49.1912  -19.3669 C   0  0  0  0  0  0  0  0  0  0  0  0
    1.7666  -48.7302  -18.2557 O   0  0  0  0  0  0  0  0  0  0  0  0
    0.5720  -50.7047  -18.5681 H   0  0  0  0  0  0  0  0  0  0  0  0
    1.8557  -48.3051  -20.5488 C   0  0  0  0  0  0  0  0  0  0  0  0
    1.6430  -48.3597  -21.7652 C   0  0  0  0  0  0  0  0  0  0  0  0
    0.7252  -52.7344  -24.3530 N   0  0  0  0  0  0  0  0  0  0  0  0
    1.5529  -52.1324  -24.0707 H   0  0  0  0  0  0  0  0  0  0  0  0
    0.4805  -52.7040  -25.7549 C   0  0  0  0  0  0  0  0  0  0  0  0
    1.4829  -52.8455  -26.6516 C   0  0  0  0  0  0  0  0  0  0  0  0
    1.2384  -52.8815  -28.0332 C   0  0  0  0  0  0  0  0  0  0  0  0
    0.0084  -52.7724  -28.5810 C   0  0  0  0  0  0  0  0  0  0  0  0
   -0.2902  -52.7897  -29.8834 F   0  0  0  0  0  0  0  0  0  0  0  0
   -1.0871  -52.6197  -27.6359 C   0  0  0  0  0  0  0  0  0  0  0  0
   -2.6820  -52.4996  -28.3012 Cl  0  0  0  0  0  0  0  0  0  0  0  0
   -0.8074  -52.5945  -26.3133 C   0  0  0  0  0  0  0  0  0  0  0  0
   -0.4783  -51.8227  -18.1519 O   0  0  0  0  0  0  0  0  0  0  0  0
   -0.6280  -52.2190  -16.9179 C   0  0  0  0  0  0  0  0  0  0  0  0
   -5.9759  -52.8161  -12.7337 C   0  0  0  0  0  0  0  0  0  0  0  0
   -4.8057  -51.9902  -12.8767 N   0  0  0  0  0  0  0  0  0  0  0  0
   -3.9533  -52.6145  -13.8737 C   0  0  0  0  0  0  0  0  0  0  0  0
   -4.4476  -52.0224  -15.1664 C   0  0  0  0  0  0  0  0  0  0  0  0
   -3.3823  -51.9768  -16.2493 C   0  0  0  0  0  0  0  0  0  0  0  0
   -2.3896  -51.1021  -15.6307 C   0  0  0  0  0  0  0  0  0  0  0  0
   -1.0328  -51.1871  -15.9160 C   0  0  0  0  0  0  0  0  0  0  0  0
   -3.0332  -50.1648  -14.7344 C   0  0  0  0  0  0  0  0  0  0  0  0
   -4.4992  -50.5419  -14.7311 C   0  0  0  0  0  0  0  0  0  0  0  0
   -5.0767  -50.6503  -13.3367 C   0  0  0  0  0  0  0  0  0  0  0  0
 29 30  1  0  0  0
 30 31  1  0  0  0
 31 32  1  0  0  0
 32 33  1  0  0  0
 33 34  1  0  0  0
 34 35  2  0  0  0
 35 28  1  0  0  0
 28 27  1  0  0  0
 27  1  1  0  0  0
  1  2  2  0  0  0
  2  3  1  0  0  0
  3  4  2  0  0  0
  4  5  1  0  0  0
  5  6  2  0  0  0
  6  7  1  0  0  0
  7 17  1  0  0  0
 17 19  1  0  0  0
 19 20  2  0  0  0
 20 21  1  0  0  0
 21 22  2  0  0  0
 22 23  1  0  0  0
 22 24  1  0  0  0
 24 25  1  0  0  0
 24 26  2  0  0  0
  7  8  2  0  0  0
  8  9  1  0  0  0
  9 10  2  0  0  0
 10 11  1  0  0  0
 11 12  1  0  0  0
 12 13  2  0  0  0
 12 15  1  0  0  0
 15 16  2  0  0  0
 34 36  1  0  0  0
 36 37  1  0  0  0
 37 38  1  0  0  0
 38 30  1  0  0  0
 37 32  1  0  0  0
 10  1  1  0  0  0
  8  3  1  0  0  0
 26 19  1  0  0  0
 17 18  1  0  0  0
 11 14  1  0  0  0
M  END
> <minimizedAffinity>
-9.82314

> <CNNscore>
0.9614188075

> <CNNaffinity>
7.9631958008

> <CNN_VS>
7.6559662819

> <CNNaffinity_variance>
0.0204440169

$$$$
[H]C([H])=C([H])C(=O)N([H])c1c(OC([H])([H])/C([H])=C2\C([H])([H])C3([H])C([H])([H])N(C([H])([H])[H])C([H])([H])[C@@]3([H])C2([H])[H])c([H])c2nc([H])nc(N([H])c3c([H])c([H])c(F)c(Cl)c3[H])c2c1[H]


 38 42  0  0  0  0  0  0  0  0999 V2000
   -0.2487  -52.2195  -19.4762 C   0  0  0  0  0  0  0  0  0  0  0  0
   -0.9252  -53.3298  -19.9802 C   0  0  0  0  0  0  0  0  0  0  0  0
   -0.8850  -53.7206  -21.2681 C   0  0  0  0  0  0  0  0  0  0  0  0
   -1.5706  -54.8153  -21.6560 N   0  0  0  0  0  0  0  0  0  0  0  0
   -1.4894  -55.1947  -22.9786 C   0  0  0  0  0  0  0  0  0  0  0  0
   -0.7603  -54.4935  -23.8165 N   0  0  0  0  0  0  0  0  0  0  0  0
   -0.0429  -53.3896  -23.5316 C   0  0  0  0  0  0  0  0  0  0  0  0
   -0.1110  -52.9959  -22.2048 C   0  0  0  0  0  0  0  0  0  0  0  0
    0.5787  -51.8792  -21.7403 C   0  0  0  0  0  0  0  0  0  0  0  0
    0.5001  -51.4991  -20.3801 C   0  0  0  0  0  0  0  0  0  0  0  0
    1.0002  -50.3292  -19.9247 N   0  0  0  0  0  0  0  0  0  0  0  0
    1.5098  -49.1343  -19.4939 C   0  0  0  0  0  0  0  0  0  0  0  0
    1.8843  -48.0931  -20.0255 O   0  0  0  0  0  0  0  0  0  0  0  0
    1.3358  -50.0032  -21.2395 H   0  0  0  0  0  0  0  0  0  0  0  0
    1.6176  -49.1934  -17.9846 C   0  0  0  0  0  0  0  0  0  0  0  0
    2.4768  -49.5868  -17.1879 C   0  0  0  0  0  0  0  0  0  0  0  0
    0.6613  -52.6245  -24.4636 N   0  0  0  0  0  0  0  0  0  0  0  0
    1.4311  -51.9462  -24.1909 H   0  0  0  0  0  0  0  0  0  0  0  0
    0.4194  -52.6411  -25.8663 C   0  0  0  0  0  0  0  0  0  0  0  0
    1.4252  -52.8021  -26.7561 C   0  0  0  0  0  0  0  0  0  0  0  0
    1.1841  -52.8843  -28.1363 C   0  0  0  0  0  0  0  0  0  0  0  0
   -0.0456  -52.8038  -28.6898 C   0  0  0  0  0  0  0  0  0  0  0  0
   -0.3411  -52.8653  -29.9915 F   0  0  0  0  0  0  0  0  0  0  0  0
   -1.1445  -52.6308  -27.7521 C   0  0  0  0  0  0  0  0  0  0  0  0
   -2.7389  -52.5463  -28.4241 Cl  0  0  0  0  0  0  0  0  0  0  0  0
   -0.8681  -52.5610  -26.4304 C   0  0  0  0  0  0  0  0  0  0  0  0
   -0.3450  -51.8896  -18.2042 O   0  0  0  0  0  0  0  0  0  0  0  0
   -0.6288  -52.2919  -16.9960 C   0  0  0  0  0  0  0  0  0  0  0  0
   -0.8103  -46.0222  -14.3273 C   0  0  0  0  0  0  0  0  0  0  0  0
   -1.7331  -47.0600  -14.7058 N   0  0  0  0  0  0  0  0  0  0  0  0
   -0.9870  -48.0477  -15.4661 C   0  0  0  0  0  0  0  0  0  0  0  0
   -0.4748  -48.9827  -14.4033 C   0  0  0  0  0  0  0  0  0  0  0  0
   -0.2374  -50.3947  -14.9128 C   0  0  0  0  0  0  0  0  0  0  0  0
   -1.5859  -50.7757  -15.3249 C   0  0  0  0  0  0  0  0  0  0  0  0
   -1.8297  -51.6891  -16.3425 C   0  0  0  0  0  0  0  0  0  0  0  0
   -2.5719  -50.0907  -14.5157 C   0  0  0  0  0  0  0  0  0  0  0  0
   -1.7876  -49.1645  -13.6111 C   0  0  0  0  0  0  0  0  0  0  0  0
   -2.3354  -47.7541  -13.5941 C   0  0  0  0  0  0  0  0  0  0  0  0
 29 30  1  0  0  0
 30 31  1  0  0  0
 31 32  1  0  0  0
 32 33  1  0  0  0
 33 34  1  0  0  0
 34 35  2  0  0  0
 35 28  1  0  0  0
 28 27  1  0  0  0
 27  1  1  0  0  0
  1  2  2  0  0  0
  2  3  1  0  0  0
  3  4  2  0  0  0
  4  5  1  0  0  0
  5  6  2  0  0  0
  6  7  1  0  0  0
  7 17  1  0  0  0
 17 19  1  0  0  0
 19 20  2  0  0  0
 20 21  1  0  0  0
 21 22  2  0  0  0
 22 23  1  0  0  0
 22 24  1  0  0  0
 24 25  1  0  0  0
 24 26  2  0  0  0
  7  8  2  0  0  0
  8  9  1  0  0  0
  9 10  2  0  0  0
 10 11  1  0  0  0
 11 12  1  0  0  0
 12 13  2  0  0  0
 12 15  1  0  0  0
 15 16  2  0  0  0
 34 36  1  0  0  0
 36 37  1  0  0  0
 37 38  1  0  0  0
 38 30  1  0  0  0
 37 32  1  0  0  0
 10  1  1  0  0  0
  8  3  1  0  0  0
 26 19  1  0  0  0
 17 18  1  0  0  0
 11 14  1  0  0  0
M  END
> <minimizedAffinity>
-9.18792

> <CNNscore>
0.9101276994

> <CNNaffinity>
7.7754297256

> <CNN_VS>
7.0766339302

> <CNNaffinity_variance>
0.0255244635

$$$$
[H]C([H])=C([H])C(=O)N([H])c1c(OC([H])([H])/C([H])=C2\C([H])([H])C3([H])C([H])([H])N(C([H])([H])[H])C([H])([H])[C@@]3([H])C2([H])[H])c([H])c2nc([H])nc(N([H])c3c([H])c([H])c(F)c(Cl)c3[H])c2c1[H]


 38 42  0  0  0  0  0  0  0  0999 V2000
   -0.0236  -51.4897  -19.9053 C   0  0  0  0  0  0  0  0  0  0  0  0
   -0.7744  -52.6294  -20.1916 C   0  0  0  0  0  0  0  0  0  0  0  0
   -0.7373  -53.2850  -21.3671 C   0  0  0  0  0  0  0  0  0  0  0  0
   -1.4985  -54.3843  -21.5436 N   0  0  0  0  0  0  0  0  0  0  0  0
   -1.4189  -55.0390  -22.7538 C   0  0  0  0  0  0  0  0  0  0  0  0
   -0.6188  -54.5852  -23.6915 N   0  0  0  0  0  0  0  0  0  0  0  0
    0.1771  -53.5010  -23.6164 C   0  0  0  0  0  0  0  0  0  0  0  0
    0.1115  -52.8324  -22.4046 C   0  0  0  0  0  0  0  0  0  0  0  0
    0.8769  -51.6958  -22.1576 C   0  0  0  0  0  0  0  0  0  0  0  0
    0.7991  -51.0326  -20.9107 C   0  0  0  0  0  0  0  0  0  0  0  0
    1.3798  -49.8324  -20.6910 N   0  0  0  0  0  0  0  0  0  0  0  0
    1.9635  -48.6208  -20.4368 C   0  0  0  0  0  0  0  0  0  0  0  0
    2.2493  -47.9735  -19.4337 O   0  0  0  0  0  0  0  0  0  0  0  0
    0.9789  -49.9238  -19.3574 H   0  0  0  0  0  0  0  0  0  0  0  0
    2.3001  -47.9802  -21.7671 C   0  0  0  0  0  0  0  0  0  0  0  0
    2.6799  -48.4019  -22.8651 C   0  0  0  0  0  0  0  0  0  0  0  0
    0.9594  -53.0029  -24.6604 N   0  0  0  0  0  0  0  0  0  0  0  0
    1.9421  -52.6274  -24.5177 H   0  0  0  0  0  0  0  0  0  0  0  0
    0.5325  -52.9153  -26.0155 C   0  0  0  0  0  0  0  0  0  0  0  0
    1.3940  -53.0970  -27.0421 C   0  0  0  0  0  0  0  0  0  0  0  0
    0.9654  -53.0762  -28.3784 C   0  0  0  0  0  0  0  0  0  0  0  0
   -0.3160  -52.8693  -28.7527 C   0  0  0  0  0  0  0  0  0  0  0  0
   -0.7862  -52.8285  -30.0029 F   0  0  0  0  0  0  0  0  0  0  0  0
   -1.2622  -52.6715  -27.6654 C   0  0  0  0  0  0  0  0  0  0  0  0
   -2.9192  -52.4259  -28.1066 Cl  0  0  0  0  0  0  0  0  0  0  0  0
   -0.8075  -52.7038  -26.3924 C   0  0  0  0  0  0  0  0  0  0  0  0
   -0.1212  -50.8928  -18.7347 O   0  0  0  0  0  0  0  0  0  0  0  0
    0.0193  -51.0056  -17.4426 C   0  0  0  0  0  0  0  0  0  0  0  0
    4.5294  -52.9926  -12.7336 C   0  0  0  0  0  0  0  0  0  0  0  0
    4.2875  -51.8560  -13.5830 N   0  0  0  0  0  0  0  0  0  0  0  0
    3.2661  -52.2405  -14.5417 C   0  0  0  0  0  0  0  0  0  0  0  0
    1.9836  -51.8988  -13.8315 C   0  0  0  0  0  0  0  0  0  0  0  0
    0.8390  -51.5859  -14.7811 C   0  0  0  0  0  0  0  0  0  0  0  0
    1.3654  -50.4168  -15.4807 C   0  0  0  0  0  0  0  0  0  0  0  0
    1.0043  -50.0961  -16.7831 C   0  0  0  0  0  0  0  0  0  0  0  0
    2.2626  -49.6762  -14.6190 C   0  0  0  0  0  0  0  0  0  0  0  0
    2.3660  -50.4847  -13.3435 C   0  0  0  0  0  0  0  0  0  0  0  0
    3.7949  -50.6907  -12.8904 C   0  0  0  0  0  0  0  0  0  0  0  0
 29 30  1  0  0  0
 30 31  1  0  0  0
 31 32  1  0  0  0
 32 33  1  0  0  0
 33 34  1  0  0  0
 34 35  2  0  0  0
 35 28  1  0  0  0
 28 27  1  0  0  0
 27  1  1  0  0  0
  1  2  2  0  0  0
  2  3  1  0  0  0
  3  4  2  0  0  0
  4  5  1  0  0  0
  5  6  2  0  0  0
  6  7  1  0  0  0
  7 17  1  0  0  0
 17 19  1  0  0  0
 19 20  2  0  0  0
 20 21  1  0  0  0
 21 22  2  0  0  0
 22 23  1  0  0  0
 22 24  1  0  0  0
 24 25  1  0  0  0
 24 26  2  0  0  0
  7  8  2  0  0  0
  8  9  1  0  0  0
  9 10  2  0  0  0
 10 11  1  0  0  0
 11 12  1  0  0  0
 12 13  2  0  0  0
 12 15  1  0  0  0
 15 16  2  0  0  0
 34 36  1  0  0  0
 36 37  1  0  0  0
 37 38  1  0  0  0
 38 30  1  0  0  0
 37 32  1  0  0  0
 10  1  1  0  0  0
  8  3  1  0  0  0
 26 19  1  0  0  0
 17 18  1  0  0  0
 11 14  1  0  0  0
M  END
> <minimizedAffinity>
-8.98591

> <CNNscore>
0.8670866489

> <CNNaffinity>
7.7780823708

> <CNN_VS>
6.7442712784

> <CNNaffinity_variance>
0.0838261694

$$$$
[H]C([H])=C([H])C(=O)N([H])c1c(OC([H])([H])/C([H])=C2\C([H])([H])C3([H])C([H])([H])N(C([H])([H])[H])C([H])([H])[C@@]3([H])C2([H])[H])c([H])c2nc([H])nc(N([H])c3c([H])c([H])c(F)c(Cl)c3[H])c2c1[H]


 38 42  0  0  0  0  0  0  0  0999 V2000
    1.7269  -50.2197  -22.2885 C   0  0  0  0  0  0  0  0  0  0  0  0
    0.7464  -50.9995  -21.6760 C   0  0  0  0  0  0  0  0  0  0  0  0
    0.2723  -52.1541  -22.1811 C   0  0  0  0  0  0  0  0  0  0  0  0
   -0.6737  -52.8397  -21.5074 N   0  0  0  0  0  0  0  0  0  0  0  0
   -1.1201  -54.0269  -22.0471 C   0  0  0  0  0  0  0  0  0  0  0  0
   -0.6239  -54.4553  -23.1853 N   0  0  0  0  0  0  0  0  0  0  0  0
    0.3173  -53.8479  -23.9336 C   0  0  0  0  0  0  0  0  0  0  0  0
    0.7795  -52.6540  -23.4037 C   0  0  0  0  0  0  0  0  0  0  0  0
    1.7595  -51.9028  -24.0469 C   0  0  0  0  0  0  0  0  0  0  0  0
    2.2215  -50.6899  -23.4847 C   0  0  0  0  0  0  0  0  0  0  0  0
    3.0318  -49.8423  -24.1562 N   0  0  0  0  0  0  0  0  0  0  0  0
    3.8623  -49.0084  -24.8549 C   0  0  0  0  0  0  0  0  0  0  0  0
    4.6217  -49.1209  -25.8127 O   0  0  0  0  0  0  0  0  0  0  0  0
    3.6015  -50.9475  -24.7899 H   0  0  0  0  0  0  0  0  0  0  0  0
    3.7754  -47.6338  -24.2256 C   0  0  0  0  0  0  0  0  0  0  0  0
    3.7800  -46.4762  -24.6586 C   0  0  0  0  0  0  0  0  0  0  0  0
    0.7680  -54.2940  -25.1776 N   0  0  0  0  0  0  0  0  0  0  0  0
    1.4591  -55.0921  -25.2895 H   0  0  0  0  0  0  0  0  0  0  0  0
    0.3829  -53.7259  -26.4247 C   0  0  0  0  0  0  0  0  0  0  0  0
    1.2436  -53.6535  -27.4654 C   0  0  0  0  0  0  0  0  0  0  0  0
    0.8494  -53.1542  -28.7165 C   0  0  0  0  0  0  0  0  0  0  0  0
   -0.3949  -52.7032  -28.9867 C   0  0  0  0  0  0  0  0  0  0  0  0
   -0.8303  -52.2087  -30.1493 F   0  0  0  0  0  0  0  0  0  0  0  0
   -1.3395  -52.7714  -27.8822 C   0  0  0  0  0  0  0  0  0  0  0  0
   -2.9519  -52.2226  -28.1982 Cl  0  0  0  0  0  0  0  0  0  0  0  0
   -0.9192  -53.2636  -26.6951 C   0  0  0  0  0  0  0  0  0  0  0  0
    2.1337  -49.0925  -21.7406 O   0  0  0  0  0  0  0  0  0  0  0  0
    2.4034  -48.4584  -20.6328 C   0  0  0  0  0  0  0  0  0  0  0  0
    3.9935  -49.6596  -14.1141 C   0  0  0  0  0  0  0  0  0  0  0  0
    2.8611  -49.2148  -14.8834 N   0  0  0  0  0  0  0  0  0  0  0  0
    3.3323  -48.9398  -16.2297 C   0  0  0  0  0  0  0  0  0  0  0  0
    3.1940  -50.2705  -16.9196 C   0  0  0  0  0  0  0  0  0  0  0  0
    2.9911  -50.1477  -18.4208 C   0  0  0  0  0  0  0  0  0  0  0  0
    1.7327  -49.4082  -18.4751 C   0  0  0  0  0  0  0  0  0  0  0  0
    1.4034  -48.5636  -19.5275 C   0  0  0  0  0  0  0  0  0  0  0  0
    0.9206  -49.7106  -17.3152 C   0  0  0  0  0  0  0  0  0  0  0  0
    1.7655  -50.6207  -16.4496 C   0  0  0  0  0  0  0  0  0  0  0  0
    1.8029  -50.1879  -15.0002 C   0  0  0  0  0  0  0  0  0  0  0  0
 29 30  1  0  0  0
 30 31  1  0  0  0
 31 32  1  0  0  0
 32 33  1  0  0  0
 33 34  1  0  0  0
 34 35  2  0  0  0
 35 28  1  0  0  0
 28 27  1  0  0  0
 27  1  1  0  0  0
  1  2  2  0  0  0
  2  3  1  0  0  0
  3  4  2  0  0  0
  4  5  1  0  0  0
  5  6  2  0  0  0
  6  7  1  0  0  0
  7 17  1  0  0  0
 17 19  1  0  0  0
 19 20  2  0  0  0
 20 21  1  0  0  0
 21 22  2  0  0  0
 22 23  1  0  0  0
 22 24  1  0  0  0
 24 25  1  0  0  0
 24 26  2  0  0  0
  7  8  2  0  0  0
  8  9  1  0  0  0
  9 10  2  0  0  0
 10 11  1  0  0  0
 11 12  1  0  0  0
 12 13  2  0  0  0
 12 15  1  0  0  0
 15 16  2  0  0  0
 34 36  1  0  0  0
 36 37  1  0  0  0
 37 38  1  0  0  0
 38 30  1  0  0  0
 37 32  1  0  0  0
 10  1  1  0  0  0
  8  3  1  0  0  0
 26 19  1  0  0  0
 17 18  1  0  0  0
 11 14  1  0  0  0
M  END
> <minimizedAffinity>
-7.43310

> <CNNscore>
0.5431770086

> <CNNaffinity>
7.6788148880

> <CNN_VS>
4.1709556580

> <CNNaffinity_variance>
0.1503476650

$$$$
[H]C([H])=C([H])C(=O)N([H])c1c(OC([H])([H])/C([H])=C2\C([H])([H])C3([H])C([H])([H])N(C([H])([H])[H])C([H])([H])[C@@]3([H])C2([H])[H])c([H])c2nc([H])nc(N([H])c3c([H])c([H])c(F)c(Cl)c3[H])c2c1[H]


 38 42  0  0  0  0  0  0  0  0999 V2000
    1.0300  -50.2123  -20.8473 C   0  0  0  0  0  0  0  0  0  0  0  0
    0.0794  -51.2114  -20.6407 C   0  0  0  0  0  0  0  0  0  0  0  0
   -0.1334  -52.2401  -21.4831 C   0  0  0  0  0  0  0  0  0  0  0  0
   -1.0742  -53.1607  -21.1894 N   0  0  0  0  0  0  0  0  0  0  0  0
   -1.2494  -54.2093  -22.0667 C   0  0  0  0  0  0  0  0  0  0  0  0
   -0.5104  -54.2863  -23.1498 N   0  0  0  0  0  0  0  0  0  0  0  0
    0.4495  -53.4226  -23.5334 C   0  0  0  0  0  0  0  0  0  0  0  0
    0.6409  -52.3635  -22.6608 C   0  0  0  0  0  0  0  0  0  0  0  0
    1.6005  -51.3842  -22.9034 C   0  0  0  0  0  0  0  0  0  0  0  0
    1.7834  -50.3150  -21.9957 C   0  0  0  0  0  0  0  0  0  0  0  0
    2.5687  -49.2520  -22.2770 N   0  0  0  0  0  0  0  0  0  0  0  0
    3.3624  -48.1663  -22.5311 C   0  0  0  0  0  0  0  0  0  0  0  0
    3.8539  -47.2592  -21.8661 O   0  0  0  0  0  0  0  0  0  0  0  0
    2.3038  -48.7640  -20.9967 H   0  0  0  0  0  0  0  0  0  0  0  0
    3.6524  -48.1418  -24.0172 C   0  0  0  0  0  0  0  0  0  0  0  0
    3.3971  -48.8909  -24.9666 C   0  0  0  0  0  0  0  0  0  0  0  0
    1.1650  -53.4941  -24.7304 N   0  0  0  0  0  0  0  0  0  0  0  0
    2.1864  -53.7797  -24.7769 H   0  0  0  0  0  0  0  0  0  0  0  0
    0.6288  -53.1732  -26.0094 C   0  0  0  0  0  0  0  0  0  0  0  0
    1.3954  -53.1925  -27.1234 C   0  0  0  0  0  0  0  0  0  0  0  0
    0.8571  -52.9407  -28.3949 C   0  0  0  0  0  0  0  0  0  0  0  0
   -0.4445  -52.6544  -28.6159 C   0  0  0  0  0  0  0  0  0  0  0  0
   -1.0163  -52.3967  -29.7958 F   0  0  0  0  0  0  0  0  0  0  0  0
   -1.2899  -52.6282  -27.4321 C   0  0  0  0  0  0  0  0  0  0  0  0
   -2.9701  -52.2868  -27.6795 Cl  0  0  0  0  0  0  0  0  0  0  0  0
   -0.7312  -52.8811  -26.2271 C   0  0  0  0  0  0  0  0  0  0  0  0
    1.1736  -49.2273  -19.9841 O   0  0  0  0  0  0  0  0  0  0  0  0
    1.9008  -48.7179  -19.0282 C   0  0  0  0  0  0  0  0  0  0  0  0
    0.0766  -52.1383  -13.4213 C   0  0  0  0  0  0  0  0  0  0  0  0
    1.1348  -52.1533  -14.3970 N   0  0  0  0  0  0  0  0  0  0  0  0
    0.7313  -51.2832  -15.4880 C   0  0  0  0  0  0  0  0  0  0  0  0
    1.2392  -49.9337  -15.0557 C   0  0  0  0  0  0  0  0  0  0  0  0
    1.5375  -49.0054  -16.2215 C   0  0  0  0  0  0  0  0  0  0  0  0
    2.5858  -49.7507  -16.9136 C   0  0  0  0  0  0  0  0  0  0  0  0
    2.7971  -49.6527  -18.2829 C   0  0  0  0  0  0  0  0  0  0  0  0
    3.3419  -50.5487  -15.9714 C   0  0  0  0  0  0  0  0  0  0  0  0
    2.6634  -50.3539  -14.6324 C   0  0  0  0  0  0  0  0  0  0  0  0
    2.3987  -51.6571  -13.9106 C   0  0  0  0  0  0  0  0  0  0  0  0
 29 30  1  0  0  0
 30 31  1  0  0  0
 31 32  1  0  0  0
 32 33  1  0  0  0
 33 34  1  0  0  0
 34 35  2  0  0  0
 35 28  1  0  0  0
 28 27  1  0  0  0
 27  1  1  0  0  0
  1  2  2  0  0  0
  2  3  1  0  0  0
  3  4  2  0  0  0
  4  5  1  0  0  0
  5  6  2  0  0  0
  6  7  1  0  0  0
  7 17  1  0  0  0
 17 19  1  0  0  0
 19 20  2  0  0  0
 20 21  1  0  0  0
 21 22  2  0  0  0
 22 23  1  0  0  0
 22 24  1  0  0  0
 24 25  1  0  0  0
 24 26  2  0  0  0
  7  8  2  0  0  0
  8  9  1  0  0  0
  9 10  2  0  0  0
 10 11  1  0  0  0
 11 12  1  0  0  0
 12 13  2  0  0  0
 12 15  1  0  0  0
 15 16  2  0  0  0
 34 36  1  0  0  0
 36 37  1  0  0  0
 37 38  1  0  0  0
 38 30  1  0  0  0
 37 32  1  0  0  0
 10  1  1  0  0  0
  8  3  1  0  0  0
 26 19  1  0  0  0
 17 18  1  0  0  0
 11 14  1  0  0  0
M  END
> <minimizedAffinity>
-8.16152

> <CNNscore>
0.5192565322

> <CNNaffinity>
7.5942525864

> <CNN_VS>
3.9433653355

> <CNNaffinity_variance>
0.1375686377

$$$$
[H]C([H])=C([H])C(=O)N([H])c1c(OC([H])([H])/C([H])=C2\C([H])([H])C3([H])C([H])([H])N(C([H])([H])[H])C([H])([H])[C@@]3([H])C2([H])[H])c([H])c2nc([H])nc(N([H])c3c([H])c([H])c(F)c(Cl)c3[H])c2c1[H]


 38 42  0  0  0  0  0  0  0  0999 V2000
    2.0133  -51.4663  -23.1552 C   0  0  0  0  0  0  0  0  0  0  0  0
    0.9407  -52.2897  -23.4960 C   0  0  0  0  0  0  0  0  0  0  0  0
    0.1920  -52.9658  -22.6041 C   0  0  0  0  0  0  0  0  0  0  0  0
   -0.8306  -53.7325  -23.0348 N   0  0  0  0  0  0  0  0  0  0  0  0
   -1.5858  -54.3939  -22.0904 C   0  0  0  0  0  0  0  0  0  0  0  0
   -1.2972  -54.2659  -20.8154 N   0  0  0  0  0  0  0  0  0  0  0  0
   -0.3014  -53.5301  -20.2847 C   0  0  0  0  0  0  0  0  0  0  0  0
    0.4662  -52.8557  -21.2205 C   0  0  0  0  0  0  0  0  0  0  0  0
    1.5310  -52.0434  -20.8399 C   0  0  0  0  0  0  0  0  0  0  0  0
    2.2974  -51.3590  -21.8119 C   0  0  0  0  0  0  0  0  0  0  0  0
    3.4428  -50.7102  -21.5064 N   0  0  0  0  0  0  0  0  0  0  0  0
    4.5857  -50.0314  -21.1803 C   0  0  0  0  0  0  0  0  0  0  0  0
    4.8620  -49.0446  -20.5047 O   0  0  0  0  0  0  0  0  0  0  0  0
    2.6715  -49.6676  -20.9910 H   0  0  0  0  0  0  0  0  0  0  0  0
    5.7460  -50.7207  -21.8670 C   0  0  0  0  0  0  0  0  0  0  0  0
    5.9830  -51.0803  -23.0256 C   0  0  0  0  0  0  0  0  0  0  0  0
    0.0244  -53.4763  -18.9279 N   0  0  0  0  0  0  0  0  0  0  0  0
    0.8522  -53.9943  -18.5115 H   0  0  0  0  0  0  0  0  0  0  0  0
   -0.7161  -52.7540  -17.9500 C   0  0  0  0  0  0  0  0  0  0  0  0
   -0.2544  -51.5962  -17.4252 C   0  0  0  0  0  0  0  0  0  0  0  0
   -1.0098  -50.8472  -16.5096 C   0  0  0  0  0  0  0  0  0  0  0  0
   -2.2354  -51.2104  -16.0729 C   0  0  0  0  0  0  0  0  0  0  0  0
   -3.0000  -50.5495  -15.1986 F   0  0  0  0  0  0  0  0  0  0  0  0
   -2.7541  -52.4530  -16.6239 C   0  0  0  0  0  0  0  0  0  0  0  0
   -4.3334  -52.9391  -16.1040 Cl  0  0  0  0  0  0  0  0  0  0  0  0
   -1.9952  -53.1409  -17.5066 C   0  0  0  0  0  0  0  0  0  0  0  0
    2.7100  -50.8448  -24.0850 O   0  0  0  0  0  0  0  0  0  0  0  0
    2.9271  -49.7206  -24.7104 C   0  0  0  0  0  0  0  0  0  0  0  0
    5.7919  -44.2952  -27.6805 C   0  0  0  0  0  0  0  0  0  0  0  0
    5.8847  -45.7304  -27.7384 N   0  0  0  0  0  0  0  0  0  0  0  0
    5.1398  -46.2591  -26.6088 C   0  0  0  0  0  0  0  0  0  0  0  0
    3.7426  -46.3940  -27.1527 C   0  0  0  0  0  0  0  0  0  0  0  0
    2.9328  -47.4770  -26.4592 C   0  0  0  0  0  0  0  0  0  0  0  0
    3.7229  -48.6644  -26.7741 C   0  0  0  0  0  0  0  0  0  0  0  0
    3.7614  -49.7808  -25.9486 C   0  0  0  0  0  0  0  0  0  0  0  0
    4.4038  -48.4947  -28.0404 C   0  0  0  0  0  0  0  0  0  0  0  0
    4.0870  -47.0844  -28.4902 C   0  0  0  0  0  0  0  0  0  0  0  0
    5.3146  -46.3153  -28.9272 C   0  0  0  0  0  0  0  0  0  0  0  0
 29 30  1  0  0  0
 30 31  1  0  0  0
 31 32  1  0  0  0
 32 33  1  0  0  0
 33 34  1  0  0  0
 34 35  2  0  0  0
 35 28  1  0  0  0
 28 27  1  0  0  0
 27  1  1  0  0  0
  1  2  2  0  0  0
  2  3  1  0  0  0
  3  4  2  0  0  0
  4  5  1  0  0  0
  5  6  2  0  0  0
  6  7  1  0  0  0
  7 17  1  0  0  0
 17 19  1  0  0  0
 19 20  2  0  0  0
 20 21  1  0  0  0
 21 22  2  0  0  0
 22 23  1  0  0  0
 22 24  1  0  0  0
 24 25  1  0  0  0
 24 26  2  0  0  0
  7  8  2  0  0  0
  8  9  1  0  0  0
  9 10  2  0  0  0
 10 11  1  0  0  0
 11 12  1  0  0  0
 12 13  2  0  0  0
 12 15  1  0  0  0
 15 16  2  0  0  0
 34 36  1  0  0  0
 36 37  1  0  0  0
 37 38  1  0  0  0
 38 30  1  0  0  0
 37 32  1  0  0  0
 10  1  1  0  0  0
  8  3  1  0  0  0
 26 19  1  0  0  0
 17 18  1  0  0  0
 11 14  1  0  0  0
M  END
> <minimizedAffinity>
-7.50137

> <CNNscore>
0.5131279230

> <CNNaffinity>
7.2275633812

> <CNN_VS>
3.7086646557

> <CNNaffinity_variance>
0.2430173606

$$$$
[H]C([H])=C([H])C(=O)N([H])c1c(OC([H])([H])/C([H])=C2\C([H])([H])C3([H])C([H])([H])N(C([H])([H])[H])C([H])([H])[C@@]3([H])C2([H])[H])c([H])c2nc([H])nc(N([H])c3c([H])c([H])c(F)c(Cl)c3[H])c2c1[H]


 38 42  0  0  0  0  0  0  0  0999 V2000
    1.1399  -50.3341  -21.2402 C   0  0  0  0  0  0  0  0  0  0  0  0
    2.0244  -49.5223  -21.9497 C   0  0  0  0  0  0  0  0  0  0  0  0
    2.4959  -49.8089  -23.1779 C   0  0  0  0  0  0  0  0  0  0  0  0
    3.3442  -48.9536  -23.7844 N   0  0  0  0  0  0  0  0  0  0  0  0
    3.7901  -49.2724  -25.0491 C   0  0  0  0  0  0  0  0  0  0  0  0
    3.3871  -50.3824  -25.6242 N   0  0  0  0  0  0  0  0  0  0  0  0
    2.5475  -51.2995  -25.1059 C   0  0  0  0  0  0  0  0  0  0  0  0
    2.0870  -50.9930  -23.8356 C   0  0  0  0  0  0  0  0  0  0  0  0
    1.2047  -51.8309  -23.1589 C   0  0  0  0  0  0  0  0  0  0  0  0
    0.7423  -51.4951  -21.8650 C   0  0  0  0  0  0  0  0  0  0  0  0
    0.0355  -52.3576  -21.1018 N   0  0  0  0  0  0  0  0  0  0  0  0
   -0.6934  -53.2437  -20.3555 C   0  0  0  0  0  0  0  0  0  0  0  0
   -1.4718  -54.1631  -20.5912 O   0  0  0  0  0  0  0  0  0  0  0  0
   -0.6740  -52.7300  -22.2444 H   0  0  0  0  0  0  0  0  0  0  0  0
   -0.4296  -52.9459  -18.8944 C   0  0  0  0  0  0  0  0  0  0  0  0
   -1.1417  -52.7595  -17.9015 C   0  0  0  0  0  0  0  0  0  0  0  0
    2.1989  -52.5067  -25.7150 N   0  0  0  0  0  0  0  0  0  0  0  0
    2.6489  -53.4338  -25.4597 H   0  0  0  0  0  0  0  0  0  0  0  0
    1.2332  -52.6357  -26.7529 C   0  0  0  0  0  0  0  0  0  0  0  0
    1.5661  -53.1118  -27.9742 C   0  0  0  0  0  0  0  0  0  0  0  0
    0.6056  -53.3021  -28.9797 C   0  0  0  0  0  0  0  0  0  0  0  0
   -0.7077  -53.0256  -28.8254 C   0  0  0  0  0  0  0  0  0  0  0  0
   -1.6683  -53.1748  -29.7422 F   0  0  0  0  0  0  0  0  0  0  0  0
   -1.0906  -52.5123  -27.5190 C   0  0  0  0  0  0  0  0  0  0  0  0
   -2.7709  -52.1677  -27.2768 Cl  0  0  0  0  0  0  0  0  0  0  0  0
   -0.1339  -52.3485  -26.5777 C   0  0  0  0  0  0  0  0  0  0  0  0
    0.7302  -49.9947  -20.0348 O   0  0  0  0  0  0  0  0  0  0  0  0
    1.0747  -49.5781  -18.8474 C   0  0  0  0  0  0  0  0  0  0  0  0
    0.1909  -52.4651  -12.7361 C   0  0  0  0  0  0  0  0  0  0  0  0
    1.1256  -52.5198  -13.8293 N   0  0  0  0  0  0  0  0  0  0  0  0
    0.5307  -51.8044  -14.9449 C   0  0  0  0  0  0  0  0  0  0  0  0
    0.9789  -50.3851  -14.7199 C   0  0  0  0  0  0  0  0  0  0  0  0
    1.0656  -49.5748  -16.0027 C   0  0  0  0  0  0  0  0  0  0  0  0
    2.0807  -50.3228  -16.7400 C   0  0  0  0  0  0  0  0  0  0  0  0
    2.1221  -50.3641  -18.1278 C   0  0  0  0  0  0  0  0  0  0  0  0
    3.0016  -50.9602  -15.8226 C   0  0  0  0  0  0  0  0  0  0  0  0
    2.4712  -50.6622  -14.4365 C   0  0  0  0  0  0  0  0  0  0  0  0
    2.3952  -51.8915  -13.5576 C   0  0  0  0  0  0  0  0  0  0  0  0
 29 30  1  0  0  0
 30 31  1  0  0  0
 31 32  1  0  0  0
 32 33  1  0  0  0
 33 34  1  0  0  0
 34 35  2  0  0  0
 35 28  1  0  0  0
 28 27  1  0  0  0
 27  1  1  0  0  0
  1  2  2  0  0  0
  2  3  1  0  0  0
  3  4  2  0  0  0
  4  5  1  0  0  0
  5  6  2  0  0  0
  6  7  1  0  0  0
  7 17  1  0  0  0
 17 19  1  0  0  0
 19 20  2  0  0  0
 20 21  1  0  0  0
 21 22  2  0  0  0
 22 23  1  0  0  0
 22 24  1  0  0  0
 24 25  1  0  0  0
 24 26  2  0  0  0
  7  8  2  0  0  0
  8  9  1  0  0  0
  9 10  2  0  0  0
 10 11  1  0  0  0
 11 12  1  0  0  0
 12 13  2  0  0  0
 12 15  1  0  0  0
 15 16  2  0  0  0
 34 36  1  0  0  0
 36 37  1  0  0  0
 37 38  1  0  0  0
 38 30  1  0  0  0
 37 32  1  0  0  0
 10  1  1  0  0  0
  8  3  1  0  0  0
 26 19  1  0  0  0
 17 18  1  0  0  0
 11 14  1  0  0  0
M  END
> <minimizedAffinity>
-8.48866

> <CNNscore>
0.4787192941

> <CNNaffinity>
7.5130867958

> <CNN_VS>
3.5966596603

> <CNNaffinity_variance>
0.1047280878

$$$$
[H]C([H])=C([H])C(=O)N([H])c1c(OC([H])([H])/C([H])=C2\C([H])([H])C3([H])C([H])([H])N(C([H])([H])[H])C([H])([H])[C@@]3([H])C2([H])[H])c([H])c2nc([H])nc(N([H])c3c([H])c([H])c(F)c(Cl)c3[H])c2c1[H]


 38 42  0  0  0  0  0  0  0  0999 V2000
    1.1737  -49.7389  -21.2582 C   0  0  0  0  0  0  0  0  0  0  0  0
    0.3782  -50.8607  -21.0270 C   0  0  0  0  0  0  0  0  0  0  0  0
    0.2291  -51.8759  -21.8989 C   0  0  0  0  0  0  0  0  0  0  0  0
   -0.5594  -52.9220  -21.5781 N   0  0  0  0  0  0  0  0  0  0  0  0
   -0.6717  -53.9507  -22.4885 C   0  0  0  0  0  0  0  0  0  0  0  0
   -0.0210  -53.8897  -23.6279 N   0  0  0  0  0  0  0  0  0  0  0  0
    0.7862  -52.8941  -24.0425 C   0  0  0  0  0  0  0  0  0  0  0  0
    0.9128  -51.8527  -23.1374 C   0  0  0  0  0  0  0  0  0  0  0  0
    1.7165  -50.7480  -23.4061 C   0  0  0  0  0  0  0  0  0  0  0  0
    1.8364  -49.6990  -22.4648 C   0  0  0  0  0  0  0  0  0  0  0  0
    2.4540  -48.5326  -22.7546 N   0  0  0  0  0  0  0  0  0  0  0  0
    3.0654  -47.3377  -23.0226 C   0  0  0  0  0  0  0  0  0  0  0  0
    3.1034  -46.2297  -22.4957 O   0  0  0  0  0  0  0  0  0  0  0  0
    1.6589  -47.9140  -21.7889 H   0  0  0  0  0  0  0  0  0  0  0  0
    3.8606  -47.5004  -24.3009 C   0  0  0  0  0  0  0  0  0  0  0  0
    4.0301  -48.4193  -25.1099 C   0  0  0  0  0  0  0  0  0  0  0  0
    1.4034  -52.8264  -25.2932 N   0  0  0  0  0  0  0  0  0  0  0  0
    2.4530  -52.7237  -25.4147 H   0  0  0  0  0  0  0  0  0  0  0  0
    0.7103  -52.8600  -26.5361 C   0  0  0  0  0  0  0  0  0  0  0  0
    1.3364  -53.1960  -27.6868 C   0  0  0  0  0  0  0  0  0  0  0  0
    0.6434  -53.2938  -28.9034 C   0  0  0  0  0  0  0  0  0  0  0  0
   -0.6804  -53.0587  -29.0343 C   0  0  0  0  0  0  0  0  0  0  0  0
   -1.3957  -53.1253  -30.1610 F   0  0  0  0  0  0  0  0  0  0  0  0
   -1.3764  -52.6957  -27.8094 C   0  0  0  0  0  0  0  0  0  0  0  0
   -3.0802  -52.4089  -27.9345 Cl  0  0  0  0  0  0  0  0  0  0  0  0
   -0.6712  -52.6174  -26.6584 C   0  0  0  0  0  0  0  0  0  0  0  0
    1.2617  -48.7768  -20.3623 O   0  0  0  0  0  0  0  0  0  0  0  0
    1.7986  -48.3828  -19.2404 C   0  0  0  0  0  0  0  0  0  0  0  0
    7.6065  -50.1098  -22.3629 C   0  0  0  0  0  0  0  0  0  0  0  0
    6.9721  -48.9267  -21.8435 N   0  0  0  0  0  0  0  0  0  0  0  0
    5.5939  -49.2712  -21.5400 C   0  0  0  0  0  0  0  0  0  0  0  0
    5.6701  -49.7720  -20.1225 C   0  0  0  0  0  0  0  0  0  0  0  0
    4.3723  -49.5892  -19.3530 C   0  0  0  0  0  0  0  0  0  0  0  0
    4.2333  -48.1354  -19.3769 C   0  0  0  0  0  0  0  0  0  0  0  0
    2.9995  -47.4987  -19.3342 C   0  0  0  0  0  0  0  0  0  0  0  0
    5.5361  -47.5059  -19.4260 C   0  0  0  0  0  0  0  0  0  0  0  0
    6.5349  -48.6387  -19.5292 C   0  0  0  0  0  0  0  0  0  0  0  0
    7.5571  -48.4253  -20.6242 C   0  0  0  0  0  0  0  0  0  0  0  0
 29 30  1  0  0  0
 30 31  1  0  0  0
 31 32  1  0  0  0
 32 33  1  0  0  0
 33 34  1  0  0  0
 34 35  2  0  0  0
 35 28  1  0  0  0
 28 27  1  0  0  0
 27  1  1  0  0  0
  1  2  2  0  0  0
  2  3  1  0  0  0
  3  4  2  0  0  0
  4  5  1  0  0  0
  5  6  2  0  0  0
  6  7  1  0  0  0
  7 17  1  0  0  0
 17 19  1  0  0  0
 19 20  2  0  0  0
 20 21  1  0  0  0
 21 22  2  0  0  0
 22 23  1  0  0  0
 22 24  1  0  0  0
 24 25  1  0  0  0
 24 26  2  0  0  0
  7  8  2  0  0  0
  8  9  1  0  0  0
  9 10  2  0  0  0
 10 11  1  0  0  0
 11 12  1  0  0  0
 12 13  2  0  0  0
 12 15  1  0  0  0
 15 16  2  0  0  0
 34 36  1  0  0  0
 36 37  1  0  0  0
 37 38  1  0  0  0
 38 30  1  0  0  0
 37 32  1  0  0  0
 10  1  1  0  0  0
  8  3  1  0  0  0
 26 19  1  0  0  0
 17 18  1  0  0  0
 11 14  1  0  0  0
M  END
> <minimizedAffinity>
-7.95297

> <CNNscore>
0.4745711088

> <CNNaffinity>
7.5354127884

> <CNN_VS>
3.5760891438

> <CNNaffinity_variance>
0.1860141605

$$$$
[H]C([H])=C([H])C(=O)N([H])c1c(OC([H])([H])/C([H])=C2\C([H])([H])C3([H])C([H])([H])N(C([H])([H])[H])C([H])([H])[C@@]3([H])C2([H])[H])c([H])c2nc([H])nc(N([H])c3c([H])c([H])c(F)c(Cl)c3[H])c2c1[H]


 38 42  0  0  0  0  0  0  0  0999 V2000
    1.4948  -49.4990  -21.5008 C   0  0  0  0  0  0  0  0  0  0  0  0
    0.5371  -50.4153  -21.0675 C   0  0  0  0  0  0  0  0  0  0  0  0
    0.2325  -51.5557  -21.7154 C   0  0  0  0  0  0  0  0  0  0  0  0
   -0.7066  -52.3811  -21.2098 N   0  0  0  0  0  0  0  0  0  0  0  0
   -0.9769  -53.5482  -21.8915 C   0  0  0  0  0  0  0  0  0  0  0  0
   -0.3265  -53.8245  -22.9988 N   0  0  0  0  0  0  0  0  0  0  0  0
    0.6231  -53.0702  -23.5851 C   0  0  0  0  0  0  0  0  0  0  0  0
    0.9095  -51.8942  -22.9108 C   0  0  0  0  0  0  0  0  0  0  0  0
    1.8728  -51.0035  -23.3770 C   0  0  0  0  0  0  0  0  0  0  0  0
    2.1537  -49.8116  -22.6691 C   0  0  0  0  0  0  0  0  0  0  0  0
    2.9425  -48.8377  -23.1743 N   0  0  0  0  0  0  0  0  0  0  0  0
    3.7553  -47.8730  -23.7054 C   0  0  0  0  0  0  0  0  0  0  0  0
    4.6136  -47.8284  -24.5818 O   0  0  0  0  0  0  0  0  0  0  0  0
    3.6752  -49.8246  -23.8351 H   0  0  0  0  0  0  0  0  0  0  0  0
    3.4756  -46.5769  -22.9739 C   0  0  0  0  0  0  0  0  0  0  0  0
    3.2073  -45.4215  -23.3212 C   0  0  0  0  0  0  0  0  0  0  0  0
    1.2413  -53.3583  -24.8036 N   0  0  0  0  0  0  0  0  0  0  0  0
    2.2068  -53.7942  -24.8728 H   0  0  0  0  0  0  0  0  0  0  0  0
    0.6732  -53.0834  -26.0795 C   0  0  0  0  0  0  0  0  0  0  0  0
    1.4195  -53.1102  -27.2071 C   0  0  0  0  0  0  0  0  0  0  0  0
    0.8514  -52.9042  -28.4739 C   0  0  0  0  0  0  0  0  0  0  0  0
   -0.4613  -52.6579  -28.6769 C   0  0  0  0  0  0  0  0  0  0  0  0
   -1.0615  -52.4447  -29.8517 F   0  0  0  0  0  0  0  0  0  0  0  0
   -1.2852  -52.6248  -27.4783 C   0  0  0  0  0  0  0  0  0  0  0  0
   -2.9782  -52.3341  -27.7018 Cl  0  0  0  0  0  0  0  0  0  0  0  0
   -0.6979  -52.8329  -26.2783 C   0  0  0  0  0  0  0  0  0  0  0  0
    1.7310  -48.3957  -20.8203 O   0  0  0  0  0  0  0  0  0  0  0  0
    2.2478  -47.8740  -19.7420 C   0  0  0  0  0  0  0  0  0  0  0  0
    5.9810  -43.4892  -16.0950 C   0  0  0  0  0  0  0  0  0  0  0  0
    6.1330  -44.7797  -16.7142 N   0  0  0  0  0  0  0  0  0  0  0  0
    4.8098  -45.2289  -17.1111 C   0  0  0  0  0  0  0  0  0  0  0  0
    4.6547  -44.6571  -18.4950 C   0  0  0  0  0  0  0  0  0  0  0  0
    3.7107  -45.4624  -19.3725 C   0  0  0  0  0  0  0  0  0  0  0  0
    4.4016  -46.7483  -19.4231 C   0  0  0  0  0  0  0  0  0  0  0  0
    3.7323  -47.9537  -19.5916 C   0  0  0  0  0  0  0  0  0  0  0  0
    5.8312  -46.5569  -19.2979 C   0  0  0  0  0  0  0  0  0  0  0  0
    6.0273  -45.0739  -19.0663 C   0  0  0  0  0  0  0  0  0  0  0  0
    6.9487  -44.7756  -17.9037 C   0  0  0  0  0  0  0  0  0  0  0  0
 29 30  1  0  0  0
 30 31  1  0  0  0
 31 32  1  0  0  0
 32 33  1  0  0  0
 33 34  1  0  0  0
 34 35  2  0  0  0
 35 28  1  0  0  0
 28 27  1  0  0  0
 27  1  1  0  0  0
  1  2  2  0  0  0
  2  3  1  0  0  0
  3  4  2  0  0  0
  4  5  1  0  0  0
  5  6  2  0  0  0
  6  7  1  0  0  0
  7 17  1  0  0  0
 17 19  1  0  0  0
 19 20  2  0  0  0
 20 21  1  0  0  0
 21 22  2  0  0  0
 22 23  1  0  0  0
 22 24  1  0  0  0
 24 25  1  0  0  0
 24 26  2  0  0  0
  7  8  2  0  0  0
  8  9  1  0  0  0
  9 10  2  0  0  0
 10 11  1  0  0  0
 11 12  1  0  0  0
 12 13  2  0  0  0
 12 15  1  0  0  0
 15 16  2  0  0  0
 34 36  1  0  0  0
 36 37  1  0  0  0
 37 38  1  0  0  0
 38 30  1  0  0  0
 37 32  1  0  0  0
 10  1  1  0  0  0
  8  3  1  0  0  0
 26 19  1  0  0  0
 17 18  1  0  0  0
 11 14  1  0  0  0
M  END
> <minimizedAffinity>
-7.30742

> <CNNscore>
0.4614267349

> <CNNaffinity>
7.3139672279

> <CNN_VS>
3.3748600483

> <CNNaffinity_variance>
0.2222831249

$$$$
[H]/C(C(=O)N([H])c1c(OC([H])([H])[H])c([H])c2nc([H])nc(N([H])c3c([H])c([H])c(F)c(Cl)c3[H])c2c1[H])=C(/[H])C([H])([H])N1C([H])([H])C2([H])C([H])([H])C([H])([H])C1([H])C([H])([H])C2([H])[H]


 37 41  0  0  0  0  0  0  0  0999 V2000
   -0.2073  -52.5583  -19.5662 C   0  0  0  0  0  0  0  0  0  0  0  0
   -0.9082  -53.6058  -20.1024 C   0  0  0  0  0  0  0  0  0  0  0  0
   -0.8764  -53.8953  -21.4391 C   0  0  0  0  0  0  0  0  0  0  0  0
   -1.5708  -54.9337  -21.9602 N   0  0  0  0  0  0  0  0  0  0  0  0
   -1.5427  -55.2229  -23.2639 C   0  0  0  0  0  0  0  0  0  0  0  0
   -0.8117  -54.4703  -24.0758 N   0  0  0  0  0  0  0  0  0  0  0  0
   -0.0999  -53.4234  -23.6111 C   0  0  0  0  0  0  0  0  0  0  0  0
   -0.1209  -53.1100  -22.2487 C   0  0  0  0  0  0  0  0  0  0  0  0
    0.5914  -52.0469  -21.7076 C   0  0  0  0  0  0  0  0  0  0  0  0
    0.5846  -51.7230  -20.3646 C   0  0  0  0  0  0  0  0  0  0  0  0
    1.2854  -50.6646  -19.7712 N   0  0  0  0  0  0  0  0  0  0  0  0
    2.5535  -50.6874  -19.2119 C   0  0  0  0  0  0  0  0  0  0  0  0
    3.2855  -51.7120  -19.1582 O   0  0  0  0  0  0  0  0  0  0  0  0
    0.7563  -49.7289  -19.7588 H   0  0  0  0  0  0  0  0  0  0  0  0
    3.1838  -49.4934  -18.6125 C   0  0  0  0  0  0  0  0  0  0  0  0
    2.5426  -48.5245  -18.0057 C   0  0  0  0  0  0  0  0  0  0  0  0
    3.2276  -47.3422  -17.4188 C   0  0  0  0  0  0  0  0  0  0  0  0
    3.1945  -47.2347  -16.0211 N   0  0  0  0  0  0  0  0  0  0  0  0
    2.2746  -46.3437  -15.4192 C   0  0  0  0  0  0  0  0  0  0  0  0
    2.5504  -46.3830  -13.9142 C   0  0  0  0  0  0  0  0  0  0  0  0
    2.7283  -47.8320  -13.4551 C   0  0  0  0  0  0  0  0  0  0  0  0
    3.8606  -48.5268  -14.1611 C   0  0  0  0  0  0  0  0  0  0  0  0
    4.3478  -47.5859  -15.2751 C   0  0  0  0  0  0  0  0  0  0  0  0
    4.9360  -46.3768  -14.5368 C   0  0  0  0  0  0  0  0  0  0  0  0
    3.8982  -45.7051  -13.6804 C   0  0  0  0  0  0  0  0  0  0  0  0
   -1.4101  -52.8019  -17.4546 C   0  0  0  0  0  0  0  0  0  0  0  0
   -0.3025  -52.3450  -18.2036 O   0  0  0  0  0  0  0  0  0  0  0  0
    0.6258  -52.6285  -24.5138 N   0  0  0  0  0  0  0  0  0  0  0  0
    1.3979  -51.9677  -24.2267 H   0  0  0  0  0  0  0  0  0  0  0  0
    0.3477  -52.6692  -25.9109 C   0  0  0  0  0  0  0  0  0  0  0  0
    1.4211  -52.8679  -26.7962 C   0  0  0  0  0  0  0  0  0  0  0  0
    1.1810  -52.9507  -28.1399 C   0  0  0  0  0  0  0  0  0  0  0  0
   -0.1028  -52.8416  -28.6415 C   0  0  0  0  0  0  0  0  0  0  0  0
   -0.3348  -52.9239  -29.9722 F   0  0  0  0  0  0  0  0  0  0  0  0
   -1.1832  -52.6470  -27.8111 C   0  0  0  0  0  0  0  0  0  0  0  0
   -2.8231  -52.5035  -28.4045 Cl  0  0  0  0  0  0  0  0  0  0  0  0
   -0.9095  -52.5664  -26.4367 C   0  0  0  0  0  0  0  0  0  0  0  0
 26 27  1  0  0  0
 27  1  1  0  0  0
  1  2  2  0  0  0
  2  3  1  0  0  0
  3  4  2  0  0  0
  4  5  1  0  0  0
  5  6  2  0  0  0
  6  7  1  0  0  0
  7 28  1  0  0  0
 28 30  1  0  0  0
 30 31  2  0  0  0
 31 32  1  0  0  0
 32 33  2  0  0  0
 33 34  1  0  0  0
 33 35  1  0  0  0
 35 36  1  0  0  0
 35 37  2  0  0  0
  7  8  2  0  0  0
  8  9  1  0  0  0
  9 10  2  0  0  0
 10 11  1  0  0  0
 11 12  1  0  0  0
 12 13  2  0  0  0
 12 15  1  0  0  0
 15 16  2  0  0  0
 16 17  1  0  0  0
 17 18  1  0  0  0
 18 19  1  0  0  0
 19 20  1  0  0  0
 20 21  1  0  0  0
 21 22  1  0  0  0
 22 23  1  0  0  0
 23 24  1  0  0  0
 24 25  1  0  0  0
 10  1  1  0  0  0
 23 18  1  0  0  0
  8  3  1  0  0  0
 25 20  1  0  0  0
 37 30  1  0  0  0
 28 29  1  0  0  0
 11 14  1  0  0  0
M  END
> <minimizedAffinity>
-8.52733

> <CNNscore>
0.9638357759

> <CNNaffinity>
7.7297782898

> <CNN_VS>
7.4502367973

> <CNNaffinity_variance>
0.1169436425

$$$$
[H]/C(C(=O)N([H])c1c(OC([H])([H])[H])c([H])c2nc([H])nc(N([H])c3c([H])c([H])c(F)c(Cl)c3[H])c2c1[H])=C(/[H])C([H])([H])N1C([H])([H])C2([H])C([H])([H])C([H])([H])C1([H])C([H])([H])C2([H])[H]


 37 41  0  0  0  0  0  0  0  0999 V2000
   -0.0488  -52.3520  -19.6543 C   0  0  0  0  0  0  0  0  0  0  0  0
   -0.7597  -53.4244  -20.1239 C   0  0  0  0  0  0  0  0  0  0  0  0
   -0.7428  -53.7883  -21.4426 C   0  0  0  0  0  0  0  0  0  0  0  0
   -1.4470  -54.8508  -21.8979 N   0  0  0  0  0  0  0  0  0  0  0  0
   -1.4335  -55.2126  -23.1836 C   0  0  0  0  0  0  0  0  0  0  0  0
   -0.7077  -54.5100  -24.0435 N   0  0  0  0  0  0  0  0  0  0  0  0
    0.0133  -53.4422  -23.6453 C   0  0  0  0  0  0  0  0  0  0  0  0
    0.0077  -53.0532  -22.3024 C   0  0  0  0  0  0  0  0  0  0  0  0
    0.7301  -51.9650  -21.8288 C   0  0  0  0  0  0  0  0  0  0  0  0
    0.7385  -51.5664  -20.5060 C   0  0  0  0  0  0  0  0  0  0  0  0
    1.4499  -50.4800  -19.9798 N   0  0  0  0  0  0  0  0  0  0  0  0
    2.6829  -50.4928  -19.3466 C   0  0  0  0  0  0  0  0  0  0  0  0
    3.3664  -51.5329  -19.1484 O   0  0  0  0  0  0  0  0  0  0  0  0
    0.9613  -49.5289  -20.0916 H   0  0  0  0  0  0  0  0  0  0  0  0
    3.3294  -49.2683  -18.8321 C   0  0  0  0  0  0  0  0  0  0  0  0
    3.0069  -48.0438  -19.1709 C   0  0  0  0  0  0  0  0  0  0  0  0
    3.6920  -46.8437  -18.6217 C   0  0  0  0  0  0  0  0  0  0  0  0
    4.6419  -46.2346  -19.4541 N   0  0  0  0  0  0  0  0  0  0  0  0
    5.6735  -45.4600  -18.8724 C   0  0  0  0  0  0  0  0  0  0  0  0
    6.4742  -44.8599  -20.0305 C   0  0  0  0  0  0  0  0  0  0  0  0
    6.7347  -45.9299  -21.0931 C   0  0  0  0  0  0  0  0  0  0  0  0
    5.4642  -46.5129  -21.6493 C   0  0  0  0  0  0  0  0  0  0  0  0
    4.3034  -45.9640  -20.8039 C   0  0  0  0  0  0  0  0  0  0  0  0
    4.2864  -44.4577  -21.0937 C   0  0  0  0  0  0  0  0  0  0  0  0
    5.5883  -43.8142  -20.7030 C   0  0  0  0  0  0  0  0  0  0  0  0
   -1.0794  -52.6857  -17.4654 C   0  0  0  0  0  0  0  0  0  0  0  0
   -0.1290  -52.0624  -18.3048 O   0  0  0  0  0  0  0  0  0  0  0  0
    0.7331  -52.7026  -24.5982 N   0  0  0  0  0  0  0  0  0  0  0  0
    1.5579  -52.0861  -24.3640 H   0  0  0  0  0  0  0  0  0  0  0  0
    0.3751  -52.7423  -25.9771 C   0  0  0  0  0  0  0  0  0  0  0  0
    1.3891  -52.9850  -26.9198 C   0  0  0  0  0  0  0  0  0  0  0  0
    1.0706  -53.0676  -28.2471 C   0  0  0  0  0  0  0  0  0  0  0  0
   -0.2349  -52.9159  -28.6765 C   0  0  0  0  0  0  0  0  0  0  0  0
   -0.5446  -52.9985  -29.9913 F   0  0  0  0  0  0  0  0  0  0  0  0
   -1.2590  -52.6775  -27.7882 C   0  0  0  0  0  0  0  0  0  0  0  0
   -2.9238  -52.4792  -28.2895 Cl  0  0  0  0  0  0  0  0  0  0  0  0
   -0.9053  -52.5979  -26.4322 C   0  0  0  0  0  0  0  0  0  0  0  0
 26 27  1  0  0  0
 27  1  1  0  0  0
  1  2  2  0  0  0
  2  3  1  0  0  0
  3  4  2  0  0  0
  4  5  1  0  0  0
  5  6  2  0  0  0
  6  7  1  0  0  0
  7 28  1  0  0  0
 28 30  1  0  0  0
 30 31  2  0  0  0
 31 32  1  0  0  0
 32 33  2  0  0  0
 33 34  1  0  0  0
 33 35  1  0  0  0
 35 36  1  0  0  0
 35 37  2  0  0  0
  7  8  2  0  0  0
  8  9  1  0  0  0
  9 10  2  0  0  0
 10 11  1  0  0  0
 11 12  1  0  0  0
 12 13  2  0  0  0
 12 15  1  0  0  0
 15 16  2  0  0  0
 16 17  1  0  0  0
 17 18  1  0  0  0
 18 19  1  0  0  0
 19 20  1  0  0  0
 20 21  1  0  0  0
 21 22  1  0  0  0
 22 23  1  0  0  0
 23 24  1  0  0  0
 24 25  1  0  0  0
 10  1  1  0  0  0
 23 18  1  0  0  0
  8  3  1  0  0  0
 25 20  1  0  0  0
 37 30  1  0  0  0
 28 29  1  0  0  0
 11 14  1  0  0  0
M  END
> <minimizedAffinity>
-8.54874

> <CNNscore>
0.9584177732

> <CNNaffinity>
7.8372964859

> <CNN_VS>
7.5114040375

> <CNNaffinity_variance>
0.1320646703

$$$$
[H]/C(C(=O)N([H])c1c(OC([H])([H])[H])c([H])c2nc([H])nc(N([H])c3c([H])c([H])c(F)c(Cl)c3[H])c2c1[H])=C(/[H])C([H])([H])N1C([H])([H])C2([H])C([H])([H])C([H])([H])C1([H])C([H])([H])C2([H])[H]


 37 41  0  0  0  0  0  0  0  0999 V2000
    0.1464  -52.1144  -19.0888 C   0  0  0  0  0  0  0  0  0  0  0  0
   -0.5893  -53.1868  -19.5185 C   0  0  0  0  0  0  0  0  0  0  0  0
   -0.6618  -53.5383  -20.8386 C   0  0  0  0  0  0  0  0  0  0  0  0
   -1.3898  -54.6010  -21.2543 N   0  0  0  0  0  0  0  0  0  0  0  0
   -1.4634  -54.9507  -22.5413 C   0  0  0  0  0  0  0  0  0  0  0  0
   -0.8030  -54.2357  -23.4426 N   0  0  0  0  0  0  0  0  0  0  0  0
   -0.0622  -53.1671  -23.0849 C   0  0  0  0  0  0  0  0  0  0  0  0
    0.0231  -52.7905  -21.7412 C   0  0  0  0  0  0  0  0  0  0  0  0
    0.7704  -51.7022  -21.3082 C   0  0  0  0  0  0  0  0  0  0  0  0
    0.8683  -51.3159  -19.9854 C   0  0  0  0  0  0  0  0  0  0  0  0
    1.6082  -50.2300  -19.4992 N   0  0  0  0  0  0  0  0  0  0  0  0
    2.9146  -50.2259  -19.0355 C   0  0  0  0  0  0  0  0  0  0  0  0
    3.6514  -51.2472  -18.9857 O   0  0  0  0  0  0  0  0  0  0  0  0
    1.0788  -49.2943  -19.4939 H   0  0  0  0  0  0  0  0  0  0  0  0
    3.5843  -49.0041  -18.5448 C   0  0  0  0  0  0  0  0  0  0  0  0
    3.0732  -47.7975  -18.5764 C   0  0  0  0  0  0  0  0  0  0  0  0
    3.7922  -46.5991  -18.0682 C   0  0  0  0  0  0  0  0  0  0  0  0
    3.9511  -46.5126  -16.6777 N   0  0  0  0  0  0  0  0  0  0  0  0
    5.2357  -46.7056  -16.1166 C   0  0  0  0  0  0  0  0  0  0  0  0
    5.0613  -46.6471  -14.5972 C   0  0  0  0  0  0  0  0  0  0  0  0
    4.1570  -45.4710  -14.2217 C   0  0  0  0  0  0  0  0  0  0  0  0
    2.7935  -45.5672  -14.8503 C   0  0  0  0  0  0  0  0  0  0  0  0
    2.8307  -46.7431  -15.8400 C   0  0  0  0  0  0  0  0  0  0  0  0
    3.0242  -47.9867  -14.9631 C   0  0  0  0  0  0  0  0  0  0  0  0
    4.3036  -47.9040  -14.1770 C   0  0  0  0  0  0  0  0  0  0  0  0
   -1.0237  -51.8591  -16.9603 C   0  0  0  0  0  0  0  0  0  0  0  0
    0.1582  -51.8378  -17.7343 O   0  0  0  0  0  0  0  0  0  0  0  0
    0.5857  -52.4141  -24.0782 N   0  0  0  0  0  0  0  0  0  0  0  0
    1.3151  -51.6777  -23.8762 H   0  0  0  0  0  0  0  0  0  0  0  0
    0.2808  -52.6068  -25.4569 C   0  0  0  0  0  0  0  0  0  0  0  0
   -0.9521  -52.1323  -25.9370 C   0  0  0  0  0  0  0  0  0  0  0  0
   -1.2569  -52.2674  -27.2632 C   0  0  0  0  0  0  0  0  0  0  0  0
   -0.3700  -52.8642  -28.1401 C   0  0  0  0  0  0  0  0  0  0  0  0
   -0.6767  -52.9956  -29.4516 F   0  0  0  0  0  0  0  0  0  0  0  0
    0.8481  -53.3425  -27.7134 C   0  0  0  0  0  0  0  0  0  0  0  0
    1.9988  -54.1042  -28.7894 Cl  0  0  0  0  0  0  0  0  0  0  0  0
    1.1365  -53.1908  -26.3481 C   0  0  0  0  0  0  0  0  0  0  0  0
 26 27  1  0  0  0
 27  1  1  0  0  0
  1  2  2  0  0  0
  2  3  1  0  0  0
  3  4  2  0  0  0
  4  5  1  0  0  0
  5  6  2  0  0  0
  6  7  1  0  0  0
  7 28  1  0  0  0
 28 30  1  0  0  0
 30 31  2  0  0  0
 31 32  1  0  0  0
 32 33  2  0  0  0
 33 34  1  0  0  0
 33 35  1  0  0  0
 35 36  1  0  0  0
 35 37  2  0  0  0
  7  8  2  0  0  0
  8  9  1  0  0  0
  9 10  2  0  0  0
 10 11  1  0  0  0
 11 12  1  0  0  0
 12 13  2  0  0  0
 12 15  1  0  0  0
 15 16  2  0  0  0
 16 17  1  0  0  0
 17 18  1  0  0  0
 18 19  1  0  0  0
 19 20  1  0  0  0
 20 21  1  0  0  0
 21 22  1  0  0  0
 22 23  1  0  0  0
 23 24  1  0  0  0
 24 25  1  0  0  0
 10  1  1  0  0  0
 23 18  1  0  0  0
  8  3  1  0  0  0
 25 20  1  0  0  0
 37 30  1  0  0  0
 28 29  1  0  0  0
 11 14  1  0  0  0
M  END
> <minimizedAffinity>
-7.83080

> <CNNscore>
0.8061190844

> <CNNaffinity>
7.3840894699

> <CNN_VS>
5.9524555206

> <CNNaffinity_variance>
0.1905462891

$$$$
[H]/C(C(=O)N([H])c1c(OC([H])([H])[H])c([H])c2nc([H])nc(N([H])c3c([H])c([H])c(F)c(Cl)c3[H])c2c1[H])=C(/[H])C([H])([H])N1C([H])([H])C2([H])C([H])([H])C([H])([H])C1([H])C([H])([H])C2([H])[H]


 37 41  0  0  0  0  0  0  0  0999 V2000
   -0.7342  -52.8011  -19.0244 C   0  0  0  0  0  0  0  0  0  0  0  0
   -1.2599  -53.7936  -19.8083 C   0  0  0  0  0  0  0  0  0  0  0  0
   -1.0442  -53.8467  -21.1582 C   0  0  0  0  0  0  0  0  0  0  0  0
   -1.5662  -54.8324  -21.9251 N   0  0  0  0  0  0  0  0  0  0  0  0
   -1.3581  -54.8912  -23.2432 C   0  0  0  0  0  0  0  0  0  0  0  0
   -0.6166  -53.9553  -23.8213 N   0  0  0  0  0  0  0  0  0  0  0  0
   -0.0718  -52.9503  -23.1060 C   0  0  0  0  0  0  0  0  0  0  0  0
   -0.2821  -52.8772  -21.7257 C   0  0  0  0  0  0  0  0  0  0  0  0
    0.2527  -51.8694  -20.9330 C   0  0  0  0  0  0  0  0  0  0  0  0
    0.0577  -51.7814  -19.5681 C   0  0  0  0  0  0  0  0  0  0  0  0
    0.5755  -50.7881  -18.7265 N   0  0  0  0  0  0  0  0  0  0  0  0
    1.8712  -50.6629  -18.2498 C   0  0  0  0  0  0  0  0  0  0  0  0
    2.8060  -51.4633  -18.5215 O   0  0  0  0  0  0  0  0  0  0  0  0
   -0.1364  -50.0410  -18.4253 H   0  0  0  0  0  0  0  0  0  0  0  0
    2.2923  -49.5609  -17.3608 C   0  0  0  0  0  0  0  0  0  0  0  0
    2.7025  -48.3819  -17.7606 C   0  0  0  0  0  0  0  0  0  0  0  0
    3.1161  -47.3060  -16.8210 C   0  0  0  0  0  0  0  0  0  0  0  0
    2.9988  -47.5953  -15.4540 N   0  0  0  0  0  0  0  0  0  0  0  0
    1.8721  -47.1195  -14.7423 C   0  0  0  0  0  0  0  0  0  0  0  0
    2.0844  -47.5104  -13.2778 C   0  0  0  0  0  0  0  0  0  0  0  0
    2.5739  -48.9578  -13.1908 C   0  0  0  0  0  0  0  0  0  0  0  0
    3.8659  -49.1759  -13.9300 C   0  0  0  0  0  0  0  0  0  0  0  0
    4.1689  -47.8848  -14.7076 C   0  0  0  0  0  0  0  0  0  0  0  0
    4.4279  -46.8282  -13.6260 C   0  0  0  0  0  0  0  0  0  0  0  0
    3.2265  -46.6529  -12.7385 C   0  0  0  0  0  0  0  0  0  0  0  0
   -2.3292  -52.9353  -17.1797 C   0  0  0  0  0  0  0  0  0  0  0  0
   -1.0079  -52.8321  -17.6696 O   0  0  0  0  0  0  0  0  0  0  0  0
    0.6709  -51.9579  -23.7670 N   0  0  0  0  0  0  0  0  0  0  0  0
    0.2499  -51.0743  -24.1635 H   0  0  0  0  0  0  0  0  0  0  0  0
    2.0777  -52.0962  -23.9476 C   0  0  0  0  0  0  0  0  0  0  0  0
    2.5412  -52.6483  -25.1543 C   0  0  0  0  0  0  0  0  0  0  0  0
    3.8866  -52.7579  -25.3732 C   0  0  0  0  0  0  0  0  0  0  0  0
    4.7989  -52.3337  -24.4248 C   0  0  0  0  0  0  0  0  0  0  0  0
    6.1292  -52.4448  -24.6465 F   0  0  0  0  0  0  0  0  0  0  0  0
    4.3894  -51.7870  -23.2298 C   0  0  0  0  0  0  0  0  0  0  0  0
    5.5103  -51.2382  -22.0032 Cl  0  0  0  0  0  0  0  0  0  0  0  0
    3.0037  -51.6852  -23.0305 C   0  0  0  0  0  0  0  0  0  0  0  0
 26 27  1  0  0  0
 27  1  1  0  0  0
  1  2  2  0  0  0
  2  3  1  0  0  0
  3  4  2  0  0  0
  4  5  1  0  0  0
  5  6  2  0  0  0
  6  7  1  0  0  0
  7 28  1  0  0  0
 28 30  1  0  0  0
 30 31  2  0  0  0
 31 32  1  0  0  0
 32 33  2  0  0  0
 33 34  1  0  0  0
 33 35  1  0  0  0
 35 36  1  0  0  0
 35 37  2  0  0  0
  7  8  2  0  0  0
  8  9  1  0  0  0
  9 10  2  0  0  0
 10 11  1  0  0  0
 11 12  1  0  0  0
 12 13  2  0  0  0
 12 15  1  0  0  0
 15 16  2  0  0  0
 16 17  1  0  0  0
 17 18  1  0  0  0
 18 19  1  0  0  0
 19 20  1  0  0  0
 20 21  1  0  0  0
 21 22  1  0  0  0
 22 23  1  0  0  0
 23 24  1  0  0  0
 24 25  1  0  0  0
 10  1  1  0  0  0
 23 18  1  0  0  0
  8  3  1  0  0  0
 25 20  1  0  0  0
 37 30  1  0  0  0
 28 29  1  0  0  0
 11 14  1  0  0  0
M  END
> <minimizedAffinity>
-7.47294

> <CNNscore>
0.6192329526

> <CNNaffinity>
7.1303963661

> <CNN_VS>
4.4153761864

> <CNNaffinity_variance>
0.0205110796

$$$$
[H]/C(C(=O)N([H])c1c(OC([H])([H])[H])c([H])c2nc([H])nc(N([H])c3c([H])c([H])c(F)c(Cl)c3[H])c2c1[H])=C(/[H])C([H])([H])N1C([H])([H])C2([H])C([H])([H])C([H])([H])C1([H])C([H])([H])C2([H])[H]


 37 41  0  0  0  0  0  0  0  0999 V2000
   -0.5466  -52.3133  -18.1877 C   0  0  0  0  0  0  0  0  0  0  0  0
   -1.1240  -53.3189  -18.9167 C   0  0  0  0  0  0  0  0  0  0  0  0
   -0.9501  -53.4305  -20.2691 C   0  0  0  0  0  0  0  0  0  0  0  0
   -1.5231  -54.4286  -20.9814 N   0  0  0  0  0  0  0  0  0  0  0  0
   -1.3559  -54.5444  -22.3015 C   0  0  0  0  0  0  0  0  0  0  0  0
   -0.6050  -53.6544  -22.9369 N   0  0  0  0  0  0  0  0  0  0  0  0
   -0.0102  -52.6395  -22.2775 C   0  0  0  0  0  0  0  0  0  0  0  0
   -0.1772  -52.5070  -20.8958 C   0  0  0  0  0  0  0  0  0  0  0  0
    0.4100  -51.4860  -20.1589 C   0  0  0  0  0  0  0  0  0  0  0  0
    0.2582  -51.3398  -18.7935 C   0  0  0  0  0  0  0  0  0  0  0  0
    0.8294  -50.3309  -18.0067 N   0  0  0  0  0  0  0  0  0  0  0  0
    2.1037  -50.2909  -17.4625 C   0  0  0  0  0  0  0  0  0  0  0  0
    2.9647  -51.1997  -17.6081 O   0  0  0  0  0  0  0  0  0  0  0  0
    0.1828  -49.4941  -17.8135 H   0  0  0  0  0  0  0  0  0  0  0  0
    2.5875  -49.1607  -16.6436 C   0  0  0  0  0  0  0  0  0  0  0  0
    1.8262  -48.2510  -16.0859 C   0  0  0  0  0  0  0  0  0  0  0  0
    2.3662  -47.1314  -15.2697 C   0  0  0  0  0  0  0  0  0  0  0  0
    1.4210  -46.2908  -14.6646 N   0  0  0  0  0  0  0  0  0  0  0  0
    0.0657  -46.6951  -14.6211 C   0  0  0  0  0  0  0  0  0  0  0  0
   -0.7153  -45.5366  -13.9962 C   0  0  0  0  0  0  0  0  0  0  0  0
    0.0341  -45.0032  -12.7732 C   0  0  0  0  0  0  0  0  0  0  0  0
    1.4160  -44.5136  -13.1107 C   0  0  0  0  0  0  0  0  0  0  0  0
    1.6921  -44.9023  -14.5723 C   0  0  0  0  0  0  0  0  0  0  0  0
    0.6951  -44.0737  -15.3925 C   0  0  0  0  0  0  0  0  0  0  0  0
   -0.7233  -44.3942  -15.0089 C   0  0  0  0  0  0  0  0  0  0  0  0
   -2.0343  -51.9062  -16.2941 C   0  0  0  0  0  0  0  0  0  0  0  0
   -0.7808  -52.2839  -16.8255 O   0  0  0  0  0  0  0  0  0  0  0  0
    0.7411  -51.6961  -22.9979 N   0  0  0  0  0  0  0  0  0  0  0  0
    0.3513  -50.7815  -23.3539 H   0  0  0  0  0  0  0  0  0  0  0  0
    2.1136  -51.9318  -23.3007 C   0  0  0  0  0  0  0  0  0  0  0  0
    2.4230  -52.6260  -24.4831 C   0  0  0  0  0  0  0  0  0  0  0  0
    3.7318  -52.8335  -24.8208 C   0  0  0  0  0  0  0  0  0  0  0  0
    4.7564  -52.3706  -24.0161 C   0  0  0  0  0  0  0  0  0  0  0  0
    6.0500  -52.5789  -24.3549 F   0  0  0  0  0  0  0  0  0  0  0  0
    4.4992  -51.6859  -22.8500 C   0  0  0  0  0  0  0  0  0  0  0  0
    5.7657  -51.0837  -21.8035 Cl  0  0  0  0  0  0  0  0  0  0  0  0
    3.1479  -51.4859  -22.5270 C   0  0  0  0  0  0  0  0  0  0  0  0
 26 27  1  0  0  0
 27  1  1  0  0  0
  1  2  2  0  0  0
  2  3  1  0  0  0
  3  4  2  0  0  0
  4  5  1  0  0  0
  5  6  2  0  0  0
  6  7  1  0  0  0
  7 28  1  0  0  0
 28 30  1  0  0  0
 30 31  2  0  0  0
 31 32  1  0  0  0
 32 33  2  0  0  0
 33 34  1  0  0  0
 33 35  1  0  0  0
 35 36  1  0  0  0
 35 37  2  0  0  0
  7  8  2  0  0  0
  8  9  1  0  0  0
  9 10  2  0  0  0
 10 11  1  0  0  0
 11 12  1  0  0  0
 12 13  2  0  0  0
 12 15  1  0  0  0
 15 16  2  0  0  0
 16 17  1  0  0  0
 17 18  1  0  0  0
 18 19  1  0  0  0
 19 20  1  0  0  0
 20 21  1  0  0  0
 21 22  1  0  0  0
 22 23  1  0  0  0
 23 24  1  0  0  0
 24 25  1  0  0  0
 10  1  1  0  0  0
 23 18  1  0  0  0
  8  3  1  0  0  0
 25 20  1  0  0  0
 37 30  1  0  0  0
 28 29  1  0  0  0
 11 14  1  0  0  0
M  END
> <minimizedAffinity>
-7.21432

> <CNNscore>
0.5153552294

> <CNNaffinity>
6.8335990906

> <CNN_VS>
3.5217311382

> <CNNaffinity_variance>
0.0326567814

$$$$
[H]/C(C(=O)N([H])c1c(OC([H])([H])[H])c([H])c2nc([H])nc(N([H])c3c([H])c([H])c(F)c(Cl)c3[H])c2c1[H])=C(/[H])C([H])([H])N1C([H])([H])C2([H])C([H])([H])C([H])([H])C1([H])C([H])([H])C2([H])[H]


 37 41  0  0  0  0  0  0  0  0999 V2000
    0.2515  -52.3090  -26.0398 C   0  0  0  0  0  0  0  0  0  0  0  0
   -0.5256  -53.3334  -25.5680 C   0  0  0  0  0  0  0  0  0  0  0  0
   -0.5297  -53.6964  -24.2490 C   0  0  0  0  0  0  0  0  0  0  0  0
   -1.3023  -54.7090  -23.7909 N   0  0  0  0  0  0  0  0  0  0  0  0
   -1.3125  -55.0675  -22.5042 C   0  0  0  0  0  0  0  0  0  0  0  0
   -0.5421  -54.4118  -21.6461 N   0  0  0  0  0  0  0  0  0  0  0  0
    0.2476  -53.3949  -22.0472 C   0  0  0  0  0  0  0  0  0  0  0  0
    0.2675  -53.0099  -23.3911 C   0  0  0  0  0  0  0  0  0  0  0  0
    1.0567  -51.9701  -23.8669 C   0  0  0  0  0  0  0  0  0  0  0  0
    1.0884  -51.5742  -25.1901 C   0  0  0  0  0  0  0  0  0  0  0  0
    1.8640  -50.5334  -25.7179 N   0  0  0  0  0  0  0  0  0  0  0  0
    3.2461  -50.4373  -25.7643 C   0  0  0  0  0  0  0  0  0  0  0  0
    4.0323  -51.3150  -25.3174 O   0  0  0  0  0  0  0  0  0  0  0  0
    1.2975  -49.7194  -26.1329 H   0  0  0  0  0  0  0  0  0  0  0  0
    3.9468  -49.2771  -26.3516 C   0  0  0  0  0  0  0  0  0  0  0  0
    3.3641  -48.2578  -26.9344 C   0  0  0  0  0  0  0  0  0  0  0  0
    4.1188  -47.1133  -27.5105 C   0  0  0  0  0  0  0  0  0  0  0  0
    3.7519  -46.7144  -28.8038 N   0  0  0  0  0  0  0  0  0  0  0  0
    4.3642  -47.3366  -29.9175 C   0  0  0  0  0  0  0  0  0  0  0  0
    3.8318  -46.6234  -31.1627 C   0  0  0  0  0  0  0  0  0  0  0  0
    2.3183  -46.4301  -31.0449 C   0  0  0  0  0  0  0  0  0  0  0  0
    1.9316  -45.6221  -29.8363 C   0  0  0  0  0  0  0  0  0  0  0  0
    3.2040  -45.4213  -28.9970 C   0  0  0  0  0  0  0  0  0  0  0  0
    4.1127  -44.5443  -29.8678 C   0  0  0  0  0  0  0  0  0  0  0  0
    4.4300  -45.2189  -31.1739 C   0  0  0  0  0  0  0  0  0  0  0  0
   -0.7250  -52.6669  -28.2497 C   0  0  0  0  0  0  0  0  0  0  0  0
    0.1876  -52.0160  -27.3895 O   0  0  0  0  0  0  0  0  0  0  0  0
    1.0787  -52.7572  -21.1112 N   0  0  0  0  0  0  0  0  0  0  0  0
    2.1032  -52.5589  -21.2730 H   0  0  0  0  0  0  0  0  0  0  0  0
    0.5684  -52.3333  -19.8499 C   0  0  0  0  0  0  0  0  0  0  0  0
    1.1997  -51.2547  -19.2066 C   0  0  0  0  0  0  0  0  0  0  0  0
    0.7094  -50.7998  -18.0139 C   0  0  0  0  0  0  0  0  0  0  0  0
   -0.3990  -51.3851  -17.4304 C   0  0  0  0  0  0  0  0  0  0  0  0
   -0.8800  -50.9311  -16.2498 F   0  0  0  0  0  0  0  0  0  0  0  0
   -1.0483  -52.4430  -18.0253 C   0  0  0  0  0  0  0  0  0  0  0  0
   -2.4533  -53.2123  -17.3208 Cl  0  0  0  0  0  0  0  0  0  0  0  0
   -0.5253  -52.8900  -19.2488 C   0  0  0  0  0  0  0  0  0  0  0  0
 26 27  1  0  0  0
 27  1  1  0  0  0
  1  2  2  0  0  0
  2  3  1  0  0  0
  3  4  2  0  0  0
  4  5  1  0  0  0
  5  6  2  0  0  0
  6  7  1  0  0  0
  7 28  1  0  0  0
 28 30  1  0  0  0
 30 31  2  0  0  0
 31 32  1  0  0  0
 32 33  2  0  0  0
 33 34  1  0  0  0
 33 35  1  0  0  0
 35 36  1  0  0  0
 35 37  2  0  0  0
  7  8  2  0  0  0
  8  9  1  0  0  0
  9 10  2  0  0  0
 10 11  1  0  0  0
 11 12  1  0  0  0
 12 13  2  0  0  0
 12 15  1  0  0  0
 15 16  2  0  0  0
 16 17  1  0  0  0
 17 18  1  0  0  0
 18 19  1  0  0  0
 19 20  1  0  0  0
 20 21  1  0  0  0
 21 22  1  0  0  0
 22 23  1  0  0  0
 23 24  1  0  0  0
 24 25  1  0  0  0
 10  1  1  0  0  0
 23 18  1  0  0  0
  8  3  1  0  0  0
 25 20  1  0  0  0
 37 30  1  0  0  0
 28 29  1  0  0  0
 11 14  1  0  0  0
M  END
> <minimizedAffinity>
-8.42447

> <CNNscore>
0.4935086668

> <CNNaffinity>
7.1612319946

> <CNN_VS>
3.5341300964

> <CNNaffinity_variance>
0.1047366485

$$$$
[H]/C(C(=O)N([H])c1c(OC([H])([H])[H])c([H])c2nc([H])nc(N([H])c3c([H])c([H])c(F)c(Cl)c3[H])c2c1[H])=C(/[H])C([H])([H])N1C([H])([H])C2([H])C([H])([H])C([H])([H])C1([H])C([H])([H])C2([H])[H]


 37 41  0  0  0  0  0  0  0  0999 V2000
   -0.3759  -51.8914  -18.1402 C   0  0  0  0  0  0  0  0  0  0  0  0
   -0.9339  -52.9788  -18.7584 C   0  0  0  0  0  0  0  0  0  0  0  0
   -0.7978  -53.2025  -20.1012 C   0  0  0  0  0  0  0  0  0  0  0  0
   -1.3512  -54.2809  -20.7037 N   0  0  0  0  0  0  0  0  0  0  0  0
   -1.2206  -54.5063  -22.0138 C   0  0  0  0  0  0  0  0  0  0  0  0
   -0.5272  -53.6477  -22.7499 N   0  0  0  0  0  0  0  0  0  0  0  0
    0.0457  -52.5565  -22.2022 C   0  0  0  0  0  0  0  0  0  0  0  0
   -0.0835  -52.3091  -20.8323 C   0  0  0  0  0  0  0  0  0  0  0  0
    0.4839  -51.2054  -20.2077 C   0  0  0  0  0  0  0  0  0  0  0  0
    0.3689  -50.9451  -18.8558 C   0  0  0  0  0  0  0  0  0  0  0  0
    0.9224  -49.8495  -18.1800 N   0  0  0  0  0  0  0  0  0  0  0  0
    2.2158  -49.7055  -17.7026 C   0  0  0  0  0  0  0  0  0  0  0  0
    3.1144  -50.5816  -17.8168 O   0  0  0  0  0  0  0  0  0  0  0  0
    0.2433  -49.0310  -18.0231 H   0  0  0  0  0  0  0  0  0  0  0  0
    2.6773  -48.4906  -17.0002 C   0  0  0  0  0  0  0  0  0  0  0  0
    3.2054  -47.4387  -17.5770 C   0  0  0  0  0  0  0  0  0  0  0  0
    3.6546  -46.2395  -16.8210 C   0  0  0  0  0  0  0  0  0  0  0  0
    4.9054  -45.7139  -17.1748 N   0  0  0  0  0  0  0  0  0  0  0  0
    5.0827  -44.3101  -17.1969 C   0  0  0  0  0  0  0  0  0  0  0  0
    6.5028  -44.0579  -17.7090 C   0  0  0  0  0  0  0  0  0  0  0  0
    7.4821  -45.0101  -17.0188 C   0  0  0  0  0  0  0  0  0  0  0  0
    7.1447  -46.4569  -17.2554 C   0  0  0  0  0  0  0  0  0  0  0  0
    5.7827  -46.4960  -17.9677 C   0  0  0  0  0  0  0  0  0  0  0  0
    6.0381  -45.8511  -19.3359 C   0  0  0  0  0  0  0  0  0  0  0  0
    6.5278  -44.4370  -19.1876 C   0  0  0  0  0  0  0  0  0  0  0  0
   -1.8553  -51.8145  -16.1985 C   0  0  0  0  0  0  0  0  0  0  0  0
   -0.5684  -51.7509  -16.7783 O   0  0  0  0  0  0  0  0  0  0  0  0
    0.7347  -51.6524  -23.0276 N   0  0  0  0  0  0  0  0  0  0  0  0
    0.3056  -50.7722  -23.4228 H   0  0  0  0  0  0  0  0  0  0  0  0
    2.0930  -51.8838  -23.3913 C   0  0  0  0  0  0  0  0  0  0  0  0
    2.3522  -52.5493  -24.6019 C   0  0  0  0  0  0  0  0  0  0  0  0
    3.6457  -52.7515  -24.9971 C   0  0  0  0  0  0  0  0  0  0  0  0
    4.7034  -52.3109  -24.2234 C   0  0  0  0  0  0  0  0  0  0  0  0
    5.9815  -52.5138  -24.6192 F   0  0  0  0  0  0  0  0  0  0  0  0
    4.4957  -51.6545  -23.0314 C   0  0  0  0  0  0  0  0  0  0  0  0
    5.8054  -51.0812  -22.0225 Cl  0  0  0  0  0  0  0  0  0  0  0  0
    3.1592  -51.4594  -22.6492 C   0  0  0  0  0  0  0  0  0  0  0  0
 26 27  1  0  0  0
 27  1  1  0  0  0
  1  2  2  0  0  0
  2  3  1  0  0  0
  3  4  2  0  0  0
  4  5  1  0  0  0
  5  6  2  0  0  0
  6  7  1  0  0  0
  7 28  1  0  0  0
 28 30  1  0  0  0
 30 31  2  0  0  0
 31 32  1  0  0  0
 32 33  2  0  0  0
 33 34  1  0  0  0
 33 35  1  0  0  0
 35 36  1  0  0  0
 35 37  2  0  0  0
  7  8  2  0  0  0
  8  9  1  0  0  0
  9 10  2  0  0  0
 10 11  1  0  0  0
 11 12  1  0  0  0
 12 13  2  0  0  0
 12 15  1  0  0  0
 15 16  2  0  0  0
 16 17  1  0  0  0
 17 18  1  0  0  0
 18 19  1  0  0  0
 19 20  1  0  0  0
 20 21  1  0  0  0
 21 22  1  0  0  0
 22 23  1  0  0  0
 23 24  1  0  0  0
 24 25  1  0  0  0
 10  1  1  0  0  0
 23 18  1  0  0  0
  8  3  1  0  0  0
 25 20  1  0  0  0
 37 30  1  0  0  0
 28 29  1  0  0  0
 11 14  1  0  0  0
M  END
> <minimizedAffinity>
-6.86614

> <CNNscore>
0.4088575244

> <CNNaffinity>
6.8762197495

> <CNN_VS>
2.8113942146

> <CNNaffinity_variance>
0.0854633674

$$$$
[H]/C(C(=O)N([H])c1c(OC([H])([H])[H])c([H])c2nc([H])nc(N([H])c3c([H])c([H])c(F)c(Cl)c3[H])c2c1[H])=C(/[H])C([H])([H])N1C([H])([H])C2([H])C([H])([H])C([H])([H])C1([H])C([H])([H])C2([H])[H]


 37 41  0  0  0  0  0  0  0  0999 V2000
    0.0852  -51.5955  -18.3538 C   0  0  0  0  0  0  0  0  0  0  0  0
   -0.5118  -52.7563  -18.7685 C   0  0  0  0  0  0  0  0  0  0  0  0
   -0.6609  -53.0659  -20.0927 C   0  0  0  0  0  0  0  0  0  0  0  0
   -1.2507  -54.2163  -20.4937 N   0  0  0  0  0  0  0  0  0  0  0  0
   -1.3978  -54.5255  -21.7848 C   0  0  0  0  0  0  0  0  0  0  0  0
   -0.9526  -53.6801  -22.7051 N   0  0  0  0  0  0  0  0  0  0  0  0
   -0.3571  -52.5196  -22.3626 C   0  0  0  0  0  0  0  0  0  0  0  0
   -0.1970  -52.1842  -21.0148 C   0  0  0  0  0  0  0  0  0  0  0  0
    0.4093  -51.0060  -20.5970 C   0  0  0  0  0  0  0  0  0  0  0  0
    0.5781  -50.6581  -19.2707 C   0  0  0  0  0  0  0  0  0  0  0  0
    1.1830  -49.4854  -18.7995 N   0  0  0  0  0  0  0  0  0  0  0  0
    2.5351  -49.2296  -18.6328 C   0  0  0  0  0  0  0  0  0  0  0  0
    3.4497  -50.0560  -18.8952 O   0  0  0  0  0  0  0  0  0  0  0  0
    0.4957  -48.7001  -18.5413 H   0  0  0  0  0  0  0  0  0  0  0  0
    3.0474  -47.9417  -18.1219 C   0  0  0  0  0  0  0  0  0  0  0  0
    3.3047  -46.8862  -18.8552 C   0  0  0  0  0  0  0  0  0  0  0  0
    3.8206  -45.6117  -18.2887 C   0  0  0  0  0  0  0  0  0  0  0  0
    3.8398  -45.5157  -16.8899 N   0  0  0  0  0  0  0  0  0  0  0  0
    2.7809  -44.8487  -16.2295 C   0  0  0  0  0  0  0  0  0  0  0  0
    3.1389  -44.8284  -14.7415 C   0  0  0  0  0  0  0  0  0  0  0  0
    3.6538  -46.2037  -14.3110 C   0  0  0  0  0  0  0  0  0  0  0  0
    4.8711  -46.6327  -15.0839 C   0  0  0  0  0  0  0  0  0  0  0  0
    5.0803  -45.6066  -16.2096 C   0  0  0  0  0  0  0  0  0  0  0  0
    5.4285  -44.2989  -15.4873 C   0  0  0  0  0  0  0  0  0  0  0  0
    4.3163  -43.8720  -14.5694 C   0  0  0  0  0  0  0  0  0  0  0  0
   -0.9036  -51.5674  -16.1208 C   0  0  0  0  0  0  0  0  0  0  0  0
    0.1900  -51.3709  -16.9936 O   0  0  0  0  0  0  0  0  0  0  0  0
    0.0604  -51.6355  -23.3712 N   0  0  0  0  0  0  0  0  0  0  0  0
   -0.3077  -50.6518  -23.4806 H   0  0  0  0  0  0  0  0  0  0  0  0
    1.0319  -52.0326  -24.3353 C   0  0  0  0  0  0  0  0  0  0  0  0
    0.5942  -52.3204  -25.6396 C   0  0  0  0  0  0  0  0  0  0  0  0
    1.5074  -52.6662  -26.5969 C   0  0  0  0  0  0  0  0  0  0  0  0
    2.8562  -52.7374  -26.3011 C   0  0  0  0  0  0  0  0  0  0  0  0
    3.7557  -53.0804  -27.2522 F   0  0  0  0  0  0  0  0  0  0  0  0
    3.3288  -52.4635  -25.0377 C   0  0  0  0  0  0  0  0  0  0  0  0
    5.0267  -52.5420  -24.6214 Cl  0  0  0  0  0  0  0  0  0  0  0  0
    2.3711  -52.1104  -24.0742 C   0  0  0  0  0  0  0  0  0  0  0  0
 26 27  1  0  0  0
 27  1  1  0  0  0
  1  2  2  0  0  0
  2  3  1  0  0  0
  3  4  2  0  0  0
  4  5  1  0  0  0
  5  6  2  0  0  0
  6  7  1  0  0  0
  7 28  1  0  0  0
 28 30  1  0  0  0
 30 31  2  0  0  0
 31 32  1  0  0  0
 32 33  2  0  0  0
 33 34  1  0  0  0
 33 35  1  0  0  0
 35 36  1  0  0  0
 35 37  2  0  0  0
  7  8  2  0  0  0
  8  9  1  0  0  0
  9 10  2  0  0  0
 10 11  1  0  0  0
 11 12  1  0  0  0
 12 13  2  0  0  0
 12 15  1  0  0  0
 15 16  2  0  0  0
 16 17  1  0  0  0
 17 18  1  0  0  0
 18 19  1  0  0  0
 19 20  1  0  0  0
 20 21  1  0  0  0
 21 22  1  0  0  0
 22 23  1  0  0  0
 23 24  1  0  0  0
 24 25  1  0  0  0
 10  1  1  0  0  0
 23 18  1  0  0  0
  8  3  1  0  0  0
 25 20  1  0  0  0
 37 30  1  0  0  0
 28 29  1  0  0  0
 11 14  1  0  0  0
M  END
> <minimizedAffinity>
-6.74754

> <CNNscore>
0.3876084089

> <CNNaffinity>
6.7181625366

> <CNN_VS>
2.6040163040

> <CNNaffinity_variance>
0.1716630757

$$$$
[H]/C(C(=O)N([H])c1c(OC([H])([H])[H])c([H])c2nc([H])nc(N([H])c3c([H])c([H])c(F)c(Cl)c3[H])c2c1[H])=C(/[H])C([H])([H])N1C([H])([H])C2([H])C([H])([H])C([H])([H])C1([H])C([H])([H])C2([H])[H]


 37 41  0  0  0  0  0  0  0  0999 V2000
    1.0868  -52.0866  -25.0469 C   0  0  0  0  0  0  0  0  0  0  0  0
    0.0032  -52.9206  -24.9687 C   0  0  0  0  0  0  0  0  0  0  0  0
   -0.3642  -53.5297  -23.8000 C   0  0  0  0  0  0  0  0  0  0  0  0
   -1.4378  -54.3512  -23.7313 N   0  0  0  0  0  0  0  0  0  0  0  0
   -1.8030  -54.9476  -22.5933 C   0  0  0  0  0  0  0  0  0  0  0  0
   -1.0928  -54.7295  -21.4943 N   0  0  0  0  0  0  0  0  0  0  0  0
   -0.0138  -53.9206  -21.5049 C   0  0  0  0  0  0  0  0  0  0  0  0
    0.3790  -53.2904  -22.6895 C   0  0  0  0  0  0  0  0  0  0  0  0
    1.4786  -52.4446  -22.7659 C   0  0  0  0  0  0  0  0  0  0  0  0
    1.8810  -51.8117  -23.9261 C   0  0  0  0  0  0  0  0  0  0  0  0
    2.9788  -50.9505  -24.0539 N   0  0  0  0  0  0  0  0  0  0  0  0
    4.3169  -51.2869  -24.1883 C   0  0  0  0  0  0  0  0  0  0  0  0
    4.7503  -52.4699  -24.2158 O   0  0  0  0  0  0  0  0  0  0  0  0
    2.7305  -49.9046  -24.0443 H   0  0  0  0  0  0  0  0  0  0  0  0
    5.3860  -50.2753  -24.3141 C   0  0  0  0  0  0  0  0  0  0  0  0
    6.6682  -50.5094  -24.1749 C   0  0  0  0  0  0  0  0  0  0  0  0
    7.7048  -49.4521  -24.3119 C   0  0  0  0  0  0  0  0  0  0  0  0
    7.2982  -48.2585  -24.9253 N   0  0  0  0  0  0  0  0  0  0  0  0
    7.5488  -48.0718  -26.3054 C   0  0  0  0  0  0  0  0  0  0  0  0
    7.0827  -46.6542  -26.6455 C   0  0  0  0  0  0  0  0  0  0  0  0
    5.7199  -46.3859  -26.0029 C   0  0  0  0  0  0  0  0  0  0  0  0
    5.7497  -46.5268  -24.5053 C   0  0  0  0  0  0  0  0  0  0  0  0
    7.1267  -47.0979  -24.1294 C   0  0  0  0  0  0  0  0  0  0  0  0
    8.1243  -45.9964  -24.5098 C   0  0  0  0  0  0  0  0  0  0  0  0
    8.0542  -45.6833  -25.9791 C   0  0  0  0  0  0  0  0  0  0  0  0
    1.9287  -52.2738  -27.3319 C   0  0  0  0  0  0  0  0  0  0  0  0
    1.3791  -51.5175  -26.2725 O   0  0  0  0  0  0  0  0  0  0  0  0
    0.7331  -53.7527  -20.3271 N   0  0  0  0  0  0  0  0  0  0  0  0
    1.5773  -54.3360  -20.0777 H   0  0  0  0  0  0  0  0  0  0  0  0
    0.3781  -52.7562  -19.3722 C   0  0  0  0  0  0  0  0  0  0  0  0
   -0.6795  -53.0307  -18.4879 C   0  0  0  0  0  0  0  0  0  0  0  0
   -1.0182  -52.1104  -17.5348 C   0  0  0  0  0  0  0  0  0  0  0  0
   -0.3357  -50.9127  -17.4277 C   0  0  0  0  0  0  0  0  0  0  0  0
   -0.6751  -50.0053  -16.4828 F   0  0  0  0  0  0  0  0  0  0  0  0
    0.7063  -50.6029  -18.2720 C   0  0  0  0  0  0  0  0  0  0  0  0
    1.5956  -49.0993  -18.1706 Cl  0  0  0  0  0  0  0  0  0  0  0  0
    1.0340  -51.5646  -19.2405 C   0  0  0  0  0  0  0  0  0  0  0  0
 26 27  1  0  0  0
 27  1  1  0  0  0
  1  2  2  0  0  0
  2  3  1  0  0  0
  3  4  2  0  0  0
  4  5  1  0  0  0
  5  6  2  0  0  0
  6  7  1  0  0  0
  7 28  1  0  0  0
 28 30  1  0  0  0
 30 31  2  0  0  0
 31 32  1  0  0  0
 32 33  2  0  0  0
 33 34  1  0  0  0
 33 35  1  0  0  0
 35 36  1  0  0  0
 35 37  2  0  0  0
  7  8  2  0  0  0
  8  9  1  0  0  0
  9 10  2  0  0  0
 10 11  1  0  0  0
 11 12  1  0  0  0
 12 13  2  0  0  0
 12 15  1  0  0  0
 15 16  2  0  0  0
 16 17  1  0  0  0
 17 18  1  0  0  0
 18 19  1  0  0  0
 19 20  1  0  0  0
 20 21  1  0  0  0
 21 22  1  0  0  0
 22 23  1  0  0  0
 23 24  1  0  0  0
 24 25  1  0  0  0
 10  1  1  0  0  0
 23 18  1  0  0  0
  8  3  1  0  0  0
 25 20  1  0  0  0
 37 30  1  0  0  0
 28 29  1  0  0  0
 11 14  1  0  0  0
M  END
> <minimizedAffinity>
-6.68317

> <CNNscore>
0.3294689655

> <CNNaffinity>
7.0944471359

> <CNN_VS>
2.3374001980

> <CNNaffinity_variance>
0.2895700634

$$$$
[H]c1nc(N([H])[H])c(-c2nc3c([H])c([H])c([H])c([H])c3n2[H])c(N([H])c2c([H])c([H])c(OC([H])([H])c3c([H])c([H])c([H])c([H])c3[H])c(Cl)c2[H])n1


 36 40  0  0  0  0  0  0  0  0999 V2000
   -1.6085  -55.6560  -23.5260 N   0  0  0  0  0  0  0  0  0  0  0  0
   -1.3024  -54.5662  -22.6652 C   0  0  0  0  0  0  0  0  0  0  0  0
   -1.9015  -54.6436  -21.4365 N   0  0  0  0  0  0  0  0  0  0  0  0
   -1.6862  -53.6358  -20.5916 C   0  0  0  0  0  0  0  0  0  0  0  0
   -0.9205  -52.5997  -20.9298 N   0  0  0  0  0  0  0  0  0  0  0  0
   -0.2999  -52.4867  -22.1548 C   0  0  0  0  0  0  0  0  0  0  0  0
   -0.5008  -53.5047  -23.0488 C   0  0  0  0  0  0  0  0  0  0  0  0
   -1.2285  -56.6176  -23.3472 H   0  0  0  0  0  0  0  0  0  0  0  0
   -2.2129  -55.5347  -24.3521 H   0  0  0  0  0  0  0  0  0  0  0  0
    0.1422  -53.4792  -24.3547 C   0  0  0  0  0  0  0  0  0  0  0  0
    1.4319  -53.1497  -24.6284 N   0  0  0  0  0  0  0  0  0  0  0  0
    1.6037  -53.1679  -25.9476 C   0  0  0  0  0  0  0  0  0  0  0  0
    2.7157  -52.9090  -26.7176 C   0  0  0  0  0  0  0  0  0  0  0  0
    2.6243  -52.9993  -28.0839 C   0  0  0  0  0  0  0  0  0  0  0  0
    1.4206  -53.3499  -28.7103 C   0  0  0  0  0  0  0  0  0  0  0  0
    0.3090  -53.6077  -27.9209 C   0  0  0  0  0  0  0  0  0  0  0  0
    0.4165  -53.5133  -26.5558 C   0  0  0  0  0  0  0  0  0  0  0  0
   -0.4634  -53.6983  -25.5316 N   0  0  0  0  0  0  0  0  0  0  0  0
   -1.4386  -53.9898  -25.7542 H   0  0  0  0  0  0  0  0  0  0  0  0
    0.5647  -51.4087  -22.3932 N   0  0  0  0  0  0  0  0  0  0  0  0
    0.7396  -50.9070  -23.2779 H   0  0  0  0  0  0  0  0  0  0  0  0
    1.3706  -50.9004  -21.2945 C   0  0  0  0  0  0  0  0  0  0  0  0
    1.9807  -51.8252  -20.4392 C   0  0  0  0  0  0  0  0  0  0  0  0
    2.7880  -51.3976  -19.4000 C   0  0  0  0  0  0  0  0  0  0  0  0
    3.0263  -50.0637  -19.1612 C   0  0  0  0  0  0  0  0  0  0  0  0
    2.4232  -49.1621  -20.0066 C   0  0  0  0  0  0  0  0  0  0  0  0
    2.6576  -47.4425  -19.7941 Cl  0  0  0  0  0  0  0  0  0  0  0  0
    1.6005  -49.5756  -21.0675 C   0  0  0  0  0  0  0  0  0  0  0  0
    3.8231  -49.6828  -18.1307 O   0  0  0  0  0  0  0  0  0  0  0  0
    3.4931  -49.3117  -16.8427 C   0  0  0  0  0  0  0  0  0  0  0  0
    2.1321  -49.7017  -16.3953 C   0  0  0  0  0  0  0  0  0  0  0  0
    1.0224  -48.9105  -16.6003 C   0  0  0  0  0  0  0  0  0  0  0  0
   -0.2418  -49.3029  -16.1576 C   0  0  0  0  0  0  0  0  0  0  0  0
   -0.4172  -50.4994  -15.4992 C   0  0  0  0  0  0  0  0  0  0  0  0
    0.6841  -51.2936  -15.2910 C   0  0  0  0  0  0  0  0  0  0  0  0
    1.9324  -50.8953  -15.7338 C   0  0  0  0  0  0  0  0  0  0  0  0
  1  2  1  0  0  0
  2  3  2  0  0  0
  3  4  1  0  0  0
  4  5  2  0  0  0
  5  6  1  0  0  0
  6 20  1  0  0  0
 20 22  1  0  0  0
 22 23  2  0  0  0
 23 24  1  0  0  0
 24 25  2  0  0  0
 25 29  1  0  0  0
 29 30  1  0  0  0
 30 31  1  0  0  0
 31 32  2  0  0  0
 32 33  1  0  0  0
 33 34  2  0  0  0
 34 35  1  0  0  0
 35 36  2  0  0  0
 25 26  1  0  0  0
 26 27  1  0  0  0
 26 28  2  0  0  0
  6  7  2  0  0  0
  7 10  1  0  0  0
 10 11  2  0  0  0
 11 12  1  0  0  0
 12 13  2  0  0  0
 13 14  1  0  0  0
 14 15  2  0  0  0
 15 16  1  0  0  0
 16 17  2  0  0  0
 17 18  1  0  0  0
  7  2  1  0  0  0
 18 10  1  0  0  0
 28 22  1  0  0  0
 17 12  1  0  0  0
 36 31  1  0  0  0
  1  8  1  0  0  0
  1  9  1  0  0  0
 20 21  1  0  0  0
 18 19  1  0  0  0
M  END
> <minimizedAffinity>
-8.34103

> <CNNscore>
0.8006974459

> <CNNaffinity>
7.5340561867

> <CNN_VS>
6.0324993134

> <CNNaffinity_variance>
0.1794169843

$$$$
[H]c1nc(N([H])[H])c(-c2nc3c([H])c([H])c([H])c([H])c3n2[H])c(N([H])c2c([H])c([H])c(OC([H])([H])c3c([H])c([H])c([H])c([H])c3[H])c(Cl)c2[H])n1


 36 40  0  0  0  0  0  0  0  0999 V2000
   -1.6805  -55.5240  -23.5658 N   0  0  0  0  0  0  0  0  0  0  0  0
   -1.0216  -54.5233  -22.7998 C   0  0  0  0  0  0  0  0  0  0  0  0
   -1.0597  -54.7431  -21.4489 N   0  0  0  0  0  0  0  0  0  0  0  0
   -0.4919  -53.8244  -20.6682 C   0  0  0  0  0  0  0  0  0  0  0  0
    0.0875  -52.7408  -21.1822 N   0  0  0  0  0  0  0  0  0  0  0  0
    0.1475  -52.4855  -22.5349 C   0  0  0  0  0  0  0  0  0  0  0  0
   -0.4279  -53.4088  -23.3670 C   0  0  0  0  0  0  0  0  0  0  0  0
   -1.2817  -56.4898  -23.6625 H   0  0  0  0  0  0  0  0  0  0  0  0
   -2.5700  -55.3314  -24.0498 H   0  0  0  0  0  0  0  0  0  0  0  0
   -0.3830  -53.2317  -24.8113 C   0  0  0  0  0  0  0  0  0  0  0  0
   -1.3966  -52.8256  -25.6205 N   0  0  0  0  0  0  0  0  0  0  0  0
   -0.9774  -52.8738  -26.8823 C   0  0  0  0  0  0  0  0  0  0  0  0
   -1.6209  -52.5667  -28.0605 C   0  0  0  0  0  0  0  0  0  0  0  0
   -0.9506  -52.7061  -29.2497 C   0  0  0  0  0  0  0  0  0  0  0  0
    0.3765  -53.1552  -29.2879 C   0  0  0  0  0  0  0  0  0  0  0  0
    1.0113  -53.4605  -28.0925 C   0  0  0  0  0  0  0  0  0  0  0  0
    0.3274  -53.3158  -26.9113 C   0  0  0  0  0  0  0  0  0  0  0  0
    0.6575  -53.5255  -25.6057 N   0  0  0  0  0  0  0  0  0  0  0  0
    1.6211  -53.8490  -25.3774 H   0  0  0  0  0  0  0  0  0  0  0  0
    0.8592  -51.3683  -22.9952 N   0  0  0  0  0  0  0  0  0  0  0  0
    0.9816  -51.0377  -23.9651 H   0  0  0  0  0  0  0  0  0  0  0  0
    1.5630  -50.5393  -22.0298 C   0  0  0  0  0  0  0  0  0  0  0  0
    0.8451  -49.5308  -21.3766 C   0  0  0  0  0  0  0  0  0  0  0  0
    1.4556  -48.7367  -20.4220 C   0  0  0  0  0  0  0  0  0  0  0  0
    2.7770  -48.8977  -20.0742 C   0  0  0  0  0  0  0  0  0  0  0  0
    3.4747  -49.8911  -20.7206 C   0  0  0  0  0  0  0  0  0  0  0  0
    5.1597  -50.1825  -20.3561 Cl  0  0  0  0  0  0  0  0  0  0  0  0
    2.8734  -50.7083  -21.6922 C   0  0  0  0  0  0  0  0  0  0  0  0
    3.3415  -48.0982  -19.1340 O   0  0  0  0  0  0  0  0  0  0  0  0
    2.9014  -47.7684  -17.8678 C   0  0  0  0  0  0  0  0  0  0  0  0
    2.4919  -48.9139  -17.0163 C   0  0  0  0  0  0  0  0  0  0  0  0
    3.3846  -49.8528  -16.5465 C   0  0  0  0  0  0  0  0  0  0  0  0
    2.9643  -50.9236  -15.7560 C   0  0  0  0  0  0  0  0  0  0  0  0
    1.6372  -51.0731  -15.4210 C   0  0  0  0  0  0  0  0  0  0  0  0
    0.7411  -50.1412  -15.8855 C   0  0  0  0  0  0  0  0  0  0  0  0
    1.1682  -49.0839  -16.6683 C   0  0  0  0  0  0  0  0  0  0  0  0
  1  2  1  0  0  0
  2  3  2  0  0  0
  3  4  1  0  0  0
  4  5  2  0  0  0
  5  6  1  0  0  0
  6 20  1  0  0  0
 20 22  1  0  0  0
 22 23  2  0  0  0
 23 24  1  0  0  0
 24 25  2  0  0  0
 25 29  1  0  0  0
 29 30  1  0  0  0
 30 31  1  0  0  0
 31 32  2  0  0  0
 32 33  1  0  0  0
 33 34  2  0  0  0
 34 35  1  0  0  0
 35 36  2  0  0  0
 25 26  1  0  0  0
 26 27  1  0  0  0
 26 28  2  0  0  0
  6  7  2  0  0  0
  7 10  1  0  0  0
 10 11  2  0  0  0
 11 12  1  0  0  0
 12 13  2  0  0  0
 13 14  1  0  0  0
 14 15  2  0  0  0
 15 16  1  0  0  0
 16 17  2  0  0  0
 17 18  1  0  0  0
  7  2  1  0  0  0
 18 10  1  0  0  0
 28 22  1  0  0  0
 17 12  1  0  0  0
 36 31  1  0  0  0
  1  8  1  0  0  0
  1  9  1  0  0  0
 20 21  1  0  0  0
 18 19  1  0  0  0
M  END
> <minimizedAffinity>
-8.84693

> <CNNscore>
0.7478384972

> <CNNaffinity>
7.5387382507

> <CNN_VS>
5.6377587318

> <CNNaffinity_variance>
0.1548362076

$$$$
[H]c1nc(N([H])[H])c(-c2nc3c([H])c([H])c([H])c([H])c3n2[H])c(N([H])c2c([H])c([H])c(OC([H])([H])c3c([H])c([H])c([H])c([H])c3[H])c(Cl)c2[H])n1


 36 40  0  0  0  0  0  0  0  0999 V2000
   -1.7004  -55.5967  -23.5640 N   0  0  0  0  0  0  0  0  0  0  0  0
   -1.0260  -54.5479  -22.8801 C   0  0  0  0  0  0  0  0  0  0  0  0
   -1.0470  -54.6705  -21.5165 N   0  0  0  0  0  0  0  0  0  0  0  0
   -0.4640  -53.7018  -20.8111 C   0  0  0  0  0  0  0  0  0  0  0  0
    0.1140  -52.6613  -21.4087 N   0  0  0  0  0  0  0  0  0  0  0  0
    0.1571  -52.5036  -22.7768 C   0  0  0  0  0  0  0  0  0  0  0  0
   -0.4342  -53.4804  -23.5332 C   0  0  0  0  0  0  0  0  0  0  0  0
   -1.3079  -56.5694  -23.5966 H   0  0  0  0  0  0  0  0  0  0  0  0
   -2.5953  -55.4337  -24.0488 H   0  0  0  0  0  0  0  0  0  0  0  0
   -0.4079  -53.4071  -24.9870 C   0  0  0  0  0  0  0  0  0  0  0  0
    0.6390  -53.6945  -25.8046 N   0  0  0  0  0  0  0  0  0  0  0  0
    0.2860  -53.4209  -27.0579 C   0  0  0  0  0  0  0  0  0  0  0  0
    0.9839  -53.5384  -28.2393 C   0  0  0  0  0  0  0  0  0  0  0  0
    0.3779  -53.1811  -29.4175 C   0  0  0  0  0  0  0  0  0  0  0  0
   -0.9378  -52.6988  -29.4412 C   0  0  0  0  0  0  0  0  0  0  0  0
   -1.6279  -52.5861  -28.2427 C   0  0  0  0  0  0  0  0  0  0  0  0
   -1.0080  -52.9477  -27.0727 C   0  0  0  0  0  0  0  0  0  0  0  0
   -1.4011  -52.9558  -25.7677 N   0  0  0  0  0  0  0  0  0  0  0  0
   -2.3697  -52.6518  -25.5335 H   0  0  0  0  0  0  0  0  0  0  0  0
    0.8682  -51.4265  -23.3251 N   0  0  0  0  0  0  0  0  0  0  0  0
    0.8006  -51.0266  -24.2740 H   0  0  0  0  0  0  0  0  0  0  0  0
    1.8681  -50.7582  -22.5075 C   0  0  0  0  0  0  0  0  0  0  0  0
    3.0248  -51.4683  -22.1658 C   0  0  0  0  0  0  0  0  0  0  0  0
    4.0251  -50.8691  -21.4209 C   0  0  0  0  0  0  0  0  0  0  0  0
    3.9325  -49.5666  -20.9873 C   0  0  0  0  0  0  0  0  0  0  0  0
    2.7929  -48.8762  -21.3279 C   0  0  0  0  0  0  0  0  0  0  0  0
    2.5712  -47.2153  -20.8287 Cl  0  0  0  0  0  0  0  0  0  0  0  0
    1.7661  -49.4661  -22.0836 C   0  0  0  0  0  0  0  0  0  0  0  0
    4.9340  -49.0136  -20.2572 O   0  0  0  0  0  0  0  0  0  0  0  0
    5.2464  -49.1634  -18.9209 C   0  0  0  0  0  0  0  0  0  0  0  0
    4.0853  -49.3023  -18.0059 C   0  0  0  0  0  0  0  0  0  0  0  0
    3.3916  -48.2202  -17.5088 C   0  0  0  0  0  0  0  0  0  0  0  0
    2.3102  -48.3859  -16.6421 C   0  0  0  0  0  0  0  0  0  0  0  0
    1.9031  -49.6436  -16.2567 C   0  0  0  0  0  0  0  0  0  0  0  0
    2.5895  -50.7273  -16.7481 C   0  0  0  0  0  0  0  0  0  0  0  0
    3.6598  -50.5519  -17.6064 C   0  0  0  0  0  0  0  0  0  0  0  0
  1  2  1  0  0  0
  2  3  2  0  0  0
  3  4  1  0  0  0
  4  5  2  0  0  0
  5  6  1  0  0  0
  6 20  1  0  0  0
 20 22  1  0  0  0
 22 23  2  0  0  0
 23 24  1  0  0  0
 24 25  2  0  0  0
 25 29  1  0  0  0
 29 30  1  0  0  0
 30 31  1  0  0  0
 31 32  2  0  0  0
 32 33  1  0  0  0
 33 34  2  0  0  0
 34 35  1  0  0  0
 35 36  2  0  0  0
 25 26  1  0  0  0
 26 27  1  0  0  0
 26 28  2  0  0  0
  6  7  2  0  0  0
  7 10  1  0  0  0
 10 11  2  0  0  0
 11 12  1  0  0  0
 12 13  2  0  0  0
 13 14  1  0  0  0
 14 15  2  0  0  0
 15 16  1  0  0  0
 16 17  2  0  0  0
 17 18  1  0  0  0
  7  2  1  0  0  0
 18 10  1  0  0  0
 28 22  1  0  0  0
 17 12  1  0  0  0
 36 31  1  0  0  0
  1  8  1  0  0  0
  1  9  1  0  0  0
 20 21  1  0  0  0
 18 19  1  0  0  0
M  END
> <minimizedAffinity>
-8.54348

> <CNNscore>
0.6861298084

> <CNNaffinity>
7.5436315536

> <CNN_VS>
5.1759104729

> <CNNaffinity_variance>
0.1813769788

$$$$
[H]c1nc(N([H])[H])c(-c2nc3c([H])c([H])c([H])c([H])c3n2[H])c(N([H])c2c([H])c([H])c(OC([H])([H])c3c([H])c([H])c([H])c([H])c3[H])c(Cl)c2[H])n1


 36 40  0  0  0  0  0  0  0  0999 V2000
   -1.7723  -55.5452  -23.5233 N   0  0  0  0  0  0  0  0  0  0  0  0
   -1.3288  -54.5368  -22.6240 C   0  0  0  0  0  0  0  0  0  0  0  0
   -1.8906  -54.6177  -21.3780 N   0  0  0  0  0  0  0  0  0  0  0  0
   -1.5463  -53.6808  -20.4950 C   0  0  0  0  0  0  0  0  0  0  0  0
   -0.6920  -52.7096  -20.8129 N   0  0  0  0  0  0  0  0  0  0  0  0
   -0.1052  -52.5957  -22.0542 C   0  0  0  0  0  0  0  0  0  0  0  0
   -0.4379  -53.5415  -22.9874 C   0  0  0  0  0  0  0  0  0  0  0  0
   -1.4853  -56.5477  -23.4055 H   0  0  0  0  0  0  0  0  0  0  0  0
   -2.3892  -55.3225  -24.3185 H   0  0  0  0  0  0  0  0  0  0  0  0
    0.1596  -53.5127  -24.3147 C   0  0  0  0  0  0  0  0  0  0  0  0
    1.4407  -53.1879  -24.6313 N   0  0  0  0  0  0  0  0  0  0  0  0
    1.5666  -53.2004  -25.9557 C   0  0  0  0  0  0  0  0  0  0  0  0
    2.6526  -52.9430  -26.7626 C   0  0  0  0  0  0  0  0  0  0  0  0
    2.5135  -53.0262  -28.1252 C   0  0  0  0  0  0  0  0  0  0  0  0
    1.2871  -53.3680  -28.7113 C   0  0  0  0  0  0  0  0  0  0  0  0
    0.2023  -53.6245  -27.8851 C   0  0  0  0  0  0  0  0  0  0  0  0
    0.3574  -53.5373  -26.5241 C   0  0  0  0  0  0  0  0  0  0  0  0
   -0.4874  -53.7231  -25.4709 N   0  0  0  0  0  0  0  0  0  0  0  0
   -1.4711  -54.0089  -25.6609 H   0  0  0  0  0  0  0  0  0  0  0  0
    0.8551  -51.5977  -22.2744 N   0  0  0  0  0  0  0  0  0  0  0  0
    1.3166  -51.3321  -23.1584 H   0  0  0  0  0  0  0  0  0  0  0  0
    1.3248  -50.8152  -21.1422 C   0  0  0  0  0  0  0  0  0  0  0  0
    0.7823  -49.5394  -20.9498 C   0  0  0  0  0  0  0  0  0  0  0  0
    1.1659  -48.7665  -19.8682 C   0  0  0  0  0  0  0  0  0  0  0  0
    2.0846  -49.2080  -18.9440 C   0  0  0  0  0  0  0  0  0  0  0  0
    2.6122  -50.4628  -19.1405 C   0  0  0  0  0  0  0  0  0  0  0  0
    3.7879  -51.1226  -18.0272 Cl  0  0  0  0  0  0  0  0  0  0  0  0
    2.2358  -51.2633  -20.2317 C   0  0  0  0  0  0  0  0  0  0  0  0
    2.4371  -48.4204  -17.8965 O   0  0  0  0  0  0  0  0  0  0  0  0
    1.9166  -48.3548  -16.6196 C   0  0  0  0  0  0  0  0  0  0  0  0
    2.9017  -48.5150  -15.5202 C   0  0  0  0  0  0  0  0  0  0  0  0
    3.1112  -49.7136  -14.8730 C   0  0  0  0  0  0  0  0  0  0  0  0
    4.0384  -49.8272  -13.8359 C   0  0  0  0  0  0  0  0  0  0  0  0
    4.7749  -48.7379  -13.4275 C   0  0  0  0  0  0  0  0  0  0  0  0
    4.5718  -47.5396  -14.0678 C   0  0  0  0  0  0  0  0  0  0  0  0
    3.6504  -47.4379  -15.0943 C   0  0  0  0  0  0  0  0  0  0  0  0
  1  2  1  0  0  0
  2  3  2  0  0  0
  3  4  1  0  0  0
  4  5  2  0  0  0
  5  6  1  0  0  0
  6 20  1  0  0  0
 20 22  1  0  0  0
 22 23  2  0  0  0
 23 24  1  0  0  0
 24 25  2  0  0  0
 25 29  1  0  0  0
 29 30  1  0  0  0
 30 31  1  0  0  0
 31 32  2  0  0  0
 32 33  1  0  0  0
 33 34  2  0  0  0
 34 35  1  0  0  0
 35 36  2  0  0  0
 25 26  1  0  0  0
 26 27  1  0  0  0
 26 28  2  0  0  0
  6  7  2  0  0  0
  7 10  1  0  0  0
 10 11  2  0  0  0
 11 12  1  0  0  0
 12 13  2  0  0  0
 13 14  1  0  0  0
 14 15  2  0  0  0
 15 16  1  0  0  0
 16 17  2  0  0  0
 17 18  1  0  0  0
  7  2  1  0  0  0
 18 10  1  0  0  0
 28 22  1  0  0  0
 17 12  1  0  0  0
 36 31  1  0  0  0
  1  8  1  0  0  0
  1  9  1  0  0  0
 20 21  1  0  0  0
 18 19  1  0  0  0
M  END
> <minimizedAffinity>
-8.02075

> <CNNscore>
0.6501941681

> <CNNaffinity>
7.1668052673

> <CNN_VS>
4.6598148346

> <CNNaffinity_variance>
0.1714945138

$$$$
[H]c1nc(N([H])[H])c(-c2nc3c([H])c([H])c([H])c([H])c3n2[H])c(N([H])c2c([H])c([H])c(OC([H])([H])c3c([H])c([H])c([H])c([H])c3[H])c(Cl)c2[H])n1


 36 40  0  0  0  0  0  0  0  0999 V2000
   -1.5098  -55.3856  -23.3578 N   0  0  0  0  0  0  0  0  0  0  0  0
   -1.0889  -54.4213  -22.4010 C   0  0  0  0  0  0  0  0  0  0  0  0
   -1.6305  -54.6008  -21.1563 N   0  0  0  0  0  0  0  0  0  0  0  0
   -1.3065  -53.7104  -20.2193 C   0  0  0  0  0  0  0  0  0  0  0  0
   -0.4904  -52.6917  -20.4842 N   0  0  0  0  0  0  0  0  0  0  0  0
    0.0753  -52.4787  -21.7224 C   0  0  0  0  0  0  0  0  0  0  0  0
   -0.2376  -53.3744  -22.7102 C   0  0  0  0  0  0  0  0  0  0  0  0
   -1.1870  -56.3828  -23.3076 H   0  0  0  0  0  0  0  0  0  0  0  0
   -2.1447  -55.1345  -24.1300 H   0  0  0  0  0  0  0  0  0  0  0  0
    0.3404  -53.2405  -24.0396 C   0  0  0  0  0  0  0  0  0  0  0  0
   -0.2897  -53.4185  -25.2305 N   0  0  0  0  0  0  0  0  0  0  0  0
    0.6042  -53.2875  -26.2072 C   0  0  0  0  0  0  0  0  0  0  0  0
    0.4680  -53.3772  -27.5747 C   0  0  0  0  0  0  0  0  0  0  0  0
    1.5689  -53.1977  -28.3740 C   0  0  0  0  0  0  0  0  0  0  0  0
    2.8292  -52.9249  -27.8250 C   0  0  0  0  0  0  0  0  0  0  0  0
    2.9504  -52.8377  -26.4455 C   0  0  0  0  0  0  0  0  0  0  0  0
    1.8399  -53.0196  -25.6596 C   0  0  0  0  0  0  0  0  0  0  0  0
    1.6314  -52.9984  -24.3129 N   0  0  0  0  0  0  0  0  0  0  0  0
    2.4354  -52.7908  -23.6837 H   0  0  0  0  0  0  0  0  0  0  0  0
    0.9977  -51.4357  -21.8892 N   0  0  0  0  0  0  0  0  0  0  0  0
    1.4540  -51.1124  -22.7565 H   0  0  0  0  0  0  0  0  0  0  0  0
    1.4301  -50.6887  -20.7189 C   0  0  0  0  0  0  0  0  0  0  0  0
    0.9302  -49.3937  -20.5394 C   0  0  0  0  0  0  0  0  0  0  0  0
    1.2794  -48.6520  -19.4247 C   0  0  0  0  0  0  0  0  0  0  0  0
    2.1215  -49.1440  -18.4542 C   0  0  0  0  0  0  0  0  0  0  0  0
    2.6076  -50.4172  -18.6384 C   0  0  0  0  0  0  0  0  0  0  0  0
    3.6855  -51.1407  -17.4672 Cl  0  0  0  0  0  0  0  0  0  0  0  0
    2.2651  -51.1867  -19.7626 C   0  0  0  0  0  0  0  0  0  0  0  0
    2.4423  -48.3858  -17.3754 O   0  0  0  0  0  0  0  0  0  0  0  0
    2.1219  -48.5553  -16.0434 C   0  0  0  0  0  0  0  0  0  0  0  0
    0.6924  -48.8427  -15.7627 C   0  0  0  0  0  0  0  0  0  0  0  0
    0.1275  -50.0847  -15.9565 C   0  0  0  0  0  0  0  0  0  0  0  0
   -1.2229  -50.3183  -15.6920 C   0  0  0  0  0  0  0  0  0  0  0  0
   -2.0343  -49.3078  -15.2269 C   0  0  0  0  0  0  0  0  0  0  0  0
   -1.4786  -48.0669  -15.0311 C   0  0  0  0  0  0  0  0  0  0  0  0
   -0.1392  -47.8461  -15.2964 C   0  0  0  0  0  0  0  0  0  0  0  0
  1  2  1  0  0  0
  2  3  2  0  0  0
  3  4  1  0  0  0
  4  5  2  0  0  0
  5  6  1  0  0  0
  6 20  1  0  0  0
 20 22  1  0  0  0
 22 23  2  0  0  0
 23 24  1  0  0  0
 24 25  2  0  0  0
 25 29  1  0  0  0
 29 30  1  0  0  0
 30 31  1  0  0  0
 31 32  2  0  0  0
 32 33  1  0  0  0
 33 34  2  0  0  0
 34 35  1  0  0  0
 35 36  2  0  0  0
 25 26  1  0  0  0
 26 27  1  0  0  0
 26 28  2  0  0  0
  6  7  2  0  0  0
  7 10  1  0  0  0
 10 11  2  0  0  0
 11 12  1  0  0  0
 12 13  2  0  0  0
 13 14  1  0  0  0
 14 15  2  0  0  0
 15 16  1  0  0  0
 16 17  2  0  0  0
 17 18  1  0  0  0
  7  2  1  0  0  0
 18 10  1  0  0  0
 28 22  1  0  0  0
 17 12  1  0  0  0
 36 31  1  0  0  0
  1  8  1  0  0  0
  1  9  1  0  0  0
 20 21  1  0  0  0
 18 19  1  0  0  0
M  END
> <minimizedAffinity>
-8.15410

> <CNNscore>
0.6203372478

> <CNNaffinity>
7.2942628860

> <CNN_VS>
4.5249028206

> <CNNaffinity_variance>
0.2586676776

$$$$
[H]c1nc(N([H])[H])c(-c2nc3c([H])c([H])c([H])c([H])c3n2[H])c(N([H])c2c([H])c([H])c(OC([H])([H])c3c([H])c([H])c([H])c([H])c3[H])c(Cl)c2[H])n1


 36 40  0  0  0  0  0  0  0  0999 V2000
   -1.2859  -55.8515  -23.4046 N   0  0  0  0  0  0  0  0  0  0  0  0
   -0.9215  -54.6673  -22.7066 C   0  0  0  0  0  0  0  0  0  0  0  0
   -0.9356  -54.7992  -21.3439 N   0  0  0  0  0  0  0  0  0  0  0  0
   -0.6389  -53.7163  -20.6262 C   0  0  0  0  0  0  0  0  0  0  0  0
   -0.3409  -52.5575  -21.2114 N   0  0  0  0  0  0  0  0  0  0  0  0
   -0.3146  -52.3859  -22.5782 C   0  0  0  0  0  0  0  0  0  0  0  0
   -0.6163  -53.4786  -23.3470 C   0  0  0  0  0  0  0  0  0  0  0  0
   -0.6529  -56.6880  -23.4302 H   0  0  0  0  0  0  0  0  0  0  0  0
   -2.1830  -55.9245  -23.9070 H   0  0  0  0  0  0  0  0  0  0  0  0
   -0.5824  -53.3923  -24.7999 C   0  0  0  0  0  0  0  0  0  0  0  0
    0.3889  -53.8595  -25.6276 N   0  0  0  0  0  0  0  0  0  0  0  0
    0.0884  -53.5082  -26.8752 C   0  0  0  0  0  0  0  0  0  0  0  0
    0.7473  -53.7386  -28.0623 C   0  0  0  0  0  0  0  0  0  0  0  0
    0.2143  -53.2586  -29.2322 C   0  0  0  0  0  0  0  0  0  0  0  0
   -0.9880  -52.5384  -29.2416 C   0  0  0  0  0  0  0  0  0  0  0  0
   -1.6401  -52.3145  -28.0375 C   0  0  0  0  0  0  0  0  0  0  0  0
   -1.0942  -52.8011  -26.8759 C   0  0  0  0  0  0  0  0  0  0  0  0
   -1.4768  -52.7528  -25.5687 N   0  0  0  0  0  0  0  0  0  0  0  0
   -2.3704  -52.2761  -25.3246 H   0  0  0  0  0  0  0  0  0  0  0  0
    0.1013  -51.1574  -23.1114 N   0  0  0  0  0  0  0  0  0  0  0  0
   -0.4693  -50.3285  -23.3403 H   0  0  0  0  0  0  0  0  0  0  0  0
    1.5078  -50.9726  -23.4315 C   0  0  0  0  0  0  0  0  0  0  0  0
    1.8890  -51.0039  -24.7779 C   0  0  0  0  0  0  0  0  0  0  0  0
    3.2079  -50.7973  -25.1417 C   0  0  0  0  0  0  0  0  0  0  0  0
    4.1927  -50.5547  -24.2121 C   0  0  0  0  0  0  0  0  0  0  0  0
    3.8093  -50.5252  -22.8917 C   0  0  0  0  0  0  0  0  0  0  0  0
    4.9794  -50.2255  -21.6275 Cl  0  0  0  0  0  0  0  0  0  0  0  0
    2.4758  -50.7321  -22.5016 C   0  0  0  0  0  0  0  0  0  0  0  0
    5.4761  -50.3581  -24.6073 O   0  0  0  0  0  0  0  0  0  0  0  0
    6.1238  -49.1965  -24.9769 C   0  0  0  0  0  0  0  0  0  0  0  0
    5.2617  -48.1503  -25.5827 C   0  0  0  0  0  0  0  0  0  0  0  0
    4.8932  -48.1620  -26.9106 C   0  0  0  0  0  0  0  0  0  0  0  0
    4.0893  -47.1568  -27.4507 C   0  0  0  0  0  0  0  0  0  0  0  0
    3.6387  -46.1184  -26.6668 C   0  0  0  0  0  0  0  0  0  0  0  0
    4.0018  -46.0997  -25.3421 C   0  0  0  0  0  0  0  0  0  0  0  0
    4.7988  -47.1008  -24.8170 C   0  0  0  0  0  0  0  0  0  0  0  0
  1  2  1  0  0  0
  2  3  2  0  0  0
  3  4  1  0  0  0
  4  5  2  0  0  0
  5  6  1  0  0  0
  6 20  1  0  0  0
 20 22  1  0  0  0
 22 23  2  0  0  0
 23 24  1  0  0  0
 24 25  2  0  0  0
 25 29  1  0  0  0
 29 30  1  0  0  0
 30 31  1  0  0  0
 31 32  2  0  0  0
 32 33  1  0  0  0
 33 34  2  0  0  0
 34 35  1  0  0  0
 35 36  2  0  0  0
 25 26  1  0  0  0
 26 27  1  0  0  0
 26 28  2  0  0  0
  6  7  2  0  0  0
  7 10  1  0  0  0
 10 11  2  0  0  0
 11 12  1  0  0  0
 12 13  2  0  0  0
 13 14  1  0  0  0
 14 15  2  0  0  0
 15 16  1  0  0  0
 16 17  2  0  0  0
 17 18  1  0  0  0
  7  2  1  0  0  0
 18 10  1  0  0  0
 28 22  1  0  0  0
 17 12  1  0  0  0
 36 31  1  0  0  0
  1  8  1  0  0  0
  1  9  1  0  0  0
 20 21  1  0  0  0
 18 19  1  0  0  0
M  END
> <minimizedAffinity>
-8.06821

> <CNNscore>
0.5392793417

> <CNNaffinity>
7.3559379578

> <CNN_VS>
3.9669053555

> <CNNaffinity_variance>
0.3255620301

$$$$
[H]c1nc(N([H])[H])c(-c2nc3c([H])c([H])c([H])c([H])c3n2[H])c(N([H])c2c([H])c([H])c(OC([H])([H])c3c([H])c([H])c([H])c([H])c3[H])c(Cl)c2[H])n1


 36 40  0  0  0  0  0  0  0  0999 V2000
   -1.1373  -55.6605  -23.0383 N   0  0  0  0  0  0  0  0  0  0  0  0
   -0.7167  -54.5542  -23.8267 C   0  0  0  0  0  0  0  0  0  0  0  0
   -0.6977  -54.8063  -25.1723 N   0  0  0  0  0  0  0  0  0  0  0  0
   -0.2784  -53.8232  -25.9682 C   0  0  0  0  0  0  0  0  0  0  0  0
    0.1041  -52.6470  -25.4739 N   0  0  0  0  0  0  0  0  0  0  0  0
    0.0976  -52.3550  -24.1274 C   0  0  0  0  0  0  0  0  0  0  0  0
   -0.3264  -53.3439  -23.2797 C   0  0  0  0  0  0  0  0  0  0  0  0
   -2.1349  -55.9860  -23.0408 H   0  0  0  0  0  0  0  0  0  0  0  0
   -0.4752  -56.1765  -22.4401 H   0  0  0  0  0  0  0  0  0  0  0  0
   -0.3930  -53.1089  -21.8445 C   0  0  0  0  0  0  0  0  0  0  0  0
   -1.2951  -53.6255  -20.9691 N   0  0  0  0  0  0  0  0  0  0  0  0
   -1.0679  -53.1018  -19.7673 C   0  0  0  0  0  0  0  0  0  0  0  0
   -1.7016  -53.3003  -18.5608 C   0  0  0  0  0  0  0  0  0  0  0  0
   -1.2626  -52.6236  -17.4506 C   0  0  0  0  0  0  0  0  0  0  0  0
   -0.1816  -51.7343  -17.5215 C   0  0  0  0  0  0  0  0  0  0  0  0
    0.4464  -51.5450  -18.7442 C   0  0  0  0  0  0  0  0  0  0  0  0
   -0.0044  -52.2293  -19.8454 C   0  0  0  0  0  0  0  0  0  0  0  0
    0.3849  -52.2640  -21.1511 N   0  0  0  0  0  0  0  0  0  0  0  0
    1.2006  -51.6875  -21.4471 H   0  0  0  0  0  0  0  0  0  0  0  0
    0.4265  -51.0603  -23.7006 N   0  0  0  0  0  0  0  0  0  0  0  0
   -0.1905  -50.2392  -23.6005 H   0  0  0  0  0  0  0  0  0  0  0  0
    1.8100  -50.7634  -23.3653 C   0  0  0  0  0  0  0  0  0  0  0  0
    2.0899  -49.5487  -22.7287 C   0  0  0  0  0  0  0  0  0  0  0  0
    3.3834  -49.2313  -22.3540 C   0  0  0  0  0  0  0  0  0  0  0  0
    4.4404  -50.0812  -22.5853 C   0  0  0  0  0  0  0  0  0  0  0  0
    4.1564  -51.2726  -23.2108 C   0  0  0  0  0  0  0  0  0  0  0  0
    5.4242  -52.4267  -23.5538 Cl  0  0  0  0  0  0  0  0  0  0  0  0
    2.8501  -51.6138  -23.5988 C   0  0  0  0  0  0  0  0  0  0  0  0
    5.6959  -49.7343  -22.2044 O   0  0  0  0  0  0  0  0  0  0  0  0
    6.1267  -49.0378  -21.0931 C   0  0  0  0  0  0  0  0  0  0  0  0
    5.1322  -48.9048  -19.9985 C   0  0  0  0  0  0  0  0  0  0  0  0
    4.6838  -49.9793  -19.2612 C   0  0  0  0  0  0  0  0  0  0  0  0
    3.7401  -49.8204  -18.2451 C   0  0  0  0  0  0  0  0  0  0  0  0
    3.2271  -48.5776  -17.9488 C   0  0  0  0  0  0  0  0  0  0  0  0
    3.6691  -47.5015  -18.6793 C   0  0  0  0  0  0  0  0  0  0  0  0
    4.6046  -47.6699  -19.6841 C   0  0  0  0  0  0  0  0  0  0  0  0
  1  2  1  0  0  0
  2  3  2  0  0  0
  3  4  1  0  0  0
  4  5  2  0  0  0
  5  6  1  0  0  0
  6 20  1  0  0  0
 20 22  1  0  0  0
 22 23  2  0  0  0
 23 24  1  0  0  0
 24 25  2  0  0  0
 25 29  1  0  0  0
 29 30  1  0  0  0
 30 31  1  0  0  0
 31 32  2  0  0  0
 32 33  1  0  0  0
 33 34  2  0  0  0
 34 35  1  0  0  0
 35 36  2  0  0  0
 25 26  1  0  0  0
 26 27  1  0  0  0
 26 28  2  0  0  0
  6  7  2  0  0  0
  7 10  1  0  0  0
 10 11  2  0  0  0
 11 12  1  0  0  0
 12 13  2  0  0  0
 13 14  1  0  0  0
 14 15  2  0  0  0
 15 16  1  0  0  0
 16 17  2  0  0  0
 17 18  1  0  0  0
  7  2  1  0  0  0
 18 10  1  0  0  0
 28 22  1  0  0  0
 17 12  1  0  0  0
 36 31  1  0  0  0
  1  8  1  0  0  0
  1  9  1  0  0  0
 20 21  1  0  0  0
 18 19  1  0  0  0
M  END
> <minimizedAffinity>
-6.92722

> <CNNscore>
0.4921883047

> <CNNaffinity>
7.1649336815

> <CNN_VS>
3.5264966488

> <CNNaffinity_variance>
0.2092368901

$$$$
[H]c1nc(N([H])[H])c(-c2nc3c([H])c([H])c([H])c([H])c3n2[H])c(N([H])c2c([H])c([H])c(OC([H])([H])c3c([H])c([H])c([H])c([H])c3[H])c(Cl)c2[H])n1


 36 40  0  0  0  0  0  0  0  0999 V2000
   -0.3248  -52.2597  -24.8033 N   0  0  0  0  0  0  0  0  0  0  0  0
   -0.3957  -53.0974  -23.6563 C   0  0  0  0  0  0  0  0  0  0  0  0
   -1.2396  -54.1660  -23.8003 N   0  0  0  0  0  0  0  0  0  0  0  0
   -1.3816  -54.9732  -22.7495 C   0  0  0  0  0  0  0  0  0  0  0  0
   -0.7292  -54.7486  -21.6102 N   0  0  0  0  0  0  0  0  0  0  0  0
    0.1290  -53.6862  -21.4275 C   0  0  0  0  0  0  0  0  0  0  0  0
    0.2975  -52.8349  -22.4871 C   0  0  0  0  0  0  0  0  0  0  0  0
    0.1490  -52.5774  -25.6841 H   0  0  0  0  0  0  0  0  0  0  0  0
   -0.7364  -51.3146  -24.8046 H   0  0  0  0  0  0  0  0  0  0  0  0
    1.2092  -51.7041  -22.3891 C   0  0  0  0  0  0  0  0  0  0  0  0
    2.5650  -51.7325  -22.4792 N   0  0  0  0  0  0  0  0  0  0  0  0
    3.0310  -50.5071  -22.2525 C   0  0  0  0  0  0  0  0  0  0  0  0
    4.3189  -50.0201  -22.2303 C   0  0  0  0  0  0  0  0  0  0  0  0
    4.5312  -48.6903  -21.9660 C   0  0  0  0  0  0  0  0  0  0  0  0
    3.4621  -47.8187  -21.7181 C   0  0  0  0  0  0  0  0  0  0  0  0
    2.1702  -48.3244  -21.7440 C   0  0  0  0  0  0  0  0  0  0  0  0
    1.9743  -49.6567  -22.0100 C   0  0  0  0  0  0  0  0  0  0  0  0
    0.8628  -50.4396  -22.1050 N   0  0  0  0  0  0  0  0  0  0  0  0
   -0.0731  -50.0002  -21.9765 H   0  0  0  0  0  0  0  0  0  0  0  0
    0.8472  -53.5780  -20.2279 N   0  0  0  0  0  0  0  0  0  0  0  0
    1.7615  -53.9906  -19.9854 H   0  0  0  0  0  0  0  0  0  0  0  0
    0.2686  -52.8188  -19.1308 C   0  0  0  0  0  0  0  0  0  0  0  0
    0.9194  -51.6496  -18.7204 C   0  0  0  0  0  0  0  0  0  0  0  0
    0.3930  -50.8693  -17.7062 C   0  0  0  0  0  0  0  0  0  0  0  0
   -0.7771  -51.1998  -17.0625 C   0  0  0  0  0  0  0  0  0  0  0  0
   -1.4101  -52.3499  -17.4723 C   0  0  0  0  0  0  0  0  0  0  0  0
   -2.9035  -52.8642  -16.7224 Cl  0  0  0  0  0  0  0  0  0  0  0  0
   -0.8926  -53.1557  -18.5000 C   0  0  0  0  0  0  0  0  0  0  0  0
   -1.2616  -50.4100  -16.0709 O   0  0  0  0  0  0  0  0  0  0  0  0
   -1.0222  -49.0778  -15.7991 C   0  0  0  0  0  0  0  0  0  0  0  0
    0.1385  -48.8059  -14.9140 C   0  0  0  0  0  0  0  0  0  0  0  0
    1.2649  -48.1372  -15.3426 C   0  0  0  0  0  0  0  0  0  0  0  0
    2.3431  -47.9069  -14.4867 C   0  0  0  0  0  0  0  0  0  0  0  0
    2.3118  -48.3442  -13.1815 C   0  0  0  0  0  0  0  0  0  0  0  0
    1.1925  -49.0114  -12.7468 C   0  0  0  0  0  0  0  0  0  0  0  0
    0.1295  -49.2344  -13.6032 C   0  0  0  0  0  0  0  0  0  0  0  0
  1  2  1  0  0  0
  2  3  2  0  0  0
  3  4  1  0  0  0
  4  5  2  0  0  0
  5  6  1  0  0  0
  6 20  1  0  0  0
 20 22  1  0  0  0
 22 23  2  0  0  0
 23 24  1  0  0  0
 24 25  2  0  0  0
 25 29  1  0  0  0
 29 30  1  0  0  0
 30 31  1  0  0  0
 31 32  2  0  0  0
 32 33  1  0  0  0
 33 34  2  0  0  0
 34 35  1  0  0  0
 35 36  2  0  0  0
 25 26  1  0  0  0
 26 27  1  0  0  0
 26 28  2  0  0  0
  6  7  2  0  0  0
  7 10  1  0  0  0
 10 11  2  0  0  0
 11 12  1  0  0  0
 12 13  2  0  0  0
 13 14  1  0  0  0
 14 15  2  0  0  0
 15 16  1  0  0  0
 16 17  2  0  0  0
 17 18  1  0  0  0
  7  2  1  0  0  0
 18 10  1  0  0  0
 28 22  1  0  0  0
 17 12  1  0  0  0
 36 31  1  0  0  0
  1  8  1  0  0  0
  1  9  1  0  0  0
 20 21  1  0  0  0
 18 19  1  0  0  0
M  END
> <minimizedAffinity>
-6.48620

> <CNNscore>
0.4516499639

> <CNNaffinity>
6.9836030006

> <CNN_VS>
3.1541440487

> <CNNaffinity_variance>
0.0832260549

$$$$
[H]c1nc(N([H])[H])c(-c2nc3c([H])c([H])c([H])c([H])c3n2[H])c(N([H])c2c([H])c([H])c(OC([H])([H])c3c([H])c([H])c([H])c([H])c3[H])c(Cl)c2[H])n1


 36 40  0  0  0  0  0  0  0  0999 V2000
   -0.4440  -52.7033  -25.2587 N   0  0  0  0  0  0  0  0  0  0  0  0
   -0.4904  -53.3905  -24.0146 C   0  0  0  0  0  0  0  0  0  0  0  0
   -1.4497  -54.3656  -23.9540 N   0  0  0  0  0  0  0  0  0  0  0  0
   -1.5724  -55.0257  -22.8029 C   0  0  0  0  0  0  0  0  0  0  0  0
   -0.7940  -54.7478  -21.7585 N   0  0  0  0  0  0  0  0  0  0  0  0
    0.1826  -53.7761  -21.7811 C   0  0  0  0  0  0  0  0  0  0  0  0
    0.3353  -53.0764  -22.9487 C   0  0  0  0  0  0  0  0  0  0  0  0
   -0.0924  -53.1716  -26.1294 H   0  0  0  0  0  0  0  0  0  0  0  0
   -0.7543  -51.7240  -25.3434 H   0  0  0  0  0  0  0  0  0  0  0  0
    1.3638  -52.0530  -23.0681 C   0  0  0  0  0  0  0  0  0  0  0  0
    2.6968  -52.2460  -23.2489 N   0  0  0  0  0  0  0  0  0  0  0  0
    3.3043  -51.0626  -23.2224 C   0  0  0  0  0  0  0  0  0  0  0  0
    4.6328  -50.7258  -23.3567 C   0  0  0  0  0  0  0  0  0  0  0  0
    5.0028  -49.4060  -23.2891 C   0  0  0  0  0  0  0  0  0  0  0  0
    4.0541  -48.3946  -23.0859 C   0  0  0  0  0  0  0  0  0  0  0  0
    2.7195  -48.7499  -22.9524 C   0  0  0  0  0  0  0  0  0  0  0  0
    2.3654  -50.0741  -23.0224 C   0  0  0  0  0  0  0  0  0  0  0  0
    1.1750  -50.7317  -22.9328 N   0  0  0  0  0  0  0  0  0  0  0  0
    0.3037  -50.1764  -22.7988 H   0  0  0  0  0  0  0  0  0  0  0  0
    1.0200  -53.6135  -20.6681 N   0  0  0  0  0  0  0  0  0  0  0  0
    1.8898  -54.1188  -20.4376 H   0  0  0  0  0  0  0  0  0  0  0  0
    0.6556  -52.6375  -19.6535 C   0  0  0  0  0  0  0  0  0  0  0  0
   -0.3543  -52.9742  -18.7448 C   0  0  0  0  0  0  0  0  0  0  0  0
   -0.7154  -52.0982  -17.7365 C   0  0  0  0  0  0  0  0  0  0  0  0
   -0.1086  -50.8733  -17.5809 C   0  0  0  0  0  0  0  0  0  0  0  0
    0.8829  -50.5508  -18.4777 C   0  0  0  0  0  0  0  0  0  0  0  0
    1.7202  -49.0195  -18.3724 Cl  0  0  0  0  0  0  0  0  0  0  0  0
    1.2645  -51.4260  -19.5081 C   0  0  0  0  0  0  0  0  0  0  0  0
   -0.4911  -50.0401  -16.5802 O   0  0  0  0  0  0  0  0  0  0  0  0
   -0.3170  -50.1522  -15.2153 C   0  0  0  0  0  0  0  0  0  0  0  0
    1.0638  -50.4716  -14.7725 C   0  0  0  0  0  0  0  0  0  0  0  0
    2.0953  -49.5590  -14.8241 C   0  0  0  0  0  0  0  0  0  0  0  0
    3.3848  -49.8954  -14.4090 C   0  0  0  0  0  0  0  0  0  0  0  0
    3.6646  -51.1567  -13.9330 C   0  0  0  0  0  0  0  0  0  0  0  0
    2.6417  -52.0720  -13.8785 C   0  0  0  0  0  0  0  0  0  0  0  0
    1.3674  -51.7283  -14.2924 C   0  0  0  0  0  0  0  0  0  0  0  0
  1  2  1  0  0  0
  2  3  2  0  0  0
  3  4  1  0  0  0
  4  5  2  0  0  0
  5  6  1  0  0  0
  6 20  1  0  0  0
 20 22  1  0  0  0
 22 23  2  0  0  0
 23 24  1  0  0  0
 24 25  2  0  0  0
 25 29  1  0  0  0
 29 30  1  0  0  0
 30 31  1  0  0  0
 31 32  2  0  0  0
 32 33  1  0  0  0
 33 34  2  0  0  0
 34 35  1  0  0  0
 35 36  2  0  0  0
 25 26  1  0  0  0
 26 27  1  0  0  0
 26 28  2  0  0  0
  6  7  2  0  0  0
  7 10  1  0  0  0
 10 11  2  0  0  0
 11 12  1  0  0  0
 12 13  2  0  0  0
 13 14  1  0  0  0
 14 15  2  0  0  0
 15 16  1  0  0  0
 16 17  2  0  0  0
 17 18  1  0  0  0
  7  2  1  0  0  0
 18 10  1  0  0  0
 28 22  1  0  0  0
 17 12  1  0  0  0
 36 31  1  0  0  0
  1  8  1  0  0  0
  1  9  1  0  0  0
 20 21  1  0  0  0
 18 19  1  0  0  0
M  END
> <minimizedAffinity>
-6.97750

> <CNNscore>
0.4464837909

> <CNNaffinity>
7.0623869896

> <CNN_VS>
3.1532413960

> <CNNaffinity_variance>
0.1835326850

$$$$
[H]c1nc(N([H])c2c([H])c([H])c3c(c([H])nn3C([H])([H])C([H])([H])c3c([H])c([H])c([H])c([H])c3[H])c2[H])c2c(C([H])([H])N3C([H])([H])C([H])([H])C([H])(N([H])[H])C([H])([H])C3([H])[H])c([H])c([H])n2n1


 38 43  0  0  0  0  0  0  0  0999 V2000
    0.7062  -51.7314  -23.9041 C   0  0  0  0  0  0  0  0  0  0  0  0
    0.2296  -51.6258  -25.1810 C   0  0  0  0  0  0  0  0  0  0  0  0
   -0.5918  -52.7118  -25.4047 C   0  0  0  0  0  0  0  0  0  0  0  0
   -0.6142  -53.4558  -24.2941 N   0  0  0  0  0  0  0  0  0  0  0  0
   -1.3037  -54.5495  -23.9458 N   0  0  0  0  0  0  0  0  0  0  0  0
   -1.2599  -55.0851  -22.7201 C   0  0  0  0  0  0  0  0  0  0  0  0
   -0.4839  -54.4818  -21.7932 N   0  0  0  0  0  0  0  0  0  0  0  0
    0.2408  -53.3656  -22.1084 C   0  0  0  0  0  0  0  0  0  0  0  0
    0.1588  -52.8876  -23.3604 C   0  0  0  0  0  0  0  0  0  0  0  0
    1.1364  -52.8059  -21.0991 N   0  0  0  0  0  0  0  0  0  0  0  0
    2.0937  -52.6687  -21.1659 H   0  0  0  0  0  0  0  0  0  0  0  0
    0.3119  -52.5091  -19.9422 C   0  0  0  0  0  0  0  0  0  0  0  0
   -0.5442  -53.1967  -19.2175 C   0  0  0  0  0  0  0  0  0  0  0  0
   -1.0170  -52.7383  -17.9792 C   0  0  0  0  0  0  0  0  0  0  0  0
   -0.5902  -51.5144  -17.4584 C   0  0  0  0  0  0  0  0  0  0  0  0
   -0.8129  -50.8225  -16.3464 N   0  0  0  0  0  0  0  0  0  0  0  0
   -0.0633  -49.6647  -16.4000 N   0  0  0  0  0  0  0  0  0  0  0  0
    0.6091  -49.6469  -17.5282 C   0  0  0  0  0  0  0  0  0  0  0  0
    0.3006  -50.8045  -18.2210 C   0  0  0  0  0  0  0  0  0  0  0  0
    0.7425  -51.2513  -19.4011 C   0  0  0  0  0  0  0  0  0  0  0  0
   -1.6316  -51.0711  -15.2292 C   0  0  0  0  0  0  0  0  0  0  0  0
   -2.9995  -50.4132  -15.3440 C   0  0  0  0  0  0  0  0  0  0  0  0
   -3.9942  -51.5248  -15.0964 C   0  0  0  0  0  0  0  0  0  0  0  0
   -4.1818  -52.4348  -16.1138 C   0  0  0  0  0  0  0  0  0  0  0  0
   -4.9437  -53.5731  -15.8520 C   0  0  0  0  0  0  0  0  0  0  0  0
   -5.4776  -53.7447  -14.5931 C   0  0  0  0  0  0  0  0  0  0  0  0
   -5.3001  -52.8528  -13.5862 C   0  0  0  0  0  0  0  0  0  0  0  0
   -4.5393  -51.7173  -13.8535 C   0  0  0  0  0  0  0  0  0  0  0  0
    1.5464  -50.7845  -23.1232 C   0  0  0  0  0  0  0  0  0  0  0  0
    6.6274  -52.1636  -24.1142 N   0  0  0  0  0  0  0  0  0  0  0  0
    5.5434  -51.3258  -23.6568 C   0  0  0  0  0  0  0  0  0  0  0  0
    5.0900  -51.6653  -22.2777 C   0  0  0  0  0  0  0  0  0  0  0  0
    3.7014  -51.0856  -21.9692 C   0  0  0  0  0  0  0  0  0  0  0  0
    2.8063  -51.3362  -22.9999 N   0  0  0  0  0  0  0  0  0  0  0  0
    3.3116  -52.1760  -23.9992 C   0  0  0  0  0  0  0  0  0  0  0  0
    4.4571  -51.4046  -24.7083 C   0  0  0  0  0  0  0  0  0  0  0  0
    6.4269  -52.5782  -25.0591 H   0  0  0  0  0  0  0  0  0  0  0  0
    6.9409  -52.8471  -23.4232 H   0  0  0  0  0  0  0  0  0  0  0  0
 30 31  1  0  0  0
 31 32  1  0  0  0
 32 33  1  0  0  0
 33 34  1  0  0  0
 34 29  1  0  0  0
 29  1  1  0  0  0
  1  2  1  0  0  0
  2  3  2  0  0  0
  3  4  1  0  0  0
  4  5  1  0  0  0
  5  6  2  0  0  0
  6  7  1  0  0  0
  7  8  2  0  0  0
  8 10  1  0  0  0
 10 12  1  0  0  0
 12 13  2  0  0  0
 13 14  1  0  0  0
 14 15  2  0  0  0
 15 16  1  0  0  0
 16 21  1  0  0  0
 21 22  1  0  0  0
 22 23  1  0  0  0
 23 24  2  0  0  0
 24 25  1  0  0  0
 25 26  2  0  0  0
 26 27  1  0  0  0
 27 28  2  0  0  0
 16 17  1  0  0  0
 17 18  2  0  0  0
 18 19  1  0  0  0
 19 20  2  0  0  0
  8  9  1  0  0  0
 34 35  1  0  0  0
 35 36  1  0  0  0
 36 31  1  0  0  0
  9  1  2  0  0  0
  9  4  1  0  0  0
 20 12  1  0  0  0
 19 15  1  0  0  0
 28 23  1  0  0  0
 30 37  1  0  0  0
 30 38  1  0  0  0
 10 11  1  0  0  0
M  END
> <minimizedAffinity>
-9.45185

> <CNNscore>
0.7938748598

> <CNNaffinity>
7.5937986374

> <CNN_VS>
6.0285258293

> <CNNaffinity_variance>
0.0726221204

$$$$
[H]c1nc(N([H])c2c([H])c([H])c3c(c([H])nn3C([H])([H])C([H])([H])c3c([H])c([H])c([H])c([H])c3[H])c2[H])c2c(C([H])([H])N3C([H])([H])C([H])([H])C([H])(N([H])[H])C([H])([H])C3([H])[H])c([H])c([H])n2n1


 38 43  0  0  0  0  0  0  0  0999 V2000
    1.1352  -52.4027  -25.8568 C   0  0  0  0  0  0  0  0  0  0  0  0
    1.0380  -52.9994  -27.0829 C   0  0  0  0  0  0  0  0  0  0  0  0
    0.3020  -54.1554  -26.9207 C   0  0  0  0  0  0  0  0  0  0  0  0
   -0.0391  -54.2573  -25.6320 N   0  0  0  0  0  0  0  0  0  0  0  0
   -0.8094  -55.1228  -24.9608 N   0  0  0  0  0  0  0  0  0  0  0  0
   -1.1173  -54.9799  -23.6663 C   0  0  0  0  0  0  0  0  0  0  0  0
   -0.6274  -53.9027  -23.0143 N   0  0  0  0  0  0  0  0  0  0  0  0
    0.1675  -52.9969  -23.6609 C   0  0  0  0  0  0  0  0  0  0  0  0
    0.4456  -53.2075  -24.9575 C   0  0  0  0  0  0  0  0  0  0  0  0
    0.7486  -51.9010  -22.8893 N   0  0  0  0  0  0  0  0  0  0  0  0
    1.3782  -51.2297  -23.1936 H   0  0  0  0  0  0  0  0  0  0  0  0
    0.2147  -52.0212  -21.5451 C   0  0  0  0  0  0  0  0  0  0  0  0
   -0.3915  -52.9768  -20.8743 C   0  0  0  0  0  0  0  0  0  0  0  0
   -0.5757  -52.9178  -19.4852 C   0  0  0  0  0  0  0  0  0  0  0  0
   -0.1147  -51.8246  -18.7477 C   0  0  0  0  0  0  0  0  0  0  0  0
   -0.1029  -51.4771  -17.4656 N   0  0  0  0  0  0  0  0  0  0  0  0
    0.5340  -50.2577  -17.3539 N   0  0  0  0  0  0  0  0  0  0  0  0
    0.9073  -49.8633  -18.5498 C   0  0  0  0  0  0  0  0  0  0  0  0
    0.5144  -50.8334  -19.4553 C   0  0  0  0  0  0  0  0  0  0  0  0
    0.6822  -50.9003  -20.7800 C   0  0  0  0  0  0  0  0  0  0  0  0
   -0.6055  -52.1086  -16.3128 C   0  0  0  0  0  0  0  0  0  0  0  0
   -0.7548  -51.1539  -15.1366 C   0  0  0  0  0  0  0  0  0  0  0  0
   -2.2267  -50.8111  -15.0909 C   0  0  0  0  0  0  0  0  0  0  0  0
   -2.5556  -49.4960  -14.8448 C   0  0  0  0  0  0  0  0  0  0  0  0
   -3.8884  -49.1096  -14.9830 C   0  0  0  0  0  0  0  0  0  0  0  0
   -4.8217  -50.0516  -15.3584 C   0  0  0  0  0  0  0  0  0  0  0  0
   -4.5073  -51.3492  -15.6003 C   0  0  0  0  0  0  0  0  0  0  0  0
   -3.1750  -51.7297  -15.4597 C   0  0  0  0  0  0  0  0  0  0  0  0
    1.7310  -51.0919  -25.4838 C   0  0  0  0  0  0  0  0  0  0  0  0
    6.1034  -51.3565  -22.3994 N   0  0  0  0  0  0  0  0  0  0  0  0
    4.8417  -51.7873  -22.9552 C   0  0  0  0  0  0  0  0  0  0  0  0
    4.9920  -52.4813  -24.2660 C   0  0  0  0  0  0  0  0  0  0  0  0
    3.6651  -52.5500  -25.0366 C   0  0  0  0  0  0  0  0  0  0  0  0
    3.0227  -51.3196  -25.0519 N   0  0  0  0  0  0  0  0  0  0  0  0
    3.7814  -50.2763  -24.5087 C   0  0  0  0  0  0  0  0  0  0  0  0
    3.9428  -50.5697  -22.9929 C   0  0  0  0  0  0  0  0  0  0  0  0
    6.0804  -50.3430  -22.1213 H   0  0  0  0  0  0  0  0  0  0  0  0
    6.9130  -51.6086  -22.9686 H   0  0  0  0  0  0  0  0  0  0  0  0
 30 31  1  0  0  0
 31 32  1  0  0  0
 32 33  1  0  0  0
 33 34  1  0  0  0
 34 29  1  0  0  0
 29  1  1  0  0  0
  1  2  1  0  0  0
  2  3  2  0  0  0
  3  4  1  0  0  0
  4  5  1  0  0  0
  5  6  2  0  0  0
  6  7  1  0  0  0
  7  8  2  0  0  0
  8 10  1  0  0  0
 10 12  1  0  0  0
 12 13  2  0  0  0
 13 14  1  0  0  0
 14 15  2  0  0  0
 15 16  1  0  0  0
 16 21  1  0  0  0
 21 22  1  0  0  0
 22 23  1  0  0  0
 23 24  2  0  0  0
 24 25  1  0  0  0
 25 26  2  0  0  0
 26 27  1  0  0  0
 27 28  2  0  0  0
 16 17  1  0  0  0
 17 18  2  0  0  0
 18 19  1  0  0  0
 19 20  2  0  0  0
  8  9  1  0  0  0
 34 35  1  0  0  0
 35 36  1  0  0  0
 36 31  1  0  0  0
  9  1  2  0  0  0
  9  4  1  0  0  0
 20 12  1  0  0  0
 19 15  1  0  0  0
 28 23  1  0  0  0
 30 37  1  0  0  0
 30 38  1  0  0  0
 10 11  1  0  0  0
M  END
> <minimizedAffinity>
-9.33791

> <CNNscore>
0.6678295732

> <CNNaffinity>
7.4872412682

> <CNN_VS>
5.0002012253

> <CNNaffinity_variance>
0.1218442321

$$$$
[H]c1nc(N([H])c2c([H])c([H])c3c(c([H])nn3C([H])([H])C([H])([H])c3c([H])c([H])c([H])c([H])c3[H])c2[H])c2c(C([H])([H])N3C([H])([H])C([H])([H])C([H])(N([H])[H])C([H])([H])C3([H])[H])c([H])c([H])n2n1


 38 43  0  0  0  0  0  0  0  0999 V2000
    0.2060  -52.7571  -24.2020 C   0  0  0  0  0  0  0  0  0  0  0  0
   -0.0503  -53.7720  -25.0812 C   0  0  0  0  0  0  0  0  0  0  0  0
   -0.7321  -54.7528  -24.3901 C   0  0  0  0  0  0  0  0  0  0  0  0
   -0.8863  -54.3443  -23.1265 N   0  0  0  0  0  0  0  0  0  0  0  0
   -1.5364  -54.8615  -22.0764 N   0  0  0  0  0  0  0  0  0  0  0  0
   -1.6621  -54.2259  -20.9054 C   0  0  0  0  0  0  0  0  0  0  0  0
   -1.1077  -52.9993  -20.7885 N   0  0  0  0  0  0  0  0  0  0  0  0
   -0.4305  -52.4363  -21.8349 C   0  0  0  0  0  0  0  0  0  0  0  0
   -0.3333  -53.1343  -22.9777 C   0  0  0  0  0  0  0  0  0  0  0  0
    0.2305  -51.1500  -21.6283 N   0  0  0  0  0  0  0  0  0  0  0  0
    0.2097  -50.3726  -22.2069 H   0  0  0  0  0  0  0  0  0  0  0  0
    0.9609  -51.2633  -20.3793 C   0  0  0  0  0  0  0  0  0  0  0  0
    2.2349  -51.3254  -20.0568 C   0  0  0  0  0  0  0  0  0  0  0  0
    2.6831  -51.1706  -18.7369 C   0  0  0  0  0  0  0  0  0  0  0  0
    1.7799  -50.9403  -17.6964 C   0  0  0  0  0  0  0  0  0  0  0  0
    1.8676  -50.7315  -16.3874 N   0  0  0  0  0  0  0  0  0  0  0  0
    0.5931  -50.5381  -15.8940 N   0  0  0  0  0  0  0  0  0  0  0  0
   -0.2634  -50.6269  -16.8858 C   0  0  0  0  0  0  0  0  0  0  0  0
    0.4548  -50.8785  -18.0417 C   0  0  0  0  0  0  0  0  0  0  0  0
    0.0396  -51.0296  -19.3036 C   0  0  0  0  0  0  0  0  0  0  0  0
    2.9675  -50.6904  -15.5107 C   0  0  0  0  0  0  0  0  0  0  0  0
    3.8208  -49.4434  -15.6950 C   0  0  0  0  0  0  0  0  0  0  0  0
    3.0971  -48.3543  -14.9358 C   0  0  0  0  0  0  0  0  0  0  0  0
    3.2875  -48.3097  -13.5720 C   0  0  0  0  0  0  0  0  0  0  0  0
    2.7913  -47.2118  -12.8695 C   0  0  0  0  0  0  0  0  0  0  0  0
    2.1330  -46.2181  -13.5612 C   0  0  0  0  0  0  0  0  0  0  0  0
    1.9388  -46.2549  -14.9036 C   0  0  0  0  0  0  0  0  0  0  0  0
    2.4354  -47.3541  -15.5998 C   0  0  0  0  0  0  0  0  0  0  0  0
    0.8213  -51.4246  -24.4437 C   0  0  0  0  0  0  0  0  0  0  0  0
    6.1165  -52.2353  -24.5031 N   0  0  0  0  0  0  0  0  0  0  0  0
    4.8789  -51.5246  -24.7254 C   0  0  0  0  0  0  0  0  0  0  0  0
    4.3981  -50.8034  -23.5124 C   0  0  0  0  0  0  0  0  0  0  0  0
    2.9144  -50.4212  -23.6201 C   0  0  0  0  0  0  0  0  0  0  0  0
    2.1450  -51.4910  -24.0560 N   0  0  0  0  0  0  0  0  0  0  0  0
    2.8500  -52.6964  -24.1499 C   0  0  0  0  0  0  0  0  0  0  0  0
    3.8939  -52.5282  -25.2864 C   0  0  0  0  0  0  0  0  0  0  0  0
    6.0521  -53.2366  -24.8166 H   0  0  0  0  0  0  0  0  0  0  0  0
    6.4939  -52.1227  -23.5608 H   0  0  0  0  0  0  0  0  0  0  0  0
 30 31  1  0  0  0
 31 32  1  0  0  0
 32 33  1  0  0  0
 33 34  1  0  0  0
 34 29  1  0  0  0
 29  1  1  0  0  0
  1  2  1  0  0  0
  2  3  2  0  0  0
  3  4  1  0  0  0
  4  5  1  0  0  0
  5  6  2  0  0  0
  6  7  1  0  0  0
  7  8  2  0  0  0
  8 10  1  0  0  0
 10 12  1  0  0  0
 12 13  2  0  0  0
 13 14  1  0  0  0
 14 15  2  0  0  0
 15 16  1  0  0  0
 16 21  1  0  0  0
 21 22  1  0  0  0
 22 23  1  0  0  0
 23 24  2  0  0  0
 24 25  1  0  0  0
 25 26  2  0  0  0
 26 27  1  0  0  0
 27 28  2  0  0  0
 16 17  1  0  0  0
 17 18  2  0  0  0
 18 19  1  0  0  0
 19 20  2  0  0  0
  8  9  1  0  0  0
 34 35  1  0  0  0
 35 36  1  0  0  0
 36 31  1  0  0  0
  9  1  2  0  0  0
  9  4  1  0  0  0
 20 12  1  0  0  0
 19 15  1  0  0  0
 28 23  1  0  0  0
 30 37  1  0  0  0
 30 38  1  0  0  0
 10 11  1  0  0  0
M  END
> <minimizedAffinity>
-7.25325

> <CNNscore>
0.5272449851

> <CNNaffinity>
7.2203512192

> <CNN_VS>
3.8068940639

> <CNNaffinity_variance>
0.1773259640

$$$$
[H]c1nc(N([H])c2c([H])c([H])c3c(c([H])nn3C([H])([H])C([H])([H])c3c([H])c([H])c([H])c([H])c3[H])c2[H])c2c(C([H])([H])N3C([H])([H])C([H])([H])C([H])(N([H])[H])C([H])([H])C3([H])[H])c([H])c([H])n2n1


 38 43  0  0  0  0  0  0  0  0999 V2000
    0.9974  -51.2996  -23.1974 C   0  0  0  0  0  0  0  0  0  0  0  0
    0.3118  -51.3845  -24.3770 C   0  0  0  0  0  0  0  0  0  0  0  0
   -0.4591  -52.5277  -24.3235 C   0  0  0  0  0  0  0  0  0  0  0  0
   -0.2483  -53.1201  -23.1437 N   0  0  0  0  0  0  0  0  0  0  0  0
   -0.7951  -54.1899  -22.5525 N   0  0  0  0  0  0  0  0  0  0  0  0
   -0.5145  -54.5578  -21.2968 C   0  0  0  0  0  0  0  0  0  0  0  0
    0.3601  -53.8027  -20.5965 N   0  0  0  0  0  0  0  0  0  0  0  0
    0.9454  -52.7046  -21.1641 C   0  0  0  0  0  0  0  0  0  0  0  0
    0.6267  -52.3990  -22.4321 C   0  0  0  0  0  0  0  0  0  0  0  0
    1.9541  -51.9763  -20.3984 N   0  0  0  0  0  0  0  0  0  0  0  0
    2.9099  -51.9434  -20.5569 H   0  0  0  0  0  0  0  0  0  0  0  0
    1.2465  -51.3159  -19.3170 C   0  0  0  0  0  0  0  0  0  0  0  0
    0.2166  -51.6286  -18.5606 C   0  0  0  0  0  0  0  0  0  0  0  0
   -0.1077  -50.9104  -17.4003 C   0  0  0  0  0  0  0  0  0  0  0  0
    0.6630  -49.8178  -16.9959 C   0  0  0  0  0  0  0  0  0  0  0  0
    0.6487  -48.9675  -15.9753 N   0  0  0  0  0  0  0  0  0  0  0  0
    1.7125  -48.1000  -16.1202 N   0  0  0  0  0  0  0  0  0  0  0  0
    2.3694  -48.4137  -17.2134 C   0  0  0  0  0  0  0  0  0  0  0  0
    1.7331  -49.4986  -17.7908 C   0  0  0  0  0  0  0  0  0  0  0  0
    2.0309  -50.1899  -18.8959 C   0  0  0  0  0  0  0  0  0  0  0  0
   -0.2171  -48.8301  -14.8745 C   0  0  0  0  0  0  0  0  0  0  0  0
   -1.5048  -48.0985  -15.2263 C   0  0  0  0  0  0  0  0  0  0  0  0
   -2.6083  -49.1040  -14.9862 C   0  0  0  0  0  0  0  0  0  0  0  0
   -3.9041  -48.6485  -15.0937 C   0  0  0  0  0  0  0  0  0  0  0  0
   -4.9390  -49.5830  -15.0665 C   0  0  0  0  0  0  0  0  0  0  0  0
   -4.6291  -50.9194  -14.9338 C   0  0  0  0  0  0  0  0  0  0  0  0
   -3.3562  -51.3765  -14.8248 C   0  0  0  0  0  0  0  0  0  0  0  0
   -2.3269  -50.4388  -14.8515 C   0  0  0  0  0  0  0  0  0  0  0  0
    1.8877  -50.2202  -22.6925 C   0  0  0  0  0  0  0  0  0  0  0  0
    6.3716  -52.5399  -24.4855 N   0  0  0  0  0  0  0  0  0  0  0  0
    5.0047  -52.0758  -24.5351 C   0  0  0  0  0  0  0  0  0  0  0  0
    4.8947  -50.6324  -24.8916 C   0  0  0  0  0  0  0  0  0  0  0  0
    3.5184  -50.0536  -24.5309 C   0  0  0  0  0  0  0  0  0  0  0  0
    3.1396  -50.4092  -23.2438 N   0  0  0  0  0  0  0  0  0  0  0  0
    4.1388  -51.0703  -22.5202 C   0  0  0  0  0  0  0  0  0  0  0  0
    4.3712  -52.4416  -23.2097 C   0  0  0  0  0  0  0  0  0  0  0  0
    6.5790  -53.0444  -23.5870 H   0  0  0  0  0  0  0  0  0  0  0  0
    7.0597  -51.8238  -24.7235 H   0  0  0  0  0  0  0  0  0  0  0  0
 30 31  1  0  0  0
 31 32  1  0  0  0
 32 33  1  0  0  0
 33 34  1  0  0  0
 34 29  1  0  0  0
 29  1  1  0  0  0
  1  2  1  0  0  0
  2  3  2  0  0  0
  3  4  1  0  0  0
  4  5  1  0  0  0
  5  6  2  0  0  0
  6  7  1  0  0  0
  7  8  2  0  0  0
  8 10  1  0  0  0
 10 12  1  0  0  0
 12 13  2  0  0  0
 13 14  1  0  0  0
 14 15  2  0  0  0
 15 16  1  0  0  0
 16 21  1  0  0  0
 21 22  1  0  0  0
 22 23  1  0  0  0
 23 24  2  0  0  0
 24 25  1  0  0  0
 25 26  2  0  0  0
 26 27  1  0  0  0
 27 28  2  0  0  0
 16 17  1  0  0  0
 17 18  2  0  0  0
 18 19  1  0  0  0
 19 20  2  0  0  0
  8  9  1  0  0  0
 34 35  1  0  0  0
 35 36  1  0  0  0
 36 31  1  0  0  0
  9  1  2  0  0  0
  9  4  1  0  0  0
 20 12  1  0  0  0
 19 15  1  0  0  0
 28 23  1  0  0  0
 30 37  1  0  0  0
 30 38  1  0  0  0
 10 11  1  0  0  0
M  END
> <minimizedAffinity>
-7.98229

> <CNNscore>
0.2139308602

> <CNNaffinity>
7.0481963158

> <CNN_VS>
1.5078266859

> <CNNaffinity_variance>
0.2721300721

$$$$
[H]c1nc(N([H])c2c([H])c([H])c3c(c([H])nn3C([H])([H])C([H])([H])c3c([H])c([H])c([H])c([H])c3[H])c2[H])c2c(C([H])([H])N3C([H])([H])C([H])([H])C([H])(N([H])[H])C([H])([H])C3([H])[H])c([H])c([H])n2n1


 38 43  0  0  0  0  0  0  0  0999 V2000
    0.3901  -50.4133  -17.3105 C   0  0  0  0  0  0  0  0  0  0  0  0
   -0.4570  -50.5913  -16.2525 C   0  0  0  0  0  0  0  0  0  0  0  0
   -1.2594  -51.6750  -16.5456 C   0  0  0  0  0  0  0  0  0  0  0  0
   -0.9087  -52.1427  -17.7480 N   0  0  0  0  0  0  0  0  0  0  0  0
   -1.2983  -53.2088  -18.4582 N   0  0  0  0  0  0  0  0  0  0  0  0
   -0.7311  -53.5660  -19.6164 C   0  0  0  0  0  0  0  0  0  0  0  0
    0.2887  -52.8113  -20.0811 N   0  0  0  0  0  0  0  0  0  0  0  0
    0.7147  -51.7109  -19.3895 C   0  0  0  0  0  0  0  0  0  0  0  0
    0.0935  -51.4037  -18.2395 C   0  0  0  0  0  0  0  0  0  0  0  0
    1.7569  -50.8748  -19.9800 N   0  0  0  0  0  0  0  0  0  0  0  0
    2.3496  -50.2564  -19.5261 H   0  0  0  0  0  0  0  0  0  0  0  0
    1.7231  -51.1295  -21.4084 C   0  0  0  0  0  0  0  0  0  0  0  0
    0.8874  -50.8322  -22.3799 C   0  0  0  0  0  0  0  0  0  0  0  0
    1.2266  -50.9794  -23.7328 C   0  0  0  0  0  0  0  0  0  0  0  0
    2.4856  -51.4549  -24.1075 C   0  0  0  0  0  0  0  0  0  0  0  0
    3.1156  -51.6817  -25.2549 N   0  0  0  0  0  0  0  0  0  0  0  0
    4.3857  -52.1394  -24.9678 N   0  0  0  0  0  0  0  0  0  0  0  0
    4.5324  -52.1924  -23.6636 C   0  0  0  0  0  0  0  0  0  0  0  0
    3.3490  -51.7634  -23.0886 C   0  0  0  0  0  0  0  0  0  0  0  0
    3.0131  -51.6205  -21.8023 C   0  0  0  0  0  0  0  0  0  0  0  0
    2.7115  -51.5436  -26.5958 C   0  0  0  0  0  0  0  0  0  0  0  0
    2.2445  -52.8568  -27.2078 C   0  0  0  0  0  0  0  0  0  0  0  0
    0.7983  -52.6250  -27.5833 C   0  0  0  0  0  0  0  0  0  0  0  0
    0.4163  -52.9882  -28.8563 C   0  0  0  0  0  0  0  0  0  0  0  0
   -0.9418  -52.9656  -29.1720 C   0  0  0  0  0  0  0  0  0  0  0  0
   -1.8463  -52.5831  -28.2050 C   0  0  0  0  0  0  0  0  0  0  0  0
   -1.4789  -52.2215  -26.9499 C   0  0  0  0  0  0  0  0  0  0  0  0
   -0.1213  -52.2449  -26.6405 C   0  0  0  0  0  0  0  0  0  0  0  0
    1.5187  -49.4581  -17.4726 C   0  0  0  0  0  0  0  0  0  0  0  0
    4.2268  -50.0135  -12.8837 N   0  0  0  0  0  0  0  0  0  0  0  0
    3.2551  -50.3415  -13.9007 C   0  0  0  0  0  0  0  0  0  0  0  0
    3.8410  -51.1082  -15.0371 C   0  0  0  0  0  0  0  0  0  0  0  0
    2.9362  -51.0799  -16.2780 C   0  0  0  0  0  0  0  0  0  0  0  0
    2.4945  -49.7935  -16.5549 N   0  0  0  0  0  0  0  0  0  0  0  0
    3.0818  -48.8069  -15.7543 C   0  0  0  0  0  0  0  0  0  0  0  0
    2.5878  -49.0431  -14.3017 C   0  0  0  0  0  0  0  0  0  0  0  0
    4.2066  -48.9908  -12.6413 H   0  0  0  0  0  0  0  0  0  0  0  0
    5.1634  -50.3721  -13.0764 H   0  0  0  0  0  0  0  0  0  0  0  0
 30 31  1  0  0  0
 31 32  1  0  0  0
 32 33  1  0  0  0
 33 34  1  0  0  0
 34 29  1  0  0  0
 29  1  1  0  0  0
  1  2  1  0  0  0
  2  3  2  0  0  0
  3  4  1  0  0  0
  4  5  1  0  0  0
  5  6  2  0  0  0
  6  7  1  0  0  0
  7  8  2  0  0  0
  8 10  1  0  0  0
 10 12  1  0  0  0
 12 13  2  0  0  0
 13 14  1  0  0  0
 14 15  2  0  0  0
 15 16  1  0  0  0
 16 21  1  0  0  0
 21 22  1  0  0  0
 22 23  1  0  0  0
 23 24  2  0  0  0
 24 25  1  0  0  0
 25 26  2  0  0  0
 26 27  1  0  0  0
 27 28  2  0  0  0
 16 17  1  0  0  0
 17 18  2  0  0  0
 18 19  1  0  0  0
 19 20  2  0  0  0
  8  9  1  0  0  0
 34 35  1  0  0  0
 35 36  1  0  0  0
 36 31  1  0  0  0
  9  1  2  0  0  0
  9  4  1  0  0  0
 20 12  1  0  0  0
 19 15  1  0  0  0
 28 23  1  0  0  0
 30 37  1  0  0  0
 30 38  1  0  0  0
 10 11  1  0  0  0
M  END
> <minimizedAffinity>
-8.27152

> <CNNscore>
0.1798124164

> <CNNaffinity>
6.8319792747

> <CNN_VS>
1.2284747362

> <CNNaffinity_variance>
0.2498315871

$$$$
[H]c1nc(N([H])c2c([H])c([H])c3c(c([H])nn3C([H])([H])C([H])([H])c3c([H])c([H])c([H])c([H])c3[H])c2[H])c2c(C([H])([H])N3C([H])([H])C([H])([H])C([H])(N([H])[H])C([H])([H])C3([H])[H])c([H])c([H])n2n1


 38 43  0  0  0  0  0  0  0  0999 V2000
   -0.3648  -53.2121  -23.4727 C   0  0  0  0  0  0  0  0  0  0  0  0
   -0.9687  -54.4304  -23.3315 C   0  0  0  0  0  0  0  0  0  0  0  0
   -0.8873  -54.7781  -21.9986 C   0  0  0  0  0  0  0  0  0  0  0  0
   -0.2523  -53.7976  -21.3482 N   0  0  0  0  0  0  0  0  0  0  0  0
    0.0135  -53.5892  -20.0524 N   0  0  0  0  0  0  0  0  0  0  0  0
    0.5758  -52.4662  -19.5903 C   0  0  0  0  0  0  0  0  0  0  0  0
    0.8812  -51.4980  -20.4817 N   0  0  0  0  0  0  0  0  0  0  0  0
    0.6311  -51.6721  -21.8150 C   0  0  0  0  0  0  0  0  0  0  0  0
    0.0749  -52.8281  -22.2113 C   0  0  0  0  0  0  0  0  0  0  0  0
    1.0651  -50.6356  -22.7485 N   0  0  0  0  0  0  0  0  0  0  0  0
    0.9354  -50.6100  -23.7089 H   0  0  0  0  0  0  0  0  0  0  0  0
    1.7641  -49.6406  -21.9564 C   0  0  0  0  0  0  0  0  0  0  0  0
    1.3940  -48.5848  -21.2642 C   0  0  0  0  0  0  0  0  0  0  0  0
    2.2558  -47.9350  -20.3685 C   0  0  0  0  0  0  0  0  0  0  0  0
    3.5616  -48.3912  -20.1730 C   0  0  0  0  0  0  0  0  0  0  0  0
    4.5904  -48.0369  -19.4108 N   0  0  0  0  0  0  0  0  0  0  0  0
    5.6298  -48.9123  -19.6532 N   0  0  0  0  0  0  0  0  0  0  0  0
    5.2440  -49.7902  -20.5507 C   0  0  0  0  0  0  0  0  0  0  0  0
    3.9387  -49.4908  -20.8994 C   0  0  0  0  0  0  0  0  0  0  0  0
    3.1083  -50.1004  -21.7518 C   0  0  0  0  0  0  0  0  0  0  0  0
    4.7617  -46.9918  -18.4843 C   0  0  0  0  0  0  0  0  0  0  0  0
    3.8987  -47.1595  -17.2416 C   0  0  0  0  0  0  0  0  0  0  0  0
    4.8307  -46.9109  -16.0772 C   0  0  0  0  0  0  0  0  0  0  0  0
    4.4581  -47.4283  -14.8559 C   0  0  0  0  0  0  0  0  0  0  0  0
    5.3780  -47.3825  -13.8087 C   0  0  0  0  0  0  0  0  0  0  0  0
    6.6182  -46.8249  -14.0329 C   0  0  0  0  0  0  0  0  0  0  0  0
    6.9927  -46.3109  -15.2314 C   0  0  0  0  0  0  0  0  0  0  0  0
    6.0697  -46.3582  -16.2732 C   0  0  0  0  0  0  0  0  0  0  0  0
   -0.2605  -52.3376  -24.6713 C   0  0  0  0  0  0  0  0  0  0  0  0
    2.4319  -54.1389  -28.9383 N   0  0  0  0  0  0  0  0  0  0  0  0
    1.8845  -53.1585  -28.0297 C   0  0  0  0  0  0  0  0  0  0  0  0
    2.7434  -52.9345  -26.8319 C   0  0  0  0  0  0  0  0  0  0  0  0
    1.9772  -52.2404  -25.6958 C   0  0  0  0  0  0  0  0  0  0  0  0
    0.7437  -52.8378  -25.4764 N   0  0  0  0  0  0  0  0  0  0  0  0
    0.5406  -54.0090  -26.2155 C   0  0  0  0  0  0  0  0  0  0  0  0
    0.4717  -53.5994  -27.7112 C   0  0  0  0  0  0  0  0  0  0  0  0
    1.7249  -54.8756  -29.1880 H   0  0  0  0  0  0  0  0  0  0  0  0
    3.3335  -54.5171  -28.6435 H   0  0  0  0  0  0  0  0  0  0  0  0
 30 31  1  0  0  0
 31 32  1  0  0  0
 32 33  1  0  0  0
 33 34  1  0  0  0
 34 29  1  0  0  0
 29  1  1  0  0  0
  1  2  1  0  0  0
  2  3  2  0  0  0
  3  4  1  0  0  0
  4  5  1  0  0  0
  5  6  2  0  0  0
  6  7  1  0  0  0
  7  8  2  0  0  0
  8 10  1  0  0  0
 10 12  1  0  0  0
 12 13  2  0  0  0
 13 14  1  0  0  0
 14 15  2  0  0  0
 15 16  1  0  0  0
 16 21  1  0  0  0
 21 22  1  0  0  0
 22 23  1  0  0  0
 23 24  2  0  0  0
 24 25  1  0  0  0
 25 26  2  0  0  0
 26 27  1  0  0  0
 27 28  2  0  0  0
 16 17  1  0  0  0
 17 18  2  0  0  0
 18 19  1  0  0  0
 19 20  2  0  0  0
  8  9  1  0  0  0
 34 35  1  0  0  0
 35 36  1  0  0  0
 36 31  1  0  0  0
  9  1  2  0  0  0
  9  4  1  0  0  0
 20 12  1  0  0  0
 19 15  1  0  0  0
 28 23  1  0  0  0
 30 37  1  0  0  0
 30 38  1  0  0  0
 10 11  1  0  0  0
M  END
> <minimizedAffinity>
-7.51997

> <CNNscore>
0.1763706058

> <CNNaffinity>
6.8070855141

> <CNN_VS>
1.2005697489

> <CNNaffinity_variance>
0.1617013812

$$$$
[H]c1nc(N([H])c2c([H])c([H])c3c(c([H])nn3C([H])([H])C([H])([H])c3c([H])c([H])c([H])c([H])c3[H])c2[H])c2c(C([H])([H])N3C([H])([H])C([H])([H])C([H])(N([H])[H])C([H])([H])C3([H])[H])c([H])c([H])n2n1


 38 43  0  0  0  0  0  0  0  0999 V2000
   -0.4876  -53.2642  -23.5470 C   0  0  0  0  0  0  0  0  0  0  0  0
   -0.9872  -54.5046  -23.2631 C   0  0  0  0  0  0  0  0  0  0  0  0
   -0.6203  -54.8094  -21.9682 C   0  0  0  0  0  0  0  0  0  0  0  0
    0.0818  -53.7821  -21.4791 N   0  0  0  0  0  0  0  0  0  0  0  0
    0.5928  -53.5242  -20.2686 N   0  0  0  0  0  0  0  0  0  0  0  0
    1.1784  -52.3633  -19.9516 C   0  0  0  0  0  0  0  0  0  0  0  0
    1.2472  -51.4081  -20.9047 N   0  0  0  0  0  0  0  0  0  0  0  0
    0.7421  -51.6322  -22.1558 C   0  0  0  0  0  0  0  0  0  0  0  0
    0.1775  -52.8238  -22.4088 C   0  0  0  0  0  0  0  0  0  0  0  0
    0.9247  -50.6041  -23.1774 N   0  0  0  0  0  0  0  0  0  0  0  0
    0.2626  -50.2566  -23.7944 H   0  0  0  0  0  0  0  0  0  0  0  0
    2.3194  -50.2080  -23.1123 C   0  0  0  0  0  0  0  0  0  0  0  0
    2.9874  -49.2844  -22.4555 C   0  0  0  0  0  0  0  0  0  0  0  0
    4.3878  -49.2836  -22.3779 C   0  0  0  0  0  0  0  0  0  0  0  0
    5.1400  -50.2799  -23.0047 C   0  0  0  0  0  0  0  0  0  0  0  0
    6.4307  -50.5783  -23.1047 N   0  0  0  0  0  0  0  0  0  0  0  0
    6.5514  -51.7294  -23.8568 N   0  0  0  0  0  0  0  0  0  0  0  0
    5.3525  -52.1309  -24.2127 C   0  0  0  0  0  0  0  0  0  0  0  0
    4.4356  -51.2372  -23.6877 C   0  0  0  0  0  0  0  0  0  0  0  0
    3.1003  -51.2259  -23.7560 C   0  0  0  0  0  0  0  0  0  0  0  0
    7.5858  -49.9463  -22.6084 C   0  0  0  0  0  0  0  0  0  0  0  0
    7.7323  -50.0883  -21.0999 C   0  0  0  0  0  0  0  0  0  0  0  0
    7.4013  -48.7230  -20.5409 C   0  0  0  0  0  0  0  0  0  0  0  0
    6.6538  -48.6849  -19.3841 C   0  0  0  0  0  0  0  0  0  0  0  0
    6.4919  -47.4584  -18.7404 C   0  0  0  0  0  0  0  0  0  0  0  0
    7.0819  -46.3367  -19.2817 C   0  0  0  0  0  0  0  0  0  0  0  0
    7.8174  -46.3645  -20.4215 C   0  0  0  0  0  0  0  0  0  0  0  0
    7.9749  -47.5918  -21.0608 C   0  0  0  0  0  0  0  0  0  0  0  0
   -0.6728  -52.4208  -24.7582 C   0  0  0  0  0  0  0  0  0  0  0  0
    2.2028  -54.3732  -28.8348 N   0  0  0  0  0  0  0  0  0  0  0  0
    1.2878  -53.4810  -28.1619 C   0  0  0  0  0  0  0  0  0  0  0  0
    1.9823  -52.4016  -27.4034 C   0  0  0  0  0  0  0  0  0  0  0  0
    1.0589  -51.7378  -26.3710 C   0  0  0  0  0  0  0  0  0  0  0  0
    0.3714  -52.6834  -25.6227 N   0  0  0  0  0  0  0  0  0  0  0  0
    0.7774  -54.0013  -25.8621 C   0  0  0  0  0  0  0  0  0  0  0  0
    0.3736  -54.3462  -27.3208 C   0  0  0  0  0  0  0  0  0  0  0  0
    1.9922  -55.3806  -28.6209 H   0  0  0  0  0  0  0  0  0  0  0  0
    3.1859  -54.1241  -28.7147 H   0  0  0  0  0  0  0  0  0  0  0  0
 30 31  1  0  0  0
 31 32  1  0  0  0
 32 33  1  0  0  0
 33 34  1  0  0  0
 34 29  1  0  0  0
 29  1  1  0  0  0
  1  2  1  0  0  0
  2  3  2  0  0  0
  3  4  1  0  0  0
  4  5  1  0  0  0
  5  6  2  0  0  0
  6  7  1  0  0  0
  7  8  2  0  0  0
  8 10  1  0  0  0
 10 12  1  0  0  0
 12 13  2  0  0  0
 13 14  1  0  0  0
 14 15  2  0  0  0
 15 16  1  0  0  0
 16 21  1  0  0  0
 21 22  1  0  0  0
 22 23  1  0  0  0
 23 24  2  0  0  0
 24 25  1  0  0  0
 25 26  2  0  0  0
 26 27  1  0  0  0
 27 28  2  0  0  0
 16 17  1  0  0  0
 17 18  2  0  0  0
 18 19  1  0  0  0
 19 20  2  0  0  0
  8  9  1  0  0  0
 34 35  1  0  0  0
 35 36  1  0  0  0
 36 31  1  0  0  0
  9  1  2  0  0  0
  9  4  1  0  0  0
 20 12  1  0  0  0
 19 15  1  0  0  0
 28 23  1  0  0  0
 30 37  1  0  0  0
 30 38  1  0  0  0
 10 11  1  0  0  0
M  END
> <minimizedAffinity>
-7.66689

> <CNNscore>
0.1670717001

> <CNNaffinity>
6.6439552307

> <CNN_VS>
1.1100169420

> <CNNaffinity_variance>
0.5277121663

$$$$
[H]c1nc(N([H])c2c([H])c([H])c3c(c([H])nn3C([H])([H])C([H])([H])c3c([H])c([H])c([H])c([H])c3[H])c2[H])c2c(C([H])([H])N3C([H])([H])C([H])([H])C([H])(N([H])[H])C([H])([H])C3([H])[H])c([H])c([H])n2n1


 38 43  0  0  0  0  0  0  0  0999 V2000
   -0.1780  -53.0604  -23.5683 C   0  0  0  0  0  0  0  0  0  0  0  0
   -0.8402  -54.2440  -23.7396 C   0  0  0  0  0  0  0  0  0  0  0  0
   -1.0482  -54.7842  -22.4870 C   0  0  0  0  0  0  0  0  0  0  0  0
   -0.5276  -53.9513  -21.5800 N   0  0  0  0  0  0  0  0  0  0  0  0
   -0.5284  -53.9491  -20.2410 N   0  0  0  0  0  0  0  0  0  0  0  0
   -0.0349  -52.9435  -19.5087 C   0  0  0  0  0  0  0  0  0  0  0  0
    0.4817  -51.8793  -20.1614 N   0  0  0  0  0  0  0  0  0  0  0  0
    0.5068  -51.8433  -21.5284 C   0  0  0  0  0  0  0  0  0  0  0  0
    0.0045  -52.8913  -22.2008 C   0  0  0  0  0  0  0  0  0  0  0  0
    1.1603  -50.7141  -22.1857 N   0  0  0  0  0  0  0  0  0  0  0  0
    0.7480  -50.0212  -22.7239 H   0  0  0  0  0  0  0  0  0  0  0  0
    2.5771  -50.8390  -21.8972 C   0  0  0  0  0  0  0  0  0  0  0  0
    3.5777  -51.4917  -22.4481 C   0  0  0  0  0  0  0  0  0  0  0  0
    4.9158  -51.2312  -22.1182 C   0  0  0  0  0  0  0  0  0  0  0  0
    5.2435  -50.2524  -21.1769 C   0  0  0  0  0  0  0  0  0  0  0  0
    6.3668  -49.7551  -20.6713 N   0  0  0  0  0  0  0  0  0  0  0  0
    6.0340  -48.7613  -19.7730 N   0  0  0  0  0  0  0  0  0  0  0  0
    4.7259  -48.6508  -19.7286 C   0  0  0  0  0  0  0  0  0  0  0  0
    4.1945  -49.5785  -20.6073 C   0  0  0  0  0  0  0  0  0  0  0  0
    2.9227  -49.8374  -20.9288 C   0  0  0  0  0  0  0  0  0  0  0  0
    7.7205  -50.0700  -20.8915 C   0  0  0  0  0  0  0  0  0  0  0  0
    8.4986  -48.9194  -21.5141 C   0  0  0  0  0  0  0  0  0  0  0  0
    7.9292  -48.7654  -22.9063 C   0  0  0  0  0  0  0  0  0  0  0  0
    8.0754  -49.8337  -23.7639 C   0  0  0  0  0  0  0  0  0  0  0  0
    7.4012  -49.8005  -24.9843 C   0  0  0  0  0  0  0  0  0  0  0  0
    6.6185  -48.7068  -25.2856 C   0  0  0  0  0  0  0  0  0  0  0  0
    6.4708  -47.6494  -24.4483 C   0  0  0  0  0  0  0  0  0  0  0  0
    7.1472  -47.6875  -23.2315 C   0  0  0  0  0  0  0  0  0  0  0  0
    0.2023  -52.0314  -24.5728 C   0  0  0  0  0  0  0  0  0  0  0  0
    2.4192  -54.1899  -28.9462 N   0  0  0  0  0  0  0  0  0  0  0  0
    1.9694  -53.1357  -28.0673 C   0  0  0  0  0  0  0  0  0  0  0  0
    2.9535  -52.8156  -26.9942 C   0  0  0  0  0  0  0  0  0  0  0  0
    2.3130  -52.0271  -25.8422 C   0  0  0  0  0  0  0  0  0  0  0  0
    1.1147  -52.6001  -25.4394 N   0  0  0  0  0  0  0  0  0  0  0  0
    0.8384  -53.8280  -26.0518 C   0  0  0  0  0  0  0  0  0  0  0  0
    0.6028  -53.5439  -27.5596 C   0  0  0  0  0  0  0  0  0  0  0  0
    1.6934  -54.9426  -29.0545 H   0  0  0  0  0  0  0  0  0  0  0  0
    3.3500  -54.5453  -28.7222 H   0  0  0  0  0  0  0  0  0  0  0  0
 30 31  1  0  0  0
 31 32  1  0  0  0
 32 33  1  0  0  0
 33 34  1  0  0  0
 34 29  1  0  0  0
 29  1  1  0  0  0
  1  2  1  0  0  0
  2  3  2  0  0  0
  3  4  1  0  0  0
  4  5  1  0  0  0
  5  6  2  0  0  0
  6  7  1  0  0  0
  7  8  2  0  0  0
  8 10  1  0  0  0
 10 12  1  0  0  0
 12 13  2  0  0  0
 13 14  1  0  0  0
 14 15  2  0  0  0
 15 16  1  0  0  0
 16 21  1  0  0  0
 21 22  1  0  0  0
 22 23  1  0  0  0
 23 24  2  0  0  0
 24 25  1  0  0  0
 25 26  2  0  0  0
 26 27  1  0  0  0
 27 28  2  0  0  0
 16 17  1  0  0  0
 17 18  2  0  0  0
 18 19  1  0  0  0
 19 20  2  0  0  0
  8  9  1  0  0  0
 34 35  1  0  0  0
 35 36  1  0  0  0
 36 31  1  0  0  0
  9  1  2  0  0  0
  9  4  1  0  0  0
 20 12  1  0  0  0
 19 15  1  0  0  0
 28 23  1  0  0  0
 30 37  1  0  0  0
 30 38  1  0  0  0
 10 11  1  0  0  0
M  END
> <minimizedAffinity>
-8.02155

> <CNNscore>
0.1539715379

> <CNNaffinity>
6.9489755630

> <CNN_VS>
1.0699445009

> <CNNaffinity_variance>
0.1568067521

$$$$
[H]c1nc(N([H])c2c([H])c([H])c3c(c([H])nn3C([H])([H])C([H])([H])c3c([H])c([H])c([H])c([H])c3[H])c2[H])c2c(C([H])([H])N3C([H])([H])C([H])([H])C([H])(N([H])[H])C([H])([H])C3([H])[H])c([H])c([H])n2n1


 38 43  0  0  0  0  0  0  0  0999 V2000
   -0.4390  -52.8135  -25.4665 C   0  0  0  0  0  0  0  0  0  0  0  0
   -1.7408  -52.4135  -25.3476 C   0  0  0  0  0  0  0  0  0  0  0  0
   -2.2084  -52.1512  -26.6192 C   0  0  0  0  0  0  0  0  0  0  0  0
   -1.2182  -52.3864  -27.4862 N   0  0  0  0  0  0  0  0  0  0  0  0
   -1.1585  -52.3735  -28.8238 N   0  0  0  0  0  0  0  0  0  0  0  0
   -0.0768  -52.7544  -29.5136 C   0  0  0  0  0  0  0  0  0  0  0  0
    1.0012  -53.1773  -28.8176 N   0  0  0  0  0  0  0  0  0  0  0  0
    0.9842  -53.2014  -27.4503 C   0  0  0  0  0  0  0  0  0  0  0  0
   -0.1305  -52.7951  -26.8216 C   0  0  0  0  0  0  0  0  0  0  0  0
    2.2058  -53.5771  -26.7428 N   0  0  0  0  0  0  0  0  0  0  0  0
    2.5163  -54.4700  -26.5279 H   0  0  0  0  0  0  0  0  0  0  0  0
    2.8715  -52.3362  -26.3917 C   0  0  0  0  0  0  0  0  0  0  0  0
    2.7152  -51.0755  -26.7339 C   0  0  0  0  0  0  0  0  0  0  0  0
    3.3369  -50.0271  -26.0401 C   0  0  0  0  0  0  0  0  0  0  0  0
    4.1594  -50.2847  -24.9407 C   0  0  0  0  0  0  0  0  0  0  0  0
    4.8538  -49.5512  -24.0778 N   0  0  0  0  0  0  0  0  0  0  0  0
    5.4599  -50.4026  -23.1761 N   0  0  0  0  0  0  0  0  0  0  0  0
    5.1419  -51.6398  -23.4817 C   0  0  0  0  0  0  0  0  0  0  0  0
    4.3174  -51.6010  -24.5924 C   0  0  0  0  0  0  0  0  0  0  0  0
    3.7207  -52.5919  -25.2631 C   0  0  0  0  0  0  0  0  0  0  0  0
    5.0496  -48.1624  -23.9643 C   0  0  0  0  0  0  0  0  0  0  0  0
    3.7470  -47.3979  -23.7745 C   0  0  0  0  0  0  0  0  0  0  0  0
    3.2772  -47.7577  -22.3831 C   0  0  0  0  0  0  0  0  0  0  0  0
    4.0233  -47.2803  -21.3278 C   0  0  0  0  0  0  0  0  0  0  0  0
    3.5172  -47.4313  -20.0370 C   0  0  0  0  0  0  0  0  0  0  0  0
    2.2970  -48.0488  -19.8659 C   0  0  0  0  0  0  0  0  0  0  0  0
    1.5568  -48.5241  -20.8990 C   0  0  0  0  0  0  0  0  0  0  0  0
    2.0676  -48.3715  -22.1856 C   0  0  0  0  0  0  0  0  0  0  0  0
    0.5006  -53.3087  -24.4252 C   0  0  0  0  0  0  0  0  0  0  0  0
   -0.7210  -53.3139  -19.2090 N   0  0  0  0  0  0  0  0  0  0  0  0
    0.0917  -53.0949  -20.3828 C   0  0  0  0  0  0  0  0  0  0  0  0
   -0.2125  -51.8056  -21.0667 C   0  0  0  0  0  0  0  0  0  0  0  0
    0.3253  -51.7760  -22.5051 C   0  0  0  0  0  0  0  0  0  0  0  0
    0.0021  -52.9381  -23.1919 N   0  0  0  0  0  0  0  0  0  0  0  0
   -0.8549  -53.7931  -22.4893 C   0  0  0  0  0  0  0  0  0  0  0  0
   -0.0679  -54.3192  -21.2589 C   0  0  0  0  0  0  0  0  0  0  0  0
   -1.1783  -54.2603  -19.2233 H   0  0  0  0  0  0  0  0  0  0  0  0
   -1.3656  -52.5487  -19.0044 H   0  0  0  0  0  0  0  0  0  0  0  0
 30 31  1  0  0  0
 31 32  1  0  0  0
 32 33  1  0  0  0
 33 34  1  0  0  0
 34 29  1  0  0  0
 29  1  1  0  0  0
  1  2  1  0  0  0
  2  3  2  0  0  0
  3  4  1  0  0  0
  4  5  1  0  0  0
  5  6  2  0  0  0
  6  7  1  0  0  0
  7  8  2  0  0  0
  8 10  1  0  0  0
 10 12  1  0  0  0
 12 13  2  0  0  0
 13 14  1  0  0  0
 14 15  2  0  0  0
 15 16  1  0  0  0
 16 21  1  0  0  0
 21 22  1  0  0  0
 22 23  1  0  0  0
 23 24  2  0  0  0
 24 25  1  0  0  0
 25 26  2  0  0  0
 26 27  1  0  0  0
 27 28  2  0  0  0
 16 17  1  0  0  0
 17 18  2  0  0  0
 18 19  1  0  0  0
 19 20  2  0  0  0
  8  9  1  0  0  0
 34 35  1  0  0  0
 35 36  1  0  0  0
 36 31  1  0  0  0
  9  1  2  0  0  0
  9  4  1  0  0  0
 20 12  1  0  0  0
 19 15  1  0  0  0
 28 23  1  0  0  0
 30 37  1  0  0  0
 30 38  1  0  0  0
 10 11  1  0  0  0
M  END
> <minimizedAffinity>
-8.67231

> <CNNscore>
0.1254080236

> <CNNaffinity>
6.8859376907

> <CNN_VS>
0.8635518551

> <CNNaffinity_variance>
0.3215038776

$$$$
[H]c1nc(N([H])c2c([H])c([H])c(Oc3c([H])c([H])c([H])c(C(F)(F)F)c3[H])c(Cl)c2[H])c2sc(-c3c([H])c([H])c([H])c(C([H])([H])C(=O)N(C([H])([H])[H])C([H])([H])C([H])([H])N([H])C([H])([H])[H])c3[H])c([H])c2n1


 45 49  0  0  0  0  0  0  0  0999 V2000
   -0.4390  -52.6429  -20.1917 C   0  0  0  0  0  0  0  0  0  0  0  0
   -0.8794  -53.8693  -20.6125 C   0  0  0  0  0  0  0  0  0  0  0  0
   -0.8468  -54.1226  -21.9315 C   0  0  0  0  0  0  0  0  0  0  0  0
   -1.2406  -55.2597  -22.5910 N   0  0  0  0  0  0  0  0  0  0  0  0
   -1.1745  -55.3965  -23.9063 C   0  0  0  0  0  0  0  0  0  0  0  0
   -0.7132  -54.4279  -24.7291 N   0  0  0  0  0  0  0  0  0  0  0  0
   -0.3073  -53.2859  -24.1402 C   0  0  0  0  0  0  0  0  0  0  0  0
   -0.3713  -53.1304  -22.7535 C   0  0  0  0  0  0  0  0  0  0  0  0
    0.0130  -51.8754  -21.6386 S   0  0  0  0  0  0  0  0  0  0  0  0
    0.7670  -50.8086  -17.1579 C   0  0  0  0  0  0  0  0  0  0  0  0
   -0.0475  -51.3421  -16.1948 C   0  0  0  0  0  0  0  0  0  0  0  0
   -0.9984  -52.2833  -16.5421 C   0  0  0  0  0  0  0  0  0  0  0  0
   -1.1412  -52.6960  -17.8593 C   0  0  0  0  0  0  0  0  0  0  0  0
   -0.3358  -52.1654  -18.8152 C   0  0  0  0  0  0  0  0  0  0  0  0
    0.5993  -51.2371  -18.4679 C   0  0  0  0  0  0  0  0  0  0  0  0
    1.8911  -49.9267  -16.8287 C   0  0  0  0  0  0  0  0  0  0  0  0
    3.1285  -50.4280  -14.6580 N   0  0  0  0  0  0  0  0  0  0  0  0
    2.2444  -49.5487  -13.9253 C   0  0  0  0  0  0  0  0  0  0  0  0
    2.9615  -50.5952  -16.0303 C   0  0  0  0  0  0  0  0  0  0  0  0
    3.7404  -51.3350  -16.6502 O   0  0  0  0  0  0  0  0  0  0  0  0
    4.1309  -51.1226  -13.9046 C   0  0  0  0  0  0  0  0  0  0  0  0
    3.7217  -52.4624  -13.3749 C   0  0  0  0  0  0  0  0  0  0  0  0
    4.0398  -54.0008  -11.5072 C   0  0  0  0  0  0  0  0  0  0  0  0
    4.2526  -52.7303  -12.0949 N   0  0  0  0  0  0  0  0  0  0  0  0
    5.2526  -52.3579  -12.0406 H   0  0  0  0  0  0  0  0  0  0  0  0
    0.2014  -52.1840  -24.8841 N   0  0  0  0  0  0  0  0  0  0  0  0
   -0.3684  -51.5607  -25.4673 H   0  0  0  0  0  0  0  0  0  0  0  0
    1.6149  -51.9547  -24.7712 C   0  0  0  0  0  0  0  0  0  0  0  0
    2.6088  -52.8717  -24.7570 C   0  0  0  0  0  0  0  0  0  0  0  0
    3.9523  -52.4561  -24.6944 C   0  0  0  0  0  0  0  0  0  0  0  0
    4.3152  -51.1303  -24.6424 C   0  0  0  0  0  0  0  0  0  0  0  0
    3.2701  -50.1876  -24.6570 C   0  0  0  0  0  0  0  0  0  0  0  0
    3.6635  -48.4580  -24.6099 Cl  0  0  0  0  0  0  0  0  0  0  0  0
    1.9824  -50.5915  -24.7169 C   0  0  0  0  0  0  0  0  0  0  0  0
    5.5741  -50.6502  -24.5737 O   0  0  0  0  0  0  0  0  0  0  0  0
    6.3702  -50.2185  -23.5925 C   0  0  0  0  0  0  0  0  0  0  0  0
    6.2291  -50.7125  -22.2968 C   0  0  0  0  0  0  0  0  0  0  0  0
    7.0036  -50.3032  -21.2493 C   0  0  0  0  0  0  0  0  0  0  0  0
    7.9758  -49.3628  -21.4530 C   0  0  0  0  0  0  0  0  0  0  0  0
    8.1647  -48.8345  -22.7310 C   0  0  0  0  0  0  0  0  0  0  0  0
    7.3760  -49.2666  -23.7468 C   0  0  0  0  0  0  0  0  0  0  0  0
    9.2606  -47.8191  -22.8454 C   0  0  0  0  0  0  0  0  0  0  0  0
    9.8095  -47.9523  -24.0873 F   0  0  0  0  0  0  0  0  0  0  0  0
    8.8107  -46.5308  -22.7086 F   0  0  0  0  0  0  0  0  0  0  0  0
   10.2018  -48.0429  -21.8561 F   0  0  0  0  0  0  0  0  0  0  0  0
 23 24  1  0  0  0
 24 22  1  0  0  0
 22 21  1  0  0  0
 21 17  1  0  0  0
 17 18  1  0  0  0
 17 19  1  0  0  0
 19 20  2  0  0  0
 19 16  1  0  0  0
 16 10  1  0  0  0
 10 11  2  0  0  0
 11 12  1  0  0  0
 12 13  2  0  0  0
 13 14  1  0  0  0
 14 15  2  0  0  0
 14  1  1  0  0  0
  1  2  2  0  0  0
  2  3  1  0  0  0
  3  4  2  0  0  0
  4  5  1  0  0  0
  5  6  2  0  0  0
  6  7  1  0  0  0
  7 26  1  0  0  0
 26 28  1  0  0  0
 28 29  2  0  0  0
 29 30  1  0  0  0
 30 31  2  0  0  0
 31 35  1  0  0  0
 35 36  1  0  0  0
 36 37  2  0  0  0
 37 38  1  0  0  0
 38 39  2  0  0  0
 39 40  1  0  0  0
 40 41  2  0  0  0
 40 42  1  0  0  0
 42 43  1  0  0  0
 42 44  1  0  0  0
 42 45  1  0  0  0
 31 32  1  0  0  0
 32 33  1  0  0  0
 32 34  2  0  0  0
  7  8  2  0  0  0
  8  9  1  0  0  0
 15 10  1  0  0  0
  9  1  1  0  0  0
  8  3  1  0  0  0
 34 28  1  0  0  0
 41 36  1  0  0  0
 24 25  1  0  0  0
 26 27  1  0  0  0
M  END
> <minimizedAffinity>
-8.60047

> <CNNscore>
0.3569943905

> <CNNaffinity>
7.6532607079

> <CNN_VS>
2.7321710587

> <CNNaffinity_variance>
0.1483684778

$$$$
[H]c1nc(N([H])c2c([H])c([H])c(Oc3c([H])c([H])c([H])c(C(F)(F)F)c3[H])c(Cl)c2[H])c2sc(-c3c([H])c([H])c([H])c(C([H])([H])C(=O)N(C([H])([H])[H])C([H])([H])C([H])([H])N([H])C([H])([H])[H])c3[H])c([H])c2n1


 45 49  0  0  0  0  0  0  0  0999 V2000
   -0.4213  -52.5303  -19.8728 C   0  0  0  0  0  0  0  0  0  0  0  0
   -0.9032  -53.7362  -20.3073 C   0  0  0  0  0  0  0  0  0  0  0  0
   -0.8991  -53.9669  -21.6308 C   0  0  0  0  0  0  0  0  0  0  0  0
   -1.3357  -55.0806  -22.3032 N   0  0  0  0  0  0  0  0  0  0  0  0
   -1.2948  -55.1959  -23.6216 C   0  0  0  0  0  0  0  0  0  0  0  0
   -0.8195  -54.2263  -24.4351 N   0  0  0  0  0  0  0  0  0  0  0  0
   -0.3718  -53.1067  -23.8335 C   0  0  0  0  0  0  0  0  0  0  0  0
   -0.4090  -52.9740  -22.4434 C   0  0  0  0  0  0  0  0  0  0  0  0
    0.0288  -51.7503  -21.3135 S   0  0  0  0  0  0  0  0  0  0  0  0
    0.9697  -50.9132  -16.7950 C   0  0  0  0  0  0  0  0  0  0  0  0
    0.0600  -51.3223  -15.8566 C   0  0  0  0  0  0  0  0  0  0  0  0
   -1.0126  -52.1078  -16.2350 C   0  0  0  0  0  0  0  0  0  0  0  0
   -1.1825  -52.4880  -17.5588 C   0  0  0  0  0  0  0  0  0  0  0  0
   -0.2824  -52.0803  -18.4902 C   0  0  0  0  0  0  0  0  0  0  0  0
    0.7727  -51.3052  -18.1123 C   0  0  0  0  0  0  0  0  0  0  0  0
    2.2051  -50.2123  -16.4309 C   0  0  0  0  0  0  0  0  0  0  0  0
    3.5733  -48.9675  -18.1838 N   0  0  0  0  0  0  0  0  0  0  0  0
    2.9656  -47.7128  -17.7988 C   0  0  0  0  0  0  0  0  0  0  0  0
    3.2032  -50.1452  -17.5397 C   0  0  0  0  0  0  0  0  0  0  0  0
    3.7159  -51.2174  -17.8947 O   0  0  0  0  0  0  0  0  0  0  0  0
    4.5736  -48.9214  -19.2095 C   0  0  0  0  0  0  0  0  0  0  0  0
    4.1142  -48.3847  -20.5301 C   0  0  0  0  0  0  0  0  0  0  0  0
    1.8165  -48.3763  -21.3523 C   0  0  0  0  0  0  0  0  0  0  0  0
    3.0042  -49.0848  -21.0493 N   0  0  0  0  0  0  0  0  0  0  0  0
    3.3363  -49.7713  -21.7977 H   0  0  0  0  0  0  0  0  0  0  0  0
    0.1559  -52.0066  -24.5666 N   0  0  0  0  0  0  0  0  0  0  0  0
   -0.4102  -51.3254  -25.0852 H   0  0  0  0  0  0  0  0  0  0  0  0
    1.5854  -51.8681  -24.5407 C   0  0  0  0  0  0  0  0  0  0  0  0
    2.5181  -52.8449  -24.6110 C   0  0  0  0  0  0  0  0  0  0  0  0
    3.8866  -52.5150  -24.6267 C   0  0  0  0  0  0  0  0  0  0  0  0
    4.3352  -51.2159  -24.5695 C   0  0  0  0  0  0  0  0  0  0  0  0
    3.3532  -50.2103  -24.4957 C   0  0  0  0  0  0  0  0  0  0  0  0
    3.8576  -48.5101  -24.4366 Cl  0  0  0  0  0  0  0  0  0  0  0  0
    2.0413  -50.5321  -24.4807 C   0  0  0  0  0  0  0  0  0  0  0  0
    5.6239  -50.8166  -24.5723 O   0  0  0  0  0  0  0  0  0  0  0  0
    6.4592  -50.3083  -23.6629 C   0  0  0  0  0  0  0  0  0  0  0  0
    6.4103  -50.7379  -22.3379 C   0  0  0  0  0  0  0  0  0  0  0  0
    7.2286  -50.2492  -21.3600 C   0  0  0  0  0  0  0  0  0  0  0  0
    8.1536  -49.2899  -21.6681 C   0  0  0  0  0  0  0  0  0  0  0  0
    8.2500  -48.8235  -22.9801 C   0  0  0  0  0  0  0  0  0  0  0  0
    7.4201  -49.3337  -23.9244 C   0  0  0  0  0  0  0  0  0  0  0  0
    9.3009  -47.7806  -23.2103 C   0  0  0  0  0  0  0  0  0  0  0  0
    8.6718  -46.5704  -23.2428 F   0  0  0  0  0  0  0  0  0  0  0  0
   10.2469  -47.7483  -22.2178 F   0  0  0  0  0  0  0  0  0  0  0  0
    9.9524  -48.0378  -24.4036 F   0  0  0  0  0  0  0  0  0  0  0  0
 23 24  1  0  0  0
 24 22  1  0  0  0
 22 21  1  0  0  0
 21 17  1  0  0  0
 17 18  1  0  0  0
 17 19  1  0  0  0
 19 20  2  0  0  0
 19 16  1  0  0  0
 16 10  1  0  0  0
 10 11  2  0  0  0
 11 12  1  0  0  0
 12 13  2  0  0  0
 13 14  1  0  0  0
 14 15  2  0  0  0
 14  1  1  0  0  0
  1  2  2  0  0  0
  2  3  1  0  0  0
  3  4  2  0  0  0
  4  5  1  0  0  0
  5  6  2  0  0  0
  6  7  1  0  0  0
  7 26  1  0  0  0
 26 28  1  0  0  0
 28 29  2  0  0  0
 29 30  1  0  0  0
 30 31  2  0  0  0
 31 35  1  0  0  0
 35 36  1  0  0  0
 36 37  2  0  0  0
 37 38  1  0  0  0
 38 39  2  0  0  0
 39 40  1  0  0  0
 40 41  2  0  0  0
 40 42  1  0  0  0
 42 43  1  0  0  0
 42 44  1  0  0  0
 42 45  1  0  0  0
 31 32  1  0  0  0
 32 33  1  0  0  0
 32 34  2  0  0  0
  7  8  2  0  0  0
  8  9  1  0  0  0
 15 10  1  0  0  0
  9  1  1  0  0  0
  8  3  1  0  0  0
 34 28  1  0  0  0
 41 36  1  0  0  0
 24 25  1  0  0  0
 26 27  1  0  0  0
M  END
> <minimizedAffinity>
-7.97739

> <CNNscore>
0.2815591693

> <CNNaffinity>
7.3940262794

> <CNN_VS>
2.0818560123

> <CNNaffinity_variance>
0.5238958597

$$$$
[H]c1nc(N([H])c2c([H])c([H])c(Oc3c([H])c([H])c([H])c(C(F)(F)F)c3[H])c(Cl)c2[H])c2sc(-c3c([H])c([H])c([H])c(C([H])([H])C(=O)N(C([H])([H])[H])C([H])([H])C([H])([H])N([H])C([H])([H])[H])c3[H])c([H])c2n1


 45 49  0  0  0  0  0  0  0  0999 V2000
   -0.5459  -52.6197  -20.0219 C   0  0  0  0  0  0  0  0  0  0  0  0
   -1.0454  -53.7991  -20.5062 C   0  0  0  0  0  0  0  0  0  0  0  0
   -0.9174  -54.0344  -21.8228 C   0  0  0  0  0  0  0  0  0  0  0  0
   -1.3423  -55.1251  -22.5389 N   0  0  0  0  0  0  0  0  0  0  0  0
   -1.1721  -55.2472  -23.8463 C   0  0  0  0  0  0  0  0  0  0  0  0
   -0.5633  -54.3078  -24.6044 N   0  0  0  0  0  0  0  0  0  0  0  0
   -0.1198  -53.2120  -23.9575 C   0  0  0  0  0  0  0  0  0  0  0  0
   -0.2928  -53.0726  -22.5784 C   0  0  0  0  0  0  0  0  0  0  0  0
    0.0922  -51.8705  -21.4069 S   0  0  0  0  0  0  0  0  0  0  0  0
    0.4441  -50.8169  -16.8925 C   0  0  0  0  0  0  0  0  0  0  0  0
   -0.3929  -51.4048  -15.9820 C   0  0  0  0  0  0  0  0  0  0  0  0
   -1.2888  -52.3727  -16.3957 C   0  0  0  0  0  0  0  0  0  0  0  0
   -1.3537  -52.7576  -17.7274 C   0  0  0  0  0  0  0  0  0  0  0  0
   -0.5260  -52.1730  -18.6314 C   0  0  0  0  0  0  0  0  0  0  0  0
    0.3547  -51.2187  -18.2186 C   0  0  0  0  0  0  0  0  0  0  0  0
    1.5161  -49.9011  -16.4899 C   0  0  0  0  0  0  0  0  0  0  0  0
    2.3758  -50.1536  -14.1042 N   0  0  0  0  0  0  0  0  0  0  0  0
    1.3942  -49.2048  -13.6268 C   0  0  0  0  0  0  0  0  0  0  0  0
    2.4335  -50.4713  -15.4587 C   0  0  0  0  0  0  0  0  0  0  0  0
    3.2945  -51.2698  -15.8581 O   0  0  0  0  0  0  0  0  0  0  0  0
    3.2330  -50.7552  -13.1254 C   0  0  0  0  0  0  0  0  0  0  0  0
    2.5918  -51.8021  -12.2676 C   0  0  0  0  0  0  0  0  0  0  0  0
    4.5036  -53.2124  -12.8261 C   0  0  0  0  0  0  0  0  0  0  0  0
    3.1386  -53.0871  -12.4715 N   0  0  0  0  0  0  0  0  0  0  0  0
    2.7999  -53.7434  -11.6993 H   0  0  0  0  0  0  0  0  0  0  0  0
    0.5398  -52.1449  -24.6300 N   0  0  0  0  0  0  0  0  0  0  0  0
    0.0993  -51.5328  -25.3262 H   0  0  0  0  0  0  0  0  0  0  0  0
    1.9140  -51.9348  -24.2687 C   0  0  0  0  0  0  0  0  0  0  0  0
    2.9417  -52.8095  -24.3576 C   0  0  0  0  0  0  0  0  0  0  0  0
    4.2439  -52.4074  -24.0054 C   0  0  0  0  0  0  0  0  0  0  0  0
    4.5317  -51.1378  -23.5610 C   0  0  0  0  0  0  0  0  0  0  0  0
    3.4522  -50.2388  -23.4729 C   0  0  0  0  0  0  0  0  0  0  0  0
    3.7511  -48.5782  -22.9240 Cl  0  0  0  0  0  0  0  0  0  0  0  0
    2.2043  -50.6296  -23.8118 C   0  0  0  0  0  0  0  0  0  0  0  0
    5.7463  -50.6762  -23.1980 O   0  0  0  0  0  0  0  0  0  0  0  0
    6.6942  -49.9421  -23.7858 C   0  0  0  0  0  0  0  0  0  0  0  0
    7.7667  -49.4464  -23.0464 C   0  0  0  0  0  0  0  0  0  0  0  0
    8.7604  -48.6812  -23.5864 C   0  0  0  0  0  0  0  0  0  0  0  0
    8.7280  -48.3708  -24.9181 C   0  0  0  0  0  0  0  0  0  0  0  0
    7.6791  -48.8424  -25.7090 C   0  0  0  0  0  0  0  0  0  0  0  0
    6.7104  -49.6006  -25.1366 C   0  0  0  0  0  0  0  0  0  0  0  0
    7.7451  -48.4522  -27.1541 C   0  0  0  0  0  0  0  0  0  0  0  0
    8.3003  -47.2074  -27.2137 F   0  0  0  0  0  0  0  0  0  0  0  0
    8.5162  -49.3046  -27.9022 F   0  0  0  0  0  0  0  0  0  0  0  0
    6.4702  -48.4573  -27.6919 F   0  0  0  0  0  0  0  0  0  0  0  0
 23 24  1  0  0  0
 24 22  1  0  0  0
 22 21  1  0  0  0
 21 17  1  0  0  0
 17 18  1  0  0  0
 17 19  1  0  0  0
 19 20  2  0  0  0
 19 16  1  0  0  0
 16 10  1  0  0  0
 10 11  2  0  0  0
 11 12  1  0  0  0
 12 13  2  0  0  0
 13 14  1  0  0  0
 14 15  2  0  0  0
 14  1  1  0  0  0
  1  2  2  0  0  0
  2  3  1  0  0  0
  3  4  2  0  0  0
  4  5  1  0  0  0
  5  6  2  0  0  0
  6  7  1  0  0  0
  7 26  1  0  0  0
 26 28  1  0  0  0
 28 29  2  0  0  0
 29 30  1  0  0  0
 30 31  2  0  0  0
 31 35  1  0  0  0
 35 36  1  0  0  0
 36 37  2  0  0  0
 37 38  1  0  0  0
 38 39  2  0  0  0
 39 40  1  0  0  0
 40 41  2  0  0  0
 40 42  1  0  0  0
 42 43  1  0  0  0
 42 44  1  0  0  0
 42 45  1  0  0  0
 31 32  1  0  0  0
 32 33  1  0  0  0
 32 34  2  0  0  0
  7  8  2  0  0  0
  8  9  1  0  0  0
 15 10  1  0  0  0
  9  1  1  0  0  0
  8  3  1  0  0  0
 34 28  1  0  0  0
 41 36  1  0  0  0
 24 25  1  0  0  0
 26 27  1  0  0  0
M  END
> <minimizedAffinity>
-8.05816

> <CNNscore>
0.2435160577

> <CNNaffinity>
7.4313430786

> <CNN_VS>
1.8096513748

> <CNNaffinity_variance>
0.1079736352

$$$$
[H]c1nc(N([H])c2c([H])c([H])c(Oc3c([H])c([H])c([H])c(C(F)(F)F)c3[H])c(Cl)c2[H])c2sc(-c3c([H])c([H])c([H])c(C([H])([H])C(=O)N(C([H])([H])[H])C([H])([H])C([H])([H])N([H])C([H])([H])[H])c3[H])c([H])c2n1


 45 49  0  0  0  0  0  0  0  0999 V2000
   -0.4746  -52.8148  -20.5183 C   0  0  0  0  0  0  0  0  0  0  0  0
   -0.9112  -54.0543  -20.9032 C   0  0  0  0  0  0  0  0  0  0  0  0
   -0.8552  -54.3546  -22.2116 C   0  0  0  0  0  0  0  0  0  0  0  0
   -1.2406  -55.5135  -22.8373 N   0  0  0  0  0  0  0  0  0  0  0  0
   -1.1508  -55.6973  -24.1454 C   0  0  0  0  0  0  0  0  0  0  0  0
   -0.6714  -54.7599  -24.9935 N   0  0  0  0  0  0  0  0  0  0  0  0
   -0.2727  -53.5986  -24.4384 C   0  0  0  0  0  0  0  0  0  0  0  0
   -0.3616  -53.3935  -23.0595 C   0  0  0  0  0  0  0  0  0  0  0  0
    0.0062  -52.1006  -21.9831 S   0  0  0  0  0  0  0  0  0  0  0  0
    0.6489  -50.8374  -17.5433 C   0  0  0  0  0  0  0  0  0  0  0  0
   -0.1487  -51.3694  -16.5655 C   0  0  0  0  0  0  0  0  0  0  0  0
   -1.0619  -52.3570  -16.8842 C   0  0  0  0  0  0  0  0  0  0  0  0
   -1.1837  -52.8179  -18.1875 C   0  0  0  0  0  0  0  0  0  0  0  0
   -0.3951  -52.2888  -19.1581 C   0  0  0  0  0  0  0  0  0  0  0  0
    0.5028  -51.3148  -18.8390 C   0  0  0  0  0  0  0  0  0  0  0  0
    1.7375  -49.9031  -17.2402 C   0  0  0  0  0  0  0  0  0  0  0  0
    2.8553  -50.0967  -14.9583 N   0  0  0  0  0  0  0  0  0  0  0  0
    1.9469  -49.1163  -14.4058 C   0  0  0  0  0  0  0  0  0  0  0  0
    2.7564  -50.4573  -16.2996 C   0  0  0  0  0  0  0  0  0  0  0  0
    3.5559  -51.2830  -16.7660 O   0  0  0  0  0  0  0  0  0  0  0  0
    3.8081  -50.6828  -14.0619 C   0  0  0  0  0  0  0  0  0  0  0  0
    3.2236  -51.4516  -12.9172 C   0  0  0  0  0  0  0  0  0  0  0  0
    4.4832  -53.4735  -12.3866 C   0  0  0  0  0  0  0  0  0  0  0  0
    3.3997  -52.8459  -13.0476 N   0  0  0  0  0  0  0  0  0  0  0  0
    2.4540  -53.3335  -12.9499 H   0  0  0  0  0  0  0  0  0  0  0  0
    0.2531  -52.5253  -25.2115 N   0  0  0  0  0  0  0  0  0  0  0  0
   -0.2725  -52.0080  -25.9254 H   0  0  0  0  0  0  0  0  0  0  0  0
    1.6144  -52.1630  -24.9310 C   0  0  0  0  0  0  0  0  0  0  0  0
    2.6665  -52.9841  -24.7119 C   0  0  0  0  0  0  0  0  0  0  0  0
    3.9510  -52.4465  -24.5052 C   0  0  0  0  0  0  0  0  0  0  0  0
    4.1966  -51.0930  -24.5120 C   0  0  0  0  0  0  0  0  0  0  0  0
    3.0920  -50.2510  -24.7404 C   0  0  0  0  0  0  0  0  0  0  0  0
    3.3364  -48.4940  -24.7802 Cl  0  0  0  0  0  0  0  0  0  0  0  0
    1.8614  -50.7718  -24.9379 C   0  0  0  0  0  0  0  0  0  0  0  0
    5.3916  -50.4985  -24.3158 O   0  0  0  0  0  0  0  0  0  0  0  0
    6.0839  -50.0950  -23.2476 C   0  0  0  0  0  0  0  0  0  0  0  0
    7.4772  -50.1323  -23.2510 C   0  0  0  0  0  0  0  0  0  0  0  0
    8.2407  -49.7446  -22.1874 C   0  0  0  0  0  0  0  0  0  0  0  0
    7.6344  -49.2912  -21.0482 C   0  0  0  0  0  0  0  0  0  0  0  0
    6.2413  -49.2292  -20.9885 C   0  0  0  0  0  0  0  0  0  0  0  0
    5.5166  -49.6223  -22.0660 C   0  0  0  0  0  0  0  0  0  0  0  0
    5.6810  -48.7099  -19.6995 C   0  0  0  0  0  0  0  0  0  0  0  0
    5.0420  -49.7481  -19.0870 F   0  0  0  0  0  0  0  0  0  0  0  0
    6.6479  -48.2369  -18.8496 F   0  0  0  0  0  0  0  0  0  0  0  0
    4.8071  -47.6698  -19.9623 F   0  0  0  0  0  0  0  0  0  0  0  0
 23 24  1  0  0  0
 24 22  1  0  0  0
 22 21  1  0  0  0
 21 17  1  0  0  0
 17 18  1  0  0  0
 17 19  1  0  0  0
 19 20  2  0  0  0
 19 16  1  0  0  0
 16 10  1  0  0  0
 10 11  2  0  0  0
 11 12  1  0  0  0
 12 13  2  0  0  0
 13 14  1  0  0  0
 14 15  2  0  0  0
 14  1  1  0  0  0
  1  2  2  0  0  0
  2  3  1  0  0  0
  3  4  2  0  0  0
  4  5  1  0  0  0
  5  6  2  0  0  0
  6  7  1  0  0  0
  7 26  1  0  0  0
 26 28  1  0  0  0
 28 29  2  0  0  0
 29 30  1  0  0  0
 30 31  2  0  0  0
 31 35  1  0  0  0
 35 36  1  0  0  0
 36 37  2  0  0  0
 37 38  1  0  0  0
 38 39  2  0  0  0
 39 40  1  0  0  0
 40 41  2  0  0  0
 40 42  1  0  0  0
 42 43  1  0  0  0
 42 44  1  0  0  0
 42 45  1  0  0  0
 31 32  1  0  0  0
 32 33  1  0  0  0
 32 34  2  0  0  0
  7  8  2  0  0  0
  8  9  1  0  0  0
 15 10  1  0  0  0
  9  1  1  0  0  0
  8  3  1  0  0  0
 34 28  1  0  0  0
 41 36  1  0  0  0
 24 25  1  0  0  0
 26 27  1  0  0  0
M  END
> <minimizedAffinity>
-8.40408

> <CNNscore>
0.2223084569

> <CNNaffinity>
7.6631059647

> <CNN_VS>
1.7035732269

> <CNNaffinity_variance>
0.2154240906

$$$$
[H]c1nc(N([H])c2c([H])c([H])c(Oc3c([H])c([H])c([H])c(C(F)(F)F)c3[H])c(Cl)c2[H])c2sc(-c3c([H])c([H])c([H])c(C([H])([H])C(=O)N(C([H])([H])[H])C([H])([H])C([H])([H])N([H])C([H])([H])[H])c3[H])c([H])c2n1


 45 49  0  0  0  0  0  0  0  0999 V2000
    0.0682  -52.2681  -20.0097 C   0  0  0  0  0  0  0  0  0  0  0  0
   -0.5393  -53.4685  -20.2649 C   0  0  0  0  0  0  0  0  0  0  0  0
   -0.6903  -53.8280  -21.5506 C   0  0  0  0  0  0  0  0  0  0  0  0
   -1.2715  -54.9640  -22.0553 N   0  0  0  0  0  0  0  0  0  0  0  0
   -1.3774  -55.2114  -23.3518 C   0  0  0  0  0  0  0  0  0  0  0  0
   -0.9239  -54.3678  -24.3059 N   0  0  0  0  0  0  0  0  0  0  0  0
   -0.3388  -53.2338  -23.8729 C   0  0  0  0  0  0  0  0  0  0  0  0
   -0.2204  -52.9623  -22.5077 C   0  0  0  0  0  0  0  0  0  0  0  0
    0.4177  -51.6723  -21.5620 S   0  0  0  0  0  0  0  0  0  0  0  0
    1.9620  -50.6616  -17.2069 C   0  0  0  0  0  0  0  0  0  0  0  0
    1.0337  -50.7225  -16.2020 C   0  0  0  0  0  0  0  0  0  0  0  0
   -0.2115  -51.2700  -16.4478 C   0  0  0  0  0  0  0  0  0  0  0  0
   -0.5364  -51.7595  -17.7051 C   0  0  0  0  0  0  0  0  0  0  0  0
    0.3825  -51.6968  -18.7028 C   0  0  0  0  0  0  0  0  0  0  0  0
    1.6083  -51.1553  -18.4556 C   0  0  0  0  0  0  0  0  0  0  0  0
    3.3446  -50.2363  -16.9677 C   0  0  0  0  0  0  0  0  0  0  0  0
    3.4405  -47.7398  -16.4654 N   0  0  0  0  0  0  0  0  0  0  0  0
    3.3217  -47.4297  -17.8730 C   0  0  0  0  0  0  0  0  0  0  0  0
    3.4594  -49.0673  -16.0456 C   0  0  0  0  0  0  0  0  0  0  0  0
    3.5840  -49.3195  -14.8376 O   0  0  0  0  0  0  0  0  0  0  0  0
    3.4985  -46.6337  -15.5554 C   0  0  0  0  0  0  0  0  0  0  0  0
    2.2290  -45.8517  -15.4144 C   0  0  0  0  0  0  0  0  0  0  0  0
    0.4978  -47.3081  -14.4992 C   0  0  0  0  0  0  0  0  0  0  0  0
    1.4459  -46.2722  -14.3182 N   0  0  0  0  0  0  0  0  0  0  0  0
    2.0657  -46.3595  -13.4522 H   0  0  0  0  0  0  0  0  0  0  0  0
    0.1843  -52.2569  -24.7664 N   0  0  0  0  0  0  0  0  0  0  0  0
   -0.3730  -51.7365  -25.4534 H   0  0  0  0  0  0  0  0  0  0  0  0
    1.5934  -52.0014  -24.6557 C   0  0  0  0  0  0  0  0  0  0  0  0
    2.5856  -52.8913  -24.4261 C   0  0  0  0  0  0  0  0  0  0  0  0
    3.9267  -52.4637  -24.4042 C   0  0  0  0  0  0  0  0  0  0  0  0
    4.2886  -51.1521  -24.6066 C   0  0  0  0  0  0  0  0  0  0  0  0
    3.2453  -50.2375  -24.8435 C   0  0  0  0  0  0  0  0  0  0  0  0
    3.6383  -48.5311  -25.1305 Cl  0  0  0  0  0  0  0  0  0  0  0  0
    1.9600  -50.6527  -24.8632 C   0  0  0  0  0  0  0  0  0  0  0  0
    5.5450  -50.6607  -24.5945 O   0  0  0  0  0  0  0  0  0  0  0  0
    6.3216  -50.0705  -23.6825 C   0  0  0  0  0  0  0  0  0  0  0  0
    7.6038  -49.6385  -24.0169 C   0  0  0  0  0  0  0  0  0  0  0  0
    8.4494  -49.0393  -23.1277 C   0  0  0  0  0  0  0  0  0  0  0  0
    8.0433  -48.8389  -21.8370 C   0  0  0  0  0  0  0  0  0  0  0  0
    6.7678  -49.2486  -21.4457 C   0  0  0  0  0  0  0  0  0  0  0  0
    5.9559  -49.8397  -22.3579 C   0  0  0  0  0  0  0  0  0  0  0  0
    6.4211  -48.9738  -20.0141 C   0  0  0  0  0  0  0  0  0  0  0  0
    7.5261  -49.2599  -19.2667 F   0  0  0  0  0  0  0  0  0  0  0  0
    6.0761  -47.6655  -19.7904 F   0  0  0  0  0  0  0  0  0  0  0  0
    5.3468  -49.7616  -19.6403 F   0  0  0  0  0  0  0  0  0  0  0  0
 23 24  1  0  0  0
 24 22  1  0  0  0
 22 21  1  0  0  0
 21 17  1  0  0  0
 17 18  1  0  0  0
 17 19  1  0  0  0
 19 20  2  0  0  0
 19 16  1  0  0  0
 16 10  1  0  0  0
 10 11  2  0  0  0
 11 12  1  0  0  0
 12 13  2  0  0  0
 13 14  1  0  0  0
 14 15  2  0  0  0
 14  1  1  0  0  0
  1  2  2  0  0  0
  2  3  1  0  0  0
  3  4  2  0  0  0
  4  5  1  0  0  0
  5  6  2  0  0  0
  6  7  1  0  0  0
  7 26  1  0  0  0
 26 28  1  0  0  0
 28 29  2  0  0  0
 29 30  1  0  0  0
 30 31  2  0  0  0
 31 35  1  0  0  0
 35 36  1  0  0  0
 36 37  2  0  0  0
 37 38  1  0  0  0
 38 39  2  0  0  0
 39 40  1  0  0  0
 40 41  2  0  0  0
 40 42  1  0  0  0
 42 43  1  0  0  0
 42 44  1  0  0  0
 42 45  1  0  0  0
 31 32  1  0  0  0
 32 33  1  0  0  0
 32 34  2  0  0  0
  7  8  2  0  0  0
  8  9  1  0  0  0
 15 10  1  0  0  0
  9  1  1  0  0  0
  8  3  1  0  0  0
 34 28  1  0  0  0
 41 36  1  0  0  0
 24 25  1  0  0  0
 26 27  1  0  0  0
M  END
> <minimizedAffinity>
-7.33673

> <CNNscore>
0.1363568753

> <CNNaffinity>
7.3423414230

> <CNN_VS>
1.0011787415

> <CNNaffinity_variance>
0.2638037503

$$$$
[H]c1nc(N([H])c2c([H])c([H])c(Oc3c([H])c([H])c([H])c(C(F)(F)F)c3[H])c(Cl)c2[H])c2sc(-c3c([H])c([H])c([H])c(C([H])([H])C(=O)N(C([H])([H])[H])C([H])([H])C([H])([H])N([H])C([H])([H])[H])c3[H])c([H])c2n1


 45 49  0  0  0  0  0  0  0  0999 V2000
   -0.2545  -52.4966  -20.0107 C   0  0  0  0  0  0  0  0  0  0  0  0
   -0.7674  -53.7052  -20.4000 C   0  0  0  0  0  0  0  0  0  0  0  0
   -0.8093  -53.9675  -21.7170 C   0  0  0  0  0  0  0  0  0  0  0  0
   -1.2834  -55.0902  -22.3477 N   0  0  0  0  0  0  0  0  0  0  0  0
   -1.2867  -55.2377  -23.6635 C   0  0  0  0  0  0  0  0  0  0  0  0
   -0.8241  -54.2951  -24.5152 N   0  0  0  0  0  0  0  0  0  0  0  0
   -0.3412  -53.1684  -23.9557 C   0  0  0  0  0  0  0  0  0  0  0  0
   -0.3315  -53.0019  -22.5688 C   0  0  0  0  0  0  0  0  0  0  0  0
    0.1600  -51.7583  -21.4837 S   0  0  0  0  0  0  0  0  0  0  0  0
    1.2749  -50.8581  -17.0108 C   0  0  0  0  0  0  0  0  0  0  0  0
    0.3708  -51.2024  -16.0415 C   0  0  0  0  0  0  0  0  0  0  0  0
   -0.7425  -51.9512  -16.3739 C   0  0  0  0  0  0  0  0  0  0  0  0
   -0.9591  -52.3594  -17.6825 C   0  0  0  0  0  0  0  0  0  0  0  0
   -0.0645  -52.0159  -18.6447 C   0  0  0  0  0  0  0  0  0  0  0  0
    1.0309  -51.2768  -18.3120 C   0  0  0  0  0  0  0  0  0  0  0  0
    2.5468  -50.2011  -16.6940 C   0  0  0  0  0  0  0  0  0  0  0  0
    3.3641  -48.3871  -18.2863 N   0  0  0  0  0  0  0  0  0  0  0  0
    4.1272  -49.3594  -19.0373 C   0  0  0  0  0  0  0  0  0  0  0  0
    2.6271  -48.7899  -17.1757 C   0  0  0  0  0  0  0  0  0  0  0  0
    1.9948  -47.9422  -16.5276 O   0  0  0  0  0  0  0  0  0  0  0  0
    3.3823  -47.0345  -18.7607 C   0  0  0  0  0  0  0  0  0  0  0  0
    4.6161  -46.2539  -18.4266 C   0  0  0  0  0  0  0  0  0  0  0  0
    6.1520  -46.3213  -20.3220 C   0  0  0  0  0  0  0  0  0  0  0  0
    5.1879  -45.6252  -19.5535 N   0  0  0  0  0  0  0  0  0  0  0  0
    4.4217  -45.1314  -20.1110 H   0  0  0  0  0  0  0  0  0  0  0  0
    0.1783  -52.0942  -24.7320 N   0  0  0  0  0  0  0  0  0  0  0  0
   -0.3877  -51.4720  -25.3201 H   0  0  0  0  0  0  0  0  0  0  0  0
    1.5978  -51.8924  -24.6461 C   0  0  0  0  0  0  0  0  0  0  0  0
    2.5743  -52.8281  -24.6566 C   0  0  0  0  0  0  0  0  0  0  0  0
    3.9264  -52.4384  -24.6187 C   0  0  0  0  0  0  0  0  0  0  0  0
    4.3154  -51.1199  -24.5671 C   0  0  0  0  0  0  0  0  0  0  0  0
    3.2884  -50.1576  -24.5559 C   0  0  0  0  0  0  0  0  0  0  0  0
    3.7155  -48.4360  -24.5077 Cl  0  0  0  0  0  0  0  0  0  0  0  0
    1.9923  -50.5366  -24.5922 C   0  0  0  0  0  0  0  0  0  0  0  0
    5.5844  -50.6642  -24.5212 O   0  0  0  0  0  0  0  0  0  0  0  0
    6.3968  -50.2218  -23.5582 C   0  0  0  0  0  0  0  0  0  0  0  0
    6.2885  -50.7137  -22.2586 C   0  0  0  0  0  0  0  0  0  0  0  0
    7.0810  -50.2938  -21.2290 C   0  0  0  0  0  0  0  0  0  0  0  0
    8.0391  -49.3443  -21.4558 C   0  0  0  0  0  0  0  0  0  0  0  0
    8.1952  -48.8175  -22.7388 C   0  0  0  0  0  0  0  0  0  0  0  0
    7.3894  -49.2603  -23.7365 C   0  0  0  0  0  0  0  0  0  0  0  0
    9.2782  -47.7915  -22.8791 C   0  0  0  0  0  0  0  0  0  0  0  0
   10.1624  -47.9924  -21.8598 F   0  0  0  0  0  0  0  0  0  0  0  0
    9.9580  -47.8923  -24.0659 F   0  0  0  0  0  0  0  0  0  0  0  0
    8.7243  -46.5250  -22.8183 F   0  0  0  0  0  0  0  0  0  0  0  0
 23 24  1  0  0  0
 24 22  1  0  0  0
 22 21  1  0  0  0
 21 17  1  0  0  0
 17 18  1  0  0  0
 17 19  1  0  0  0
 19 20  2  0  0  0
 19 16  1  0  0  0
 16 10  1  0  0  0
 10 11  2  0  0  0
 11 12  1  0  0  0
 12 13  2  0  0  0
 13 14  1  0  0  0
 14 15  2  0  0  0
 14  1  1  0  0  0
  1  2  2  0  0  0
  2  3  1  0  0  0
  3  4  2  0  0  0
  4  5  1  0  0  0
  5  6  2  0  0  0
  6  7  1  0  0  0
  7 26  1  0  0  0
 26 28  1  0  0  0
 28 29  2  0  0  0
 29 30  1  0  0  0
 30 31  2  0  0  0
 31 35  1  0  0  0
 35 36  1  0  0  0
 36 37  2  0  0  0
 37 38  1  0  0  0
 38 39  2  0  0  0
 39 40  1  0  0  0
 40 41  2  0  0  0
 40 42  1  0  0  0
 42 43  1  0  0  0
 42 44  1  0  0  0
 42 45  1  0  0  0
 31 32  1  0  0  0
 32 33  1  0  0  0
 32 34  2  0  0  0
  7  8  2  0  0  0
  8  9  1  0  0  0
 15 10  1  0  0  0
  9  1  1  0  0  0
  8  3  1  0  0  0
 34 28  1  0  0  0
 41 36  1  0  0  0
 24 25  1  0  0  0
 26 27  1  0  0  0
M  END
> <minimizedAffinity>
-7.54881

> <CNNscore>
0.1321670711

> <CNNaffinity>
7.1759614944

> <CNN_VS>
0.9484258294

> <CNNaffinity_variance>
0.4011960030

$$$$
[H]c1nc(N([H])c2c([H])c([H])c(Oc3c([H])c([H])c([H])c(C(F)(F)F)c3[H])c(Cl)c2[H])c2sc(-c3c([H])c([H])c([H])c(C([H])([H])C(=O)N(C([H])([H])[H])C([H])([H])C([H])([H])N([H])C([H])([H])[H])c3[H])c([H])c2n1


 45 49  0  0  0  0  0  0  0  0999 V2000
    2.6996  -50.7606  -26.1252 C   0  0  0  0  0  0  0  0  0  0  0  0
    2.8279  -51.8880  -26.8918 C   0  0  0  0  0  0  0  0  0  0  0  0
    1.8506  -52.8067  -26.8147 C   0  0  0  0  0  0  0  0  0  0  0  0
    1.7582  -54.0097  -27.4685 N   0  0  0  0  0  0  0  0  0  0  0  0
    0.7470  -54.8489  -27.3064 C   0  0  0  0  0  0  0  0  0  0  0  0
   -0.2938  -54.6030  -26.4794 N   0  0  0  0  0  0  0  0  0  0  0  0
   -0.2629  -53.4339  -25.8100 C   0  0  0  0  0  0  0  0  0  0  0  0
    0.7981  -52.5401  -25.9736 C   0  0  0  0  0  0  0  0  0  0  0  0
    1.2229  -51.0042  -25.3209 S   0  0  0  0  0  0  0  0  0  0  0  0
    4.7560  -47.9164  -24.8197 C   0  0  0  0  0  0  0  0  0  0  0  0
    5.2122  -47.3711  -25.9901 C   0  0  0  0  0  0  0  0  0  0  0  0
    4.8625  -47.9443  -27.1984 C   0  0  0  0  0  0  0  0  0  0  0  0
    4.0533  -49.0708  -27.2423 C   0  0  0  0  0  0  0  0  0  0  0  0
    3.6030  -49.6137  -26.0819 C   0  0  0  0  0  0  0  0  0  0  0  0
    3.9514  -49.0456  -24.8934 C   0  0  0  0  0  0  0  0  0  0  0  0
    4.9645  -47.2662  -23.5222 C   0  0  0  0  0  0  0  0  0  0  0  0
    6.7429  -47.1758  -21.6991 N   0  0  0  0  0  0  0  0  0  0  0  0
    6.3247  -45.8423  -21.3268 C   0  0  0  0  0  0  0  0  0  0  0  0
    6.1020  -47.8390  -22.7423 C   0  0  0  0  0  0  0  0  0  0  0  0
    6.4852  -48.9735  -23.0659 O   0  0  0  0  0  0  0  0  0  0  0  0
    7.7977  -47.7684  -20.9302 C   0  0  0  0  0  0  0  0  0  0  0  0
    7.5416  -47.8657  -19.4578 C   0  0  0  0  0  0  0  0  0  0  0  0
    9.5888  -49.0182  -18.7969 C   0  0  0  0  0  0  0  0  0  0  0  0
    8.1751  -48.9787  -18.8645 N   0  0  0  0  0  0  0  0  0  0  0  0
    7.6621  -49.2408  -17.9646 H   0  0  0  0  0  0  0  0  0  0  0  0
   -1.2925  -53.0452  -24.9072 N   0  0  0  0  0  0  0  0  0  0  0  0
   -2.2062  -52.6725  -25.1895 H   0  0  0  0  0  0  0  0  0  0  0  0
   -0.9962  -53.2166  -23.5122 C   0  0  0  0  0  0  0  0  0  0  0  0
   -0.9569  -54.3685  -22.8045 C   0  0  0  0  0  0  0  0  0  0  0  0
   -0.5908  -54.3502  -21.4454 C   0  0  0  0  0  0  0  0  0  0  0  0
   -0.2655  -53.1898  -20.7821 C   0  0  0  0  0  0  0  0  0  0  0  0
   -0.3116  -51.9991  -21.5312 C   0  0  0  0  0  0  0  0  0  0  0  0
    0.1124  -50.4654  -20.7460 Cl  0  0  0  0  0  0  0  0  0  0  0  0
   -0.6638  -52.0218  -22.8351 C   0  0  0  0  0  0  0  0  0  0  0  0
    0.0876  -53.0855  -19.4842 O   0  0  0  0  0  0  0  0  0  0  0  0
   -0.4759  -52.5707  -18.3886 C   0  0  0  0  0  0  0  0  0  0  0  0
    0.2136  -51.6476  -17.6043 C   0  0  0  0  0  0  0  0  0  0  0  0
   -0.3030  -51.0944  -16.4678 C   0  0  0  0  0  0  0  0  0  0  0  0
   -1.5591  -51.4444  -16.0550 C   0  0  0  0  0  0  0  0  0  0  0  0
   -2.2980  -52.3626  -16.8027 C   0  0  0  0  0  0  0  0  0  0  0  0
   -1.7512  -52.8902  -17.9267 C   0  0  0  0  0  0  0  0  0  0  0  0
   -3.6636  -52.6687  -16.2674 C   0  0  0  0  0  0  0  0  0  0  0  0
   -4.5392  -51.8201  -16.8794 F   0  0  0  0  0  0  0  0  0  0  0  0
   -4.0606  -53.9562  -16.5232 F   0  0  0  0  0  0  0  0  0  0  0  0
   -3.6715  -52.4912  -14.8952 F   0  0  0  0  0  0  0  0  0  0  0  0
 23 24  1  0  0  0
 24 22  1  0  0  0
 22 21  1  0  0  0
 21 17  1  0  0  0
 17 18  1  0  0  0
 17 19  1  0  0  0
 19 20  2  0  0  0
 19 16  1  0  0  0
 16 10  1  0  0  0
 10 11  2  0  0  0
 11 12  1  0  0  0
 12 13  2  0  0  0
 13 14  1  0  0  0
 14 15  2  0  0  0
 14  1  1  0  0  0
  1  2  2  0  0  0
  2  3  1  0  0  0
  3  4  2  0  0  0
  4  5  1  0  0  0
  5  6  2  0  0  0
  6  7  1  0  0  0
  7 26  1  0  0  0
 26 28  1  0  0  0
 28 29  2  0  0  0
 29 30  1  0  0  0
 30 31  2  0  0  0
 31 35  1  0  0  0
 35 36  1  0  0  0
 36 37  2  0  0  0
 37 38  1  0  0  0
 38 39  2  0  0  0
 39 40  1  0  0  0
 40 41  2  0  0  0
 40 42  1  0  0  0
 42 43  1  0  0  0
 42 44  1  0  0  0
 42 45  1  0  0  0
 31 32  1  0  0  0
 32 33  1  0  0  0
 32 34  2  0  0  0
  7  8  2  0  0  0
  8  9  1  0  0  0
 15 10  1  0  0  0
  9  1  1  0  0  0
  8  3  1  0  0  0
 34 28  1  0  0  0
 41 36  1  0  0  0
 24 25  1  0  0  0
 26 27  1  0  0  0
M  END
> <minimizedAffinity>
-7.82871

> <CNNscore>
0.1306741834

> <CNNaffinity>
7.2391967773

> <CNN_VS>
0.9459761381

> <CNNaffinity_variance>
0.2509059608

$$$$
[H]c1nc(N([H])c2c([H])c([H])c(Oc3c([H])c([H])c([H])c(C(F)(F)F)c3[H])c(Cl)c2[H])c2sc(-c3c([H])c([H])c([H])c(C([H])([H])C(=O)N(C([H])([H])[H])C([H])([H])C([H])([H])N([H])C([H])([H])[H])c3[H])c([H])c2n1


 45 49  0  0  0  0  0  0  0  0999 V2000
    2.6963  -50.6383  -25.7368 C   0  0  0  0  0  0  0  0  0  0  0  0
    2.9279  -51.6135  -26.6699 C   0  0  0  0  0  0  0  0  0  0  0  0
    2.0012  -52.5768  -26.8054 C   0  0  0  0  0  0  0  0  0  0  0  0
    2.0111  -53.6557  -27.6533 N   0  0  0  0  0  0  0  0  0  0  0  0
    1.0418  -54.5567  -27.6940 C   0  0  0  0  0  0  0  0  0  0  0  0
   -0.0530  -54.5024  -26.9026 N   0  0  0  0  0  0  0  0  0  0  0  0
   -0.1231  -53.4624  -26.0487 C   0  0  0  0  0  0  0  0  0  0  0  0
    0.8929  -52.5051  -25.9975 C   0  0  0  0  0  0  0  0  0  0  0  0
    1.1957  -51.0826  -25.0754 S   0  0  0  0  0  0  0  0  0  0  0  0
    4.1627  -47.6773  -23.9748 C   0  0  0  0  0  0  0  0  0  0  0  0
    5.0110  -47.1997  -24.9379 C   0  0  0  0  0  0  0  0  0  0  0  0
    5.1148  -47.8558  -26.1501 C   0  0  0  0  0  0  0  0  0  0  0  0
    4.3693  -48.9982  -26.4054 C   0  0  0  0  0  0  0  0  0  0  0  0
    3.5300  -49.4739  -25.4498 C   0  0  0  0  0  0  0  0  0  0  0  0
    3.4321  -48.8240  -24.2561 C   0  0  0  0  0  0  0  0  0  0  0  0
    3.8956  -46.9412  -22.7352 C   0  0  0  0  0  0  0  0  0  0  0  0
    3.8133  -48.0396  -20.4372 N   0  0  0  0  0  0  0  0  0  0  0  0
    2.3698  -47.9513  -20.4224 C   0  0  0  0  0  0  0  0  0  0  0  0
    4.5280  -47.5528  -21.5285 C   0  0  0  0  0  0  0  0  0  0  0  0
    5.7668  -47.6148  -21.5186 O   0  0  0  0  0  0  0  0  0  0  0  0
    4.4408  -48.6712  -19.3137 C   0  0  0  0  0  0  0  0  0  0  0  0
    4.4246  -47.8809  -18.0416 C   0  0  0  0  0  0  0  0  0  0  0  0
    3.8960  -48.0462  -15.6648 C   0  0  0  0  0  0  0  0  0  0  0  0
    4.1519  -48.6751  -16.9073 N   0  0  0  0  0  0  0  0  0  0  0  0
    3.4764  -49.4580  -17.1764 H   0  0  0  0  0  0  0  0  0  0  0  0
   -1.2187  -53.2798  -25.1585 N   0  0  0  0  0  0  0  0  0  0  0  0
   -2.1797  -53.0691  -25.4512 H   0  0  0  0  0  0  0  0  0  0  0  0
   -0.9178  -53.4234  -23.7614 C   0  0  0  0  0  0  0  0  0  0  0  0
   -0.7937  -54.5666  -23.0494 C   0  0  0  0  0  0  0  0  0  0  0  0
   -0.4376  -54.5158  -21.6884 C   0  0  0  0  0  0  0  0  0  0  0  0
   -0.2063  -53.3317  -21.0276 C   0  0  0  0  0  0  0  0  0  0  0  0
   -0.3400  -52.1504  -21.7812 C   0  0  0  0  0  0  0  0  0  0  0  0
   -0.0398  -50.5861  -20.9993 Cl  0  0  0  0  0  0  0  0  0  0  0  0
   -0.6822  -52.2044  -23.0868 C   0  0  0  0  0  0  0  0  0  0  0  0
    0.1306  -53.1964  -19.7283 O   0  0  0  0  0  0  0  0  0  0  0  0
   -0.4751  -52.7184  -18.6385 C   0  0  0  0  0  0  0  0  0  0  0  0
   -1.6702  -53.2776  -18.1895 C   0  0  0  0  0  0  0  0  0  0  0  0
   -2.3430  -52.8270  -17.0900 C   0  0  0  0  0  0  0  0  0  0  0  0
   -1.8412  -51.7758  -16.3729 C   0  0  0  0  0  0  0  0  0  0  0  0
   -0.6456  -51.1779  -16.7741 C   0  0  0  0  0  0  0  0  0  0  0  0
   -0.0054  -51.6540  -17.8715 C   0  0  0  0  0  0  0  0  0  0  0  0
   -0.1810  -50.0420  -15.9144 C   0  0  0  0  0  0  0  0  0  0  0  0
    1.0995  -49.7503  -16.2840 F   0  0  0  0  0  0  0  0  0  0  0  0
   -0.9421  -48.9114  -16.0670 F   0  0  0  0  0  0  0  0  0  0  0  0
   -0.2446  -50.4150  -14.5834 F   0  0  0  0  0  0  0  0  0  0  0  0
 23 24  1  0  0  0
 24 22  1  0  0  0
 22 21  1  0  0  0
 21 17  1  0  0  0
 17 18  1  0  0  0
 17 19  1  0  0  0
 19 20  2  0  0  0
 19 16  1  0  0  0
 16 10  1  0  0  0
 10 11  2  0  0  0
 11 12  1  0  0  0
 12 13  2  0  0  0
 13 14  1  0  0  0
 14 15  2  0  0  0
 14  1  1  0  0  0
  1  2  2  0  0  0
  2  3  1  0  0  0
  3  4  2  0  0  0
  4  5  1  0  0  0
  5  6  2  0  0  0
  6  7  1  0  0  0
  7 26  1  0  0  0
 26 28  1  0  0  0
 28 29  2  0  0  0
 29 30  1  0  0  0
 30 31  2  0  0  0
 31 35  1  0  0  0
 35 36  1  0  0  0
 36 37  2  0  0  0
 37 38  1  0  0  0
 38 39  2  0  0  0
 39 40  1  0  0  0
 40 41  2  0  0  0
 40 42  1  0  0  0
 42 43  1  0  0  0
 42 44  1  0  0  0
 42 45  1  0  0  0
 31 32  1  0  0  0
 32 33  1  0  0  0
 32 34  2  0  0  0
  7  8  2  0  0  0
  8  9  1  0  0  0
 15 10  1  0  0  0
  9  1  1  0  0  0
  8  3  1  0  0  0
 34 28  1  0  0  0
 41 36  1  0  0  0
 24 25  1  0  0  0
 26 27  1  0  0  0
M  END
> <minimizedAffinity>
-7.77222

> <CNNscore>
0.1183324829

> <CNNaffinity>
7.0986738205

> <CNN_VS>
0.8400036693

> <CNNaffinity_variance>
0.7217955589

$$$$
[H]c1nc(N([H])c2c([H])c([H])c(Oc3c([H])c([H])c([H])c(C(F)(F)F)c3[H])c(Cl)c2[H])c2sc(-c3c([H])c([H])c([H])c(C([H])([H])C(=O)N(C([H])([H])[H])C([H])([H])C([H])([H])N([H])C([H])([H])[H])c3[H])c([H])c2n1


 45 49  0  0  0  0  0  0  0  0999 V2000
    0.2563  -52.2526  -20.6684 C   0  0  0  0  0  0  0  0  0  0  0  0
   -0.4463  -52.9450  -21.6182 C   0  0  0  0  0  0  0  0  0  0  0  0
    0.1167  -53.0832  -22.8302 C   0  0  0  0  0  0  0  0  0  0  0  0
   -0.3888  -53.7166  -23.9376 N   0  0  0  0  0  0  0  0  0  0  0  0
    0.2532  -53.7817  -25.0938 C   0  0  0  0  0  0  0  0  0  0  0  0
    1.4701  -53.2289  -25.2969 N   0  0  0  0  0  0  0  0  0  0  0  0
    2.0222  -52.5941  -24.2442 C   0  0  0  0  0  0  0  0  0  0  0  0
    1.3549  -52.5199  -23.0193 C   0  0  0  0  0  0  0  0  0  0  0  0
    1.6821  -51.8154  -21.4823 S   0  0  0  0  0  0  0  0  0  0  0  0
    0.0754  -50.7427  -17.2463 C   0  0  0  0  0  0  0  0  0  0  0  0
   -0.7524  -51.6334  -16.6163 C   0  0  0  0  0  0  0  0  0  0  0  0
   -1.2625  -52.7114  -17.3151 C   0  0  0  0  0  0  0  0  0  0  0  0
   -0.9476  -52.9039  -18.6528 C   0  0  0  0  0  0  0  0  0  0  0  0
   -0.1292  -52.0196  -19.2790 C   0  0  0  0  0  0  0  0  0  0  0  0
    0.3703  -50.9579  -18.5860 C   0  0  0  0  0  0  0  0  0  0  0  0
    0.7674  -49.6726  -16.5212 C   0  0  0  0  0  0  0  0  0  0  0  0
    2.9511  -50.6098  -15.6007 N   0  0  0  0  0  0  0  0  0  0  0  0
    3.5295  -50.6234  -16.9262 C   0  0  0  0  0  0  0  0  0  0  0  0
    1.6435  -50.1678  -15.4178 C   0  0  0  0  0  0  0  0  0  0  0  0
    1.1522  -50.1821  -14.2789 O   0  0  0  0  0  0  0  0  0  0  0  0
    3.7904  -51.0302  -14.5173 C   0  0  0  0  0  0  0  0  0  0  0  0
    3.9405  -52.5119  -14.3596 C   0  0  0  0  0  0  0  0  0  0  0  0
    2.7857  -52.8195  -12.2317 C   0  0  0  0  0  0  0  0  0  0  0  0
    3.9654  -52.9188  -13.0084 N   0  0  0  0  0  0  0  0  0  0  0  0
    4.4964  -53.8423  -12.9257 H   0  0  0  0  0  0  0  0  0  0  0  0
    3.2985  -51.9679  -24.3157 N   0  0  0  0  0  0  0  0  0  0  0  0
    4.1610  -52.3533  -23.9144 H   0  0  0  0  0  0  0  0  0  0  0  0
    3.3409  -50.7171  -25.0207 C   0  0  0  0  0  0  0  0  0  0  0  0
    3.3458  -50.5145  -26.3578 C   0  0  0  0  0  0  0  0  0  0  0  0
    3.3341  -49.2048  -26.8738 C   0  0  0  0  0  0  0  0  0  0  0  0
    3.3206  -48.0913  -26.0661 C   0  0  0  0  0  0  0  0  0  0  0  0
    3.3164  -48.3178  -24.6769 C   0  0  0  0  0  0  0  0  0  0  0  0
    3.2816  -46.9288  -23.5734 Cl  0  0  0  0  0  0  0  0  0  0  0  0
    3.3280  -49.5766  -24.1868 C   0  0  0  0  0  0  0  0  0  0  0  0
    3.3161  -46.8069  -26.4788 O   0  0  0  0  0  0  0  0  0  0  0  0
    3.5676  -46.1826  -27.6321 C   0  0  0  0  0  0  0  0  0  0  0  0
    4.3637  -45.0389  -27.6595 C   0  0  0  0  0  0  0  0  0  0  0  0
    4.6479  -44.3498  -28.8036 C   0  0  0  0  0  0  0  0  0  0  0  0
    4.1403  -44.7818  -29.9979 C   0  0  0  0  0  0  0  0  0  0  0  0
    3.3385  -45.9238  -30.0318 C   0  0  0  0  0  0  0  0  0  0  0  0
    3.0789  -46.5822  -28.8743 C   0  0  0  0  0  0  0  0  0  0  0  0
    2.8425  -46.3143  -31.3906 C   0  0  0  0  0  0  0  0  0  0  0  0
    3.3644  -45.4253  -32.2844 F   0  0  0  0  0  0  0  0  0  0  0  0
    3.2337  -47.5761  -31.7590 F   0  0  0  0  0  0  0  0  0  0  0  0
    1.4593  -46.2826  -31.4034 F   0  0  0  0  0  0  0  0  0  0  0  0
 23 24  1  0  0  0
 24 22  1  0  0  0
 22 21  1  0  0  0
 21 17  1  0  0  0
 17 18  1  0  0  0
 17 19  1  0  0  0
 19 20  2  0  0  0
 19 16  1  0  0  0
 16 10  1  0  0  0
 10 11  2  0  0  0
 11 12  1  0  0  0
 12 13  2  0  0  0
 13 14  1  0  0  0
 14 15  2  0  0  0
 14  1  1  0  0  0
  1  2  2  0  0  0
  2  3  1  0  0  0
  3  4  2  0  0  0
  4  5  1  0  0  0
  5  6  2  0  0  0
  6  7  1  0  0  0
  7 26  1  0  0  0
 26 28  1  0  0  0
 28 29  2  0  0  0
 29 30  1  0  0  0
 30 31  2  0  0  0
 31 35  1  0  0  0
 35 36  1  0  0  0
 36 37  2  0  0  0
 37 38  1  0  0  0
 38 39  2  0  0  0
 39 40  1  0  0  0
 40 41  2  0  0  0
 40 42  1  0  0  0
 42 43  1  0  0  0
 42 44  1  0  0  0
 42 45  1  0  0  0
 31 32  1  0  0  0
 32 33  1  0  0  0
 32 34  2  0  0  0
  7  8  2  0  0  0
  8  9  1  0  0  0
 15 10  1  0  0  0
  9  1  1  0  0  0
  8  3  1  0  0  0
 34 28  1  0  0  0
 41 36  1  0  0  0
 24 25  1  0  0  0
 26 27  1  0  0  0
M  END
> <minimizedAffinity>
-8.09115

> <CNNscore>
0.1061219051

> <CNNaffinity>
7.1568298340

> <CNN_VS>
0.7594963908

> <CNNaffinity_variance>
0.0705025643

$$$$
[H]/C(C(=O)N([H])c1c([H])c([H])c2nc([H])nc(N([H])c3c([H])c([H])c(OC([H])([H])c4c([H])c([H])c([H])c(F)c4[H])c(Cl)c3[H])c2c1[H])=C(/[H])C([H])([H])N1C([H])([H])C([H])([H])C([H])([H])C1([H])[H]


 40 44  0  0  0  0  0  0  0  0999 V2000
    0.3566  -53.3383  -22.3134 C   0  0  0  0  0  0  0  0  0  0  0  0
   -0.4314  -54.4172  -22.0301 N   0  0  0  0  0  0  0  0  0  0  0  0
   -1.2324  -54.9890  -22.9290 C   0  0  0  0  0  0  0  0  0  0  0  0
   -1.2517  -54.4688  -24.1577 N   0  0  0  0  0  0  0  0  0  0  0  0
   -0.4926  -53.3981  -24.5023 C   0  0  0  0  0  0  0  0  0  0  0  0
   -0.5375  -52.8862  -25.7871 C   0  0  0  0  0  0  0  0  0  0  0  0
    0.2117  -51.8111  -26.1733 C   0  0  0  0  0  0  0  0  0  0  0  0
    1.0739  -51.1770  -25.2491 C   0  0  0  0  0  0  0  0  0  0  0  0
    1.0958  -51.7086  -23.9851 C   0  0  0  0  0  0  0  0  0  0  0  0
    0.3382  -52.8021  -23.5776 C   0  0  0  0  0  0  0  0  0  0  0  0
    1.8290  -50.0914  -25.7244 N   0  0  0  0  0  0  0  0  0  0  0  0
    3.2166  -50.0238  -25.7269 C   0  0  0  0  0  0  0  0  0  0  0  0
    3.9424  -50.9638  -25.2795 O   0  0  0  0  0  0  0  0  0  0  0  0
    1.3106  -49.2461  -26.1198 H   0  0  0  0  0  0  0  0  0  0  0  0
    3.9641  -48.8564  -26.2488 C   0  0  0  0  0  0  0  0  0  0  0  0
    3.4027  -47.7183  -26.4787 C   0  0  0  0  0  0  0  0  0  0  0  0
    4.1689  -46.5271  -27.0121 C   0  0  0  0  0  0  0  0  0  0  0  0
    3.5907  -45.3666  -26.3383 N   0  0  0  0  0  0  0  0  0  0  0  0
    4.3907  -44.8987  -25.2437 C   0  0  0  0  0  0  0  0  0  0  0  0
    3.5721  -44.9504  -23.9900 C   0  0  0  0  0  0  0  0  0  0  0  0
    2.1624  -44.9991  -24.4823 C   0  0  0  0  0  0  0  0  0  0  0  0
    2.2694  -45.6261  -25.8560 C   0  0  0  0  0  0  0  0  0  0  0  0
    1.1526  -52.7501  -21.3056 N   0  0  0  0  0  0  0  0  0  0  0  0
    2.1978  -52.6345  -21.4971 H   0  0  0  0  0  0  0  0  0  0  0  0
   -0.3804  -51.4525  -17.6092 C   0  0  0  0  0  0  0  0  0  0  0  0
   -0.7793  -52.6444  -18.1498 C   0  0  0  0  0  0  0  0  0  0  0  0
   -0.2638  -53.0796  -19.3664 C   0  0  0  0  0  0  0  0  0  0  0  0
    0.6755  -52.2887  -20.0478 C   0  0  0  0  0  0  0  0  0  0  0  0
    1.0749  -51.1033  -19.5169 C   0  0  0  0  0  0  0  0  0  0  0  0
    0.5389  -50.6977  -18.2962 C   0  0  0  0  0  0  0  0  0  0  0  0
    1.0700  -49.1726  -17.6382 Cl  0  0  0  0  0  0  0  0  0  0  0  0
   -0.8711  -51.0094  -16.4239 O   0  0  0  0  0  0  0  0  0  0  0  0
   -1.4849  -51.7221  -15.4037 C   0  0  0  0  0  0  0  0  0  0  0  0
   -5.6403  -49.1569  -15.5646 F   0  0  0  0  0  0  0  0  0  0  0  0
   -4.7172  -49.8668  -14.8485 C   0  0  0  0  0  0  0  0  0  0  0  0
   -4.9179  -50.0310  -13.4863 C   0  0  0  0  0  0  0  0  0  0  0  0
   -3.9620  -50.7529  -12.8064 C   0  0  0  0  0  0  0  0  0  0  0  0
   -2.8747  -51.2765  -13.4513 C   0  0  0  0  0  0  0  0  0  0  0  0
   -2.6772  -51.1103  -14.8147 C   0  0  0  0  0  0  0  0  0  0  0  0
   -3.6307  -50.3853  -15.5162 C   0  0  0  0  0  0  0  0  0  0  0  0
 34 35  1  0  0  0
 35 36  2  0  0  0
 36 37  1  0  0  0
 37 38  2  0  0  0
 38 39  1  0  0  0
 39 33  1  0  0  0
 33 32  1  0  0  0
 32 25  1  0  0  0
 25 26  2  0  0  0
 26 27  1  0  0  0
 27 28  2  0  0  0
 28 23  1  0  0  0
 23  1  1  0  0  0
  1  2  2  0  0  0
  2  3  1  0  0  0
  3  4  2  0  0  0
  4  5  1  0  0  0
  5  6  2  0  0  0
  6  7  1  0  0  0
  7  8  2  0  0  0
  8 11  1  0  0  0
 11 12  1  0  0  0
 12 13  2  0  0  0
 12 15  1  0  0  0
 15 16  2  0  0  0
 16 17  1  0  0  0
 17 18  1  0  0  0
 18 19  1  0  0  0
 19 20  1  0  0  0
 20 21  1  0  0  0
 21 22  1  0  0  0
  8  9  1  0  0  0
  9 10  2  0  0  0
 28 29  1  0  0  0
 29 30  2  0  0  0
 30 31  1  0  0  0
 39 40  2  0  0  0
 40 35  1  0  0  0
 30 25  1  0  0  0
 10  1  1  0  0  0
 10  5  1  0  0  0
 22 18  1  0  0  0
 23 24  1  0  0  0
 11 14  1  0  0  0
M  END
> <minimizedAffinity>
-8.00424

> <CNNscore>
0.3978131711

> <CNNaffinity>
7.2162108421

> <CNN_VS>
2.8707036972

> <CNNaffinity_variance>
0.1162132770

$$$$
[H]/C(C(=O)N([H])c1c([H])c([H])c2nc([H])nc(N([H])c3c([H])c([H])c(OC([H])([H])c4c([H])c([H])c([H])c(F)c4[H])c(Cl)c3[H])c2c1[H])=C(/[H])C([H])([H])N1C([H])([H])C([H])([H])C([H])([H])C1([H])[H]


 40 44  0  0  0  0  0  0  0  0999 V2000
   -0.0343  -53.1614  -24.2425 C   0  0  0  0  0  0  0  0  0  0  0  0
   -1.1487  -53.1384  -25.0318 N   0  0  0  0  0  0  0  0  0  0  0  0
   -1.2077  -52.4780  -26.1880 C   0  0  0  0  0  0  0  0  0  0  0  0
   -0.1170  -51.8141  -26.5757 N   0  0  0  0  0  0  0  0  0  0  0  0
    1.0213  -51.7980  -25.8371 C   0  0  0  0  0  0  0  0  0  0  0  0
    2.1339  -51.0994  -26.2716 C   0  0  0  0  0  0  0  0  0  0  0  0
    3.2981  -51.0597  -25.5579 C   0  0  0  0  0  0  0  0  0  0  0  0
    3.4005  -51.7476  -24.3267 C   0  0  0  0  0  0  0  0  0  0  0  0
    2.2812  -52.4304  -23.9247 C   0  0  0  0  0  0  0  0  0  0  0  0
    1.0891  -52.4791  -24.6404 C   0  0  0  0  0  0  0  0  0  0  0  0
    4.6356  -51.6790  -23.6600 N   0  0  0  0  0  0  0  0  0  0  0  0
    4.9410  -50.7944  -22.6332 C   0  0  0  0  0  0  0  0  0  0  0  0
    4.1059  -49.9416  -22.2017 O   0  0  0  0  0  0  0  0  0  0  0  0
    5.4089  -52.3545  -23.9520 H   0  0  0  0  0  0  0  0  0  0  0  0
    6.2588  -50.7703  -21.9576 C   0  0  0  0  0  0  0  0  0  0  0  0
    6.7181  -49.7192  -21.3682 C   0  0  0  0  0  0  0  0  0  0  0  0
    8.0651  -49.6972  -20.6786 C   0  0  0  0  0  0  0  0  0  0  0  0
    8.2976  -48.2958  -20.3363 N   0  0  0  0  0  0  0  0  0  0  0  0
    8.6785  -48.1099  -18.9661 C   0  0  0  0  0  0  0  0  0  0  0  0
    7.6812  -47.2082  -18.3053 C   0  0  0  0  0  0  0  0  0  0  0  0
    7.0120  -46.5139  -19.4463 C   0  0  0  0  0  0  0  0  0  0  0  0
    7.1547  -47.4786  -20.6042 C   0  0  0  0  0  0  0  0  0  0  0  0
   -0.0478  -53.8447  -23.0063 N   0  0  0  0  0  0  0  0  0  0  0  0
   -0.0343  -54.9134  -23.0250 H   0  0  0  0  0  0  0  0  0  0  0  0
   -0.2316  -52.0913  -19.1868 C   0  0  0  0  0  0  0  0  0  0  0  0
   -0.6456  -53.3806  -19.3828 C   0  0  0  0  0  0  0  0  0  0  0  0
   -0.5739  -53.9649  -20.6433 C   0  0  0  0  0  0  0  0  0  0  0  0
   -0.0720  -53.2253  -21.7265 C   0  0  0  0  0  0  0  0  0  0  0  0
    0.3396  -51.9439  -21.5386 C   0  0  0  0  0  0  0  0  0  0  0  0
    0.2547  -51.3896  -20.2629 C   0  0  0  0  0  0  0  0  0  0  0  0
    0.7907  -49.7438  -20.0509 Cl  0  0  0  0  0  0  0  0  0  0  0  0
   -0.2932  -51.5025  -17.9655 O   0  0  0  0  0  0  0  0  0  0  0  0
   -0.6607  -52.0470  -16.7433 C   0  0  0  0  0  0  0  0  0  0  0  0
   -3.7254  -49.1509  -14.2747 F   0  0  0  0  0  0  0  0  0  0  0  0
   -3.5089  -50.2637  -15.0387 C   0  0  0  0  0  0  0  0  0  0  0  0
   -4.5915  -51.0686  -15.3599 C   0  0  0  0  0  0  0  0  0  0  0  0
   -4.3253  -52.1784  -16.1310 C   0  0  0  0  0  0  0  0  0  0  0  0
   -3.0551  -52.4626  -16.5530 C   0  0  0  0  0  0  0  0  0  0  0  0
   -1.9742  -51.6547  -16.2298 C   0  0  0  0  0  0  0  0  0  0  0  0
   -2.2238  -50.5315  -15.4531 C   0  0  0  0  0  0  0  0  0  0  0  0
 34 35  1  0  0  0
 35 36  2  0  0  0
 36 37  1  0  0  0
 37 38  2  0  0  0
 38 39  1  0  0  0
 39 33  1  0  0  0
 33 32  1  0  0  0
 32 25  1  0  0  0
 25 26  2  0  0  0
 26 27  1  0  0  0
 27 28  2  0  0  0
 28 23  1  0  0  0
 23  1  1  0  0  0
  1  2  2  0  0  0
  2  3  1  0  0  0
  3  4  2  0  0  0
  4  5  1  0  0  0
  5  6  2  0  0  0
  6  7  1  0  0  0
  7  8  2  0  0  0
  8 11  1  0  0  0
 11 12  1  0  0  0
 12 13  2  0  0  0
 12 15  1  0  0  0
 15 16  2  0  0  0
 16 17  1  0  0  0
 17 18  1  0  0  0
 18 19  1  0  0  0
 19 20  1  0  0  0
 20 21  1  0  0  0
 21 22  1  0  0  0
  8  9  1  0  0  0
  9 10  2  0  0  0
 28 29  1  0  0  0
 29 30  2  0  0  0
 30 31  1  0  0  0
 39 40  2  0  0  0
 40 35  1  0  0  0
 30 25  1  0  0  0
 10  1  1  0  0  0
 10  5  1  0  0  0
 22 18  1  0  0  0
 23 24  1  0  0  0
 11 14  1  0  0  0
M  END
> <minimizedAffinity>
-8.17014

> <CNNscore>
0.3871896267

> <CNNaffinity>
7.3132371902

> <CNN_VS>
2.8316094875

> <CNNaffinity_variance>
0.0608060881

$$$$
[H]/C(C(=O)N([H])c1c([H])c([H])c2nc([H])nc(N([H])c3c([H])c([H])c(OC([H])([H])c4c([H])c([H])c([H])c(F)c4[H])c(Cl)c3[H])c2c1[H])=C(/[H])C([H])([H])N1C([H])([H])C([H])([H])C([H])([H])C1([H])[H]


 40 44  0  0  0  0  0  0  0  0999 V2000
   -0.7956  -53.0753  -22.5525 C   0  0  0  0  0  0  0  0  0  0  0  0
   -1.4343  -54.2318  -22.2063 N   0  0  0  0  0  0  0  0  0  0  0  0
   -1.4963  -55.2960  -23.0062 C   0  0  0  0  0  0  0  0  0  0  0  0
   -0.9006  -55.2084  -24.1972 N   0  0  0  0  0  0  0  0  0  0  0  0
   -0.2498  -54.0879  -24.6001 C   0  0  0  0  0  0  0  0  0  0  0  0
    0.3577  -54.0336  -25.8421 C   0  0  0  0  0  0  0  0  0  0  0  0
    1.0231  -52.9252  -26.2838 C   0  0  0  0  0  0  0  0  0  0  0  0
    1.1114  -51.7760  -25.4645 C   0  0  0  0  0  0  0  0  0  0  0  0
    0.4997  -51.8623  -24.2401 C   0  0  0  0  0  0  0  0  0  0  0  0
   -0.1817  -52.9837  -23.7775 C   0  0  0  0  0  0  0  0  0  0  0  0
    1.8300  -50.6825  -25.9769 N   0  0  0  0  0  0  0  0  0  0  0  0
    3.1725  -50.4232  -25.7314 C   0  0  0  0  0  0  0  0  0  0  0  0
    3.8843  -51.1721  -24.9942 O   0  0  0  0  0  0  0  0  0  0  0  0
    1.3190  -49.9894  -26.6079 H   0  0  0  0  0  0  0  0  0  0  0  0
    3.8848  -49.2581  -26.3049 C   0  0  0  0  0  0  0  0  0  0  0  0
    3.7648  -48.9102  -27.5410 C   0  0  0  0  0  0  0  0  0  0  0  0
    4.4939  -47.7193  -28.1246 C   0  0  0  0  0  0  0  0  0  0  0  0
    4.0735  -47.6600  -29.5227 N   0  0  0  0  0  0  0  0  0  0  0  0
    5.1590  -47.8431  -30.4421 C   0  0  0  0  0  0  0  0  0  0  0  0
    5.2579  -46.6334  -31.3203 C   0  0  0  0  0  0  0  0  0  0  0  0
    3.9169  -45.9869  -31.1949 C   0  0  0  0  0  0  0  0  0  0  0  0
    3.4162  -46.4290  -29.8364 C   0  0  0  0  0  0  0  0  0  0  0  0
   -0.8013  -51.9660  -21.6779 N   0  0  0  0  0  0  0  0  0  0  0  0
   -1.7166  -51.4268  -21.5594 H   0  0  0  0  0  0  0  0  0  0  0  0
    2.4889  -50.7105  -19.3767 C   0  0  0  0  0  0  0  0  0  0  0  0
    2.1641  -52.0367  -19.4634 C   0  0  0  0  0  0  0  0  0  0  0  0
    1.0833  -52.4537  -20.2338 C   0  0  0  0  0  0  0  0  0  0  0  0
    0.3169  -51.5050  -20.9300 C   0  0  0  0  0  0  0  0  0  0  0  0
    0.6335  -50.1861  -20.8471 C   0  0  0  0  0  0  0  0  0  0  0  0
    1.7228  -49.8029  -20.0669 C   0  0  0  0  0  0  0  0  0  0  0  0
    2.1065  -48.1041  -19.9794 Cl  0  0  0  0  0  0  0  0  0  0  0  0
    3.5388  -50.2826  -18.6306 O   0  0  0  0  0  0  0  0  0  0  0  0
    3.5415  -49.6544  -17.3934 C   0  0  0  0  0  0  0  0  0  0  0  0
    0.0326  -51.1001  -14.3159 F   0  0  0  0  0  0  0  0  0  0  0  0
    1.3270  -51.1726  -14.7498 C   0  0  0  0  0  0  0  0  0  0  0  0
    2.1957  -52.0387  -14.1031 C   0  0  0  0  0  0  0  0  0  0  0  0
    3.4893  -52.0778  -14.5747 C   0  0  0  0  0  0  0  0  0  0  0  0
    3.8860  -51.2986  -15.6272 C   0  0  0  0  0  0  0  0  0  0  0  0
    3.0138  -50.4332  -16.2720 C   0  0  0  0  0  0  0  0  0  0  0  0
    1.7057  -50.3806  -15.8101 C   0  0  0  0  0  0  0  0  0  0  0  0
 34 35  1  0  0  0
 35 36  2  0  0  0
 36 37  1  0  0  0
 37 38  2  0  0  0
 38 39  1  0  0  0
 39 33  1  0  0  0
 33 32  1  0  0  0
 32 25  1  0  0  0
 25 26  2  0  0  0
 26 27  1  0  0  0
 27 28  2  0  0  0
 28 23  1  0  0  0
 23  1  1  0  0  0
  1  2  2  0  0  0
  2  3  1  0  0  0
  3  4  2  0  0  0
  4  5  1  0  0  0
  5  6  2  0  0  0
  6  7  1  0  0  0
  7  8  2  0  0  0
  8 11  1  0  0  0
 11 12  1  0  0  0
 12 13  2  0  0  0
 12 15  1  0  0  0
 15 16  2  0  0  0
 16 17  1  0  0  0
 17 18  1  0  0  0
 18 19  1  0  0  0
 19 20  1  0  0  0
 20 21  1  0  0  0
 21 22  1  0  0  0
  8  9  1  0  0  0
  9 10  2  0  0  0
 28 29  1  0  0  0
 29 30  2  0  0  0
 30 31  1  0  0  0
 39 40  2  0  0  0
 40 35  1  0  0  0
 30 25  1  0  0  0
 10  1  1  0  0  0
 10  5  1  0  0  0
 22 18  1  0  0  0
 23 24  1  0  0  0
 11 14  1  0  0  0
M  END
> <minimizedAffinity>
-7.67202

> <CNNscore>
0.3407577872

> <CNNaffinity>
7.2212905884

> <CNN_VS>
2.4607110023

> <CNNaffinity_variance>
0.1550477743

$$$$
[H]/C(C(=O)N([H])c1c([H])c([H])c2nc([H])nc(N([H])c3c([H])c([H])c(OC([H])([H])c4c([H])c([H])c([H])c(F)c4[H])c(Cl)c3[H])c2c1[H])=C(/[H])C([H])([H])N1C([H])([H])C([H])([H])C([H])([H])C1([H])[H]


 40 44  0  0  0  0  0  0  0  0999 V2000
    1.1203  -52.8317  -27.9071 C   0  0  0  0  0  0  0  0  0  0  0  0
    0.8209  -52.9497  -29.2344 N   0  0  0  0  0  0  0  0  0  0  0  0
   -0.4192  -52.8478  -29.7122 C   0  0  0  0  0  0  0  0  0  0  0  0
   -1.4007  -52.6199  -28.8373 N   0  0  0  0  0  0  0  0  0  0  0  0
   -1.1689  -52.4926  -27.5064 C   0  0  0  0  0  0  0  0  0  0  0  0
   -2.2118  -52.2551  -26.6286 C   0  0  0  0  0  0  0  0  0  0  0  0
   -2.0195  -52.1199  -25.2828 C   0  0  0  0  0  0  0  0  0  0  0  0
   -0.7189  -52.2211  -24.7372 C   0  0  0  0  0  0  0  0  0  0  0  0
    0.2923  -52.4561  -25.6333 C   0  0  0  0  0  0  0  0  0  0  0  0
    0.1114  -52.5966  -27.0056 C   0  0  0  0  0  0  0  0  0  0  0  0
   -0.5962  -52.0495  -23.3479 N   0  0  0  0  0  0  0  0  0  0  0  0
   -0.6432  -53.0727  -22.4094 C   0  0  0  0  0  0  0  0  0  0  0  0
   -0.8133  -54.2868  -22.7375 O   0  0  0  0  0  0  0  0  0  0  0  0
   -0.4527  -51.0620  -22.9686 H   0  0  0  0  0  0  0  0  0  0  0  0
   -0.4995  -52.8368  -20.9542 C   0  0  0  0  0  0  0  0  0  0  0  0
    0.5635  -53.1606  -20.2997 C   0  0  0  0  0  0  0  0  0  0  0  0
    0.7077  -52.9185  -18.8127 C   0  0  0  0  0  0  0  0  0  0  0  0
   -0.4837  -52.1642  -18.4298 N   0  0  0  0  0  0  0  0  0  0  0  0
   -0.1770  -50.9504  -17.7302 C   0  0  0  0  0  0  0  0  0  0  0  0
   -0.8263  -50.9930  -16.3807 C   0  0  0  0  0  0  0  0  0  0  0  0
   -1.8893  -52.0327  -16.5254 C   0  0  0  0  0  0  0  0  0  0  0  0
   -1.3765  -52.9388  -17.6244 C   0  0  0  0  0  0  0  0  0  0  0  0
    2.4497  -52.9922  -27.4571 N   0  0  0  0  0  0  0  0  0  0  0  0
    3.0033  -53.8313  -27.8207 H   0  0  0  0  0  0  0  0  0  0  0  0
    4.4700  -50.3287  -24.9035 C   0  0  0  0  0  0  0  0  0  0  0  0
    3.8402  -49.8729  -26.0293 C   0  0  0  0  0  0  0  0  0  0  0  0
    3.1618  -50.7516  -26.8679 C   0  0  0  0  0  0  0  0  0  0  0  0
    3.1223  -52.1205  -26.5571 C   0  0  0  0  0  0  0  0  0  0  0  0
    3.7469  -52.5798  -25.4411 C   0  0  0  0  0  0  0  0  0  0  0  0
    4.4167  -51.6723  -24.6227 C   0  0  0  0  0  0  0  0  0  0  0  0
    5.2085  -52.2895  -23.1969 Cl  0  0  0  0  0  0  0  0  0  0  0  0
    5.1374  -49.4886  -24.0724 O   0  0  0  0  0  0  0  0  0  0  0  0
    4.6398  -48.5039  -23.2307 C   0  0  0  0  0  0  0  0  0  0  0  0
    0.4263  -49.5934  -21.0099 F   0  0  0  0  0  0  0  0  0  0  0  0
    1.7909  -49.5169  -20.9823 C   0  0  0  0  0  0  0  0  0  0  0  0
    2.4539  -49.9073  -19.8287 C   0  0  0  0  0  0  0  0  0  0  0  0
    3.8279  -49.8128  -19.8472 C   0  0  0  0  0  0  0  0  0  0  0  0
    4.4941  -49.3562  -20.9517 C   0  0  0  0  0  0  0  0  0  0  0  0
    3.8273  -48.9665  -22.1045 C   0  0  0  0  0  0  0  0  0  0  0  0
    2.4419  -49.0550  -22.1039 C   0  0  0  0  0  0  0  0  0  0  0  0
 34 35  1  0  0  0
 35 36  2  0  0  0
 36 37  1  0  0  0
 37 38  2  0  0  0
 38 39  1  0  0  0
 39 33  1  0  0  0
 33 32  1  0  0  0
 32 25  1  0  0  0
 25 26  2  0  0  0
 26 27  1  0  0  0
 27 28  2  0  0  0
 28 23  1  0  0  0
 23  1  1  0  0  0
  1  2  2  0  0  0
  2  3  1  0  0  0
  3  4  2  0  0  0
  4  5  1  0  0  0
  5  6  2  0  0  0
  6  7  1  0  0  0
  7  8  2  0  0  0
  8 11  1  0  0  0
 11 12  1  0  0  0
 12 13  2  0  0  0
 12 15  1  0  0  0
 15 16  2  0  0  0
 16 17  1  0  0  0
 17 18  1  0  0  0
 18 19  1  0  0  0
 19 20  1  0  0  0
 20 21  1  0  0  0
 21 22  1  0  0  0
  8  9  1  0  0  0
  9 10  2  0  0  0
 28 29  1  0  0  0
 29 30  2  0  0  0
 30 31  1  0  0  0
 39 40  2  0  0  0
 40 35  1  0  0  0
 30 25  1  0  0  0
 10  1  1  0  0  0
 10  5  1  0  0  0
 22 18  1  0  0  0
 23 24  1  0  0  0
 11 14  1  0  0  0
M  END
> <minimizedAffinity>
-7.46203

> <CNNscore>
0.2462352812

> <CNNaffinity>
7.3936896324

> <CNN_VS>
1.8205872774

> <CNNaffinity_variance>
0.1590277106

$$$$
[H]/C(C(=O)N([H])c1c([H])c([H])c2nc([H])nc(N([H])c3c([H])c([H])c(OC([H])([H])c4c([H])c([H])c([H])c(F)c4[H])c(Cl)c3[H])c2c1[H])=C(/[H])C([H])([H])N1C([H])([H])C([H])([H])C([H])([H])C1([H])[H]


 40 44  0  0  0  0  0  0  0  0999 V2000
   -0.2483  -52.9851  -23.7544 C   0  0  0  0  0  0  0  0  0  0  0  0
   -0.8382  -54.0504  -24.3730 N   0  0  0  0  0  0  0  0  0  0  0  0
   -1.3344  -55.0939  -23.7087 C   0  0  0  0  0  0  0  0  0  0  0  0
   -1.2411  -55.0791  -22.3776 N   0  0  0  0  0  0  0  0  0  0  0  0
   -0.6669  -54.0507  -21.7037 C   0  0  0  0  0  0  0  0  0  0  0  0
   -0.5890  -54.0690  -20.3223 C   0  0  0  0  0  0  0  0  0  0  0  0
   -0.0201  -53.0532  -19.6076 C   0  0  0  0  0  0  0  0  0  0  0  0
    0.5172  -51.9286  -20.2756 C   0  0  0  0  0  0  0  0  0  0  0  0
    0.4237  -51.9408  -21.6438 C   0  0  0  0  0  0  0  0  0  0  0  0
   -0.1520  -52.9682  -22.3846 C   0  0  0  0  0  0  0  0  0  0  0  0
    1.0663  -50.9140  -19.4734 N   0  0  0  0  0  0  0  0  0  0  0  0
    2.3801  -50.8743  -19.0236 C   0  0  0  0  0  0  0  0  0  0  0  0
    3.2202  -51.7838  -19.3023 O   0  0  0  0  0  0  0  0  0  0  0  0
    0.4382  -50.1019  -19.1805 H   0  0  0  0  0  0  0  0  0  0  0  0
    2.9105  -49.7743  -18.1855 C   0  0  0  0  0  0  0  0  0  0  0  0
    2.5118  -48.5539  -18.3072 C   0  0  0  0  0  0  0  0  0  0  0  0
    3.0556  -47.4317  -17.4496 C   0  0  0  0  0  0  0  0  0  0  0  0
    4.4522  -47.2836  -17.8526 N   0  0  0  0  0  0  0  0  0  0  0  0
    5.2885  -46.7830  -16.8005 C   0  0  0  0  0  0  0  0  0  0  0  0
    5.9226  -45.5037  -17.2543 C   0  0  0  0  0  0  0  0  0  0  0  0
    5.8036  -45.5511  -18.7427 C   0  0  0  0  0  0  0  0  0  0  0  0
    4.5971  -46.4308  -18.9918 C   0  0  0  0  0  0  0  0  0  0  0  0
    0.2974  -51.9282  -24.5164 N   0  0  0  0  0  0  0  0  0  0  0  0
   -0.3735  -51.3301  -25.0950 H   0  0  0  0  0  0  0  0  0  0  0  0
    4.4077  -51.0405  -24.6340 C   0  0  0  0  0  0  0  0  0  0  0  0
    3.9690  -52.3302  -24.7608 C   0  0  0  0  0  0  0  0  0  0  0  0
    2.6093  -52.6231  -24.7339 C   0  0  0  0  0  0  0  0  0  0  0  0
    1.6763  -51.5856  -24.5749 C   0  0  0  0  0  0  0  0  0  0  0  0
    2.1056  -50.3026  -24.4472 C   0  0  0  0  0  0  0  0  0  0  0  0
    3.4747  -50.0444  -24.4791 C   0  0  0  0  0  0  0  0  0  0  0  0
    3.9969  -48.3889  -24.3138 Cl  0  0  0  0  0  0  0  0  0  0  0  0
    5.7295  -50.7333  -24.6573 O   0  0  0  0  0  0  0  0  0  0  0  0
    6.7499  -51.1716  -23.8253 C   0  0  0  0  0  0  0  0  0  0  0  0
    6.0325  -49.3903  -19.3325 F   0  0  0  0  0  0  0  0  0  0  0  0
    6.7580  -49.4168  -20.4909 C   0  0  0  0  0  0  0  0  0  0  0  0
    7.8675  -48.5918  -20.5977 C   0  0  0  0  0  0  0  0  0  0  0  0
    8.5671  -48.6524  -21.7826 C   0  0  0  0  0  0  0  0  0  0  0  0
    8.1790  -49.4868  -22.7952 C   0  0  0  0  0  0  0  0  0  0  0  0
    7.0682  -50.3111  -22.6847 C   0  0  0  0  0  0  0  0  0  0  0  0
    6.3508  -50.2633  -21.4972 C   0  0  0  0  0  0  0  0  0  0  0  0
 34 35  1  0  0  0
 35 36  2  0  0  0
 36 37  1  0  0  0
 37 38  2  0  0  0
 38 39  1  0  0  0
 39 33  1  0  0  0
 33 32  1  0  0  0
 32 25  1  0  0  0
 25 26  2  0  0  0
 26 27  1  0  0  0
 27 28  2  0  0  0
 28 23  1  0  0  0
 23  1  1  0  0  0
  1  2  2  0  0  0
  2  3  1  0  0  0
  3  4  2  0  0  0
  4  5  1  0  0  0
  5  6  2  0  0  0
  6  7  1  0  0  0
  7  8  2  0  0  0
  8 11  1  0  0  0
 11 12  1  0  0  0
 12 13  2  0  0  0
 12 15  1  0  0  0
 15 16  2  0  0  0
 16 17  1  0  0  0
 17 18  1  0  0  0
 18 19  1  0  0  0
 19 20  1  0  0  0
 20 21  1  0  0  0
 21 22  1  0  0  0
  8  9  1  0  0  0
  9 10  2  0  0  0
 28 29  1  0  0  0
 29 30  2  0  0  0
 30 31  1  0  0  0
 39 40  2  0  0  0
 40 35  1  0  0  0
 30 25  1  0  0  0
 10  1  1  0  0  0
 10  5  1  0  0  0
 22 18  1  0  0  0
 23 24  1  0  0  0
 11 14  1  0  0  0
M  END
> <minimizedAffinity>
-7.34351

> <CNNscore>
0.2150542438

> <CNNaffinity>
7.0202531815

> <CNN_VS>
1.5097352266

> <CNNaffinity_variance>
0.1307828128

$$$$
[H]/C(C(=O)N([H])c1c([H])c([H])c2nc([H])nc(N([H])c3c([H])c([H])c(OC([H])([H])c4c([H])c([H])c([H])c(F)c4[H])c(Cl)c3[H])c2c1[H])=C(/[H])C([H])([H])N1C([H])([H])C([H])([H])C([H])([H])C1([H])[H]


 40 44  0  0  0  0  0  0  0  0999 V2000
   -0.2548  -53.0982  -23.8947 C   0  0  0  0  0  0  0  0  0  0  0  0
   -0.7427  -54.2135  -24.5138 N   0  0  0  0  0  0  0  0  0  0  0  0
   -1.2886  -55.2331  -23.8514 C   0  0  0  0  0  0  0  0  0  0  0  0
   -1.3523  -55.1417  -22.5216 N   0  0  0  0  0  0  0  0  0  0  0  0
   -0.8857  -54.0605  -21.8473 C   0  0  0  0  0  0  0  0  0  0  0  0
   -0.9699  -53.9998  -20.4675 C   0  0  0  0  0  0  0  0  0  0  0  0
   -0.5129  -52.9291  -19.7526 C   0  0  0  0  0  0  0  0  0  0  0  0
    0.0723  -51.8276  -20.4187 C   0  0  0  0  0  0  0  0  0  0  0  0
    0.1402  -51.9184  -21.7854 C   0  0  0  0  0  0  0  0  0  0  0  0
   -0.3202  -53.0023  -22.5263 C   0  0  0  0  0  0  0  0  0  0  0  0
    0.4993  -50.7538  -19.6192 N   0  0  0  0  0  0  0  0  0  0  0  0
    1.7063  -50.6990  -18.9335 C   0  0  0  0  0  0  0  0  0  0  0  0
    2.5490  -51.6475  -18.9667 O   0  0  0  0  0  0  0  0  0  0  0  0
   -0.1414  -49.9053  -19.5233 H   0  0  0  0  0  0  0  0  0  0  0  0
    2.1116  -49.5365  -18.1100 C   0  0  0  0  0  0  0  0  0  0  0  0
    2.5854  -49.6617  -16.9171 C   0  0  0  0  0  0  0  0  0  0  0  0
    2.9988  -48.4722  -16.0776 C   0  0  0  0  0  0  0  0  0  0  0  0
    2.9132  -48.9318  -14.6933 N   0  0  0  0  0  0  0  0  0  0  0  0
    3.7488  -48.1810  -13.8015 C   0  0  0  0  0  0  0  0  0  0  0  0
    4.7165  -49.1164  -13.1435 C   0  0  0  0  0  0  0  0  0  0  0  0
    4.0933  -50.4625  -13.3206 C   0  0  0  0  0  0  0  0  0  0  0  0
    3.2421  -50.3177  -14.5640 C   0  0  0  0  0  0  0  0  0  0  0  0
    0.3513  -52.0691  -24.6491 N   0  0  0  0  0  0  0  0  0  0  0  0
   -0.2798  -51.4539  -25.2539 H   0  0  0  0  0  0  0  0  0  0  0  0
    4.4853  -51.2919  -24.5973 C   0  0  0  0  0  0  0  0  0  0  0  0
    4.0016  -52.5177  -24.2292 C   0  0  0  0  0  0  0  0  0  0  0  0
    2.6355  -52.7791  -24.2574 C   0  0  0  0  0  0  0  0  0  0  0  0
    1.7426  -51.7757  -24.6676 C   0  0  0  0  0  0  0  0  0  0  0  0
    2.2166  -50.5558  -25.0333 C   0  0  0  0  0  0  0  0  0  0  0  0
    3.5908  -50.3278  -24.9939 C   0  0  0  0  0  0  0  0  0  0  0  0
    4.1708  -48.7536  -25.4694 Cl  0  0  0  0  0  0  0  0  0  0  0  0
    5.8140  -51.0162  -24.5767 O   0  0  0  0  0  0  0  0  0  0  0  0
    6.6568  -50.8258  -23.4909 C   0  0  0  0  0  0  0  0  0  0  0  0
    5.5658  -46.4759  -21.5515 F   0  0  0  0  0  0  0  0  0  0  0  0
    5.6059  -47.8385  -21.4490 C   0  0  0  0  0  0  0  0  0  0  0  0
    5.1416  -48.4300  -20.2838 C   0  0  0  0  0  0  0  0  0  0  0  0
    5.2018  -49.8048  -20.2258 C   0  0  0  0  0  0  0  0  0  0  0  0
    5.6958  -50.5392  -21.2692 C   0  0  0  0  0  0  0  0  0  0  0  0
    6.1595  -49.9440  -22.4337 C   0  0  0  0  0  0  0  0  0  0  0  0
    6.1065  -48.5589  -22.5099 C   0  0  0  0  0  0  0  0  0  0  0  0
 34 35  1  0  0  0
 35 36  2  0  0  0
 36 37  1  0  0  0
 37 38  2  0  0  0
 38 39  1  0  0  0
 39 33  1  0  0  0
 33 32  1  0  0  0
 32 25  1  0  0  0
 25 26  2  0  0  0
 26 27  1  0  0  0
 27 28  2  0  0  0
 28 23  1  0  0  0
 23  1  1  0  0  0
  1  2  2  0  0  0
  2  3  1  0  0  0
  3  4  2  0  0  0
  4  5  1  0  0  0
  5  6  2  0  0  0
  6  7  1  0  0  0
  7  8  2  0  0  0
  8 11  1  0  0  0
 11 12  1  0  0  0
 12 13  2  0  0  0
 12 15  1  0  0  0
 15 16  2  0  0  0
 16 17  1  0  0  0
 17 18  1  0  0  0
 18 19  1  0  0  0
 19 20  1  0  0  0
 20 21  1  0  0  0
 21 22  1  0  0  0
  8  9  1  0  0  0
  9 10  2  0  0  0
 28 29  1  0  0  0
 29 30  2  0  0  0
 30 31  1  0  0  0
 39 40  2  0  0  0
 40 35  1  0  0  0
 30 25  1  0  0  0
 10  1  1  0  0  0
 10  5  1  0  0  0
 22 18  1  0  0  0
 23 24  1  0  0  0
 11 14  1  0  0  0
M  END
> <minimizedAffinity>
-7.59739

> <CNNscore>
0.2040160596

> <CNNaffinity>
6.9695930481

> <CNN_VS>
1.4219088554

> <CNNaffinity_variance>
0.2099904716

$$$$
[H]/C(C(=O)N([H])c1c([H])c([H])c2nc([H])nc(N([H])c3c([H])c([H])c(OC([H])([H])c4c([H])c([H])c([H])c(F)c4[H])c(Cl)c3[H])c2c1[H])=C(/[H])C([H])([H])N1C([H])([H])C([H])([H])C([H])([H])C1([H])[H]


 40 44  0  0  0  0  0  0  0  0999 V2000
   -0.2699  -53.1148  -23.9069 C   0  0  0  0  0  0  0  0  0  0  0  0
   -0.7367  -54.2236  -24.5534 N   0  0  0  0  0  0  0  0  0  0  0  0
   -1.2618  -55.2700  -23.9164 C   0  0  0  0  0  0  0  0  0  0  0  0
   -1.3259  -55.2131  -22.5847 N   0  0  0  0  0  0  0  0  0  0  0  0
   -0.8796  -54.1403  -21.8838 C   0  0  0  0  0  0  0  0  0  0  0  0
   -0.9634  -54.1158  -20.5029 C   0  0  0  0  0  0  0  0  0  0  0  0
   -0.5266  -53.0546  -19.7616 C   0  0  0  0  0  0  0  0  0  0  0  0
    0.0363  -51.9255  -20.4003 C   0  0  0  0  0  0  0  0  0  0  0  0
    0.1044  -51.9808  -21.7689 C   0  0  0  0  0  0  0  0  0  0  0  0
   -0.3356  -53.0546  -22.5365 C   0  0  0  0  0  0  0  0  0  0  0  0
    0.4432  -50.8639  -19.5744 N   0  0  0  0  0  0  0  0  0  0  0  0
    0.2729  -50.8133  -18.1966 C   0  0  0  0  0  0  0  0  0  0  0  0
   -0.2889  -51.7482  -17.5477 O   0  0  0  0  0  0  0  0  0  0  0  0
    0.9246  -50.0247  -20.0257 H   0  0  0  0  0  0  0  0  0  0  0  0
    0.7293  -49.6713  -17.3711 C   0  0  0  0  0  0  0  0  0  0  0  0
    0.0664  -49.2425  -16.3514 C   0  0  0  0  0  0  0  0  0  0  0  0
    0.5350  -48.0753  -15.5096 C   0  0  0  0  0  0  0  0  0  0  0  0
   -0.6861  -47.4571  -14.9980 N   0  0  0  0  0  0  0  0  0  0  0  0
   -0.6255  -47.1772  -13.5926 C   0  0  0  0  0  0  0  0  0  0  0  0
   -1.7382  -47.9085  -12.9058 C   0  0  0  0  0  0  0  0  0  0  0  0
   -2.7024  -48.2122  -14.0058 C   0  0  0  0  0  0  0  0  0  0  0  0
   -1.8433  -48.2587  -15.2513 C   0  0  0  0  0  0  0  0  0  0  0  0
    0.3151  -52.0556  -24.6356 N   0  0  0  0  0  0  0  0  0  0  0  0
   -0.3280  -51.4401  -25.2275 H   0  0  0  0  0  0  0  0  0  0  0  0
    4.4333  -51.1998  -24.5654 C   0  0  0  0  0  0  0  0  0  0  0  0
    3.9811  -52.4700  -24.3333 C   0  0  0  0  0  0  0  0  0  0  0  0
    2.6200  -52.7561  -24.3681 C   0  0  0  0  0  0  0  0  0  0  0  0
    1.6998  -51.7318  -24.6440 C   0  0  0  0  0  0  0  0  0  0  0  0
    2.1425  -50.4678  -24.8741 C   0  0  0  0  0  0  0  0  0  0  0  0
    3.5125  -50.2161  -24.8322 C   0  0  0  0  0  0  0  0  0  0  0  0
    4.0521  -48.5852  -25.1322 Cl  0  0  0  0  0  0  0  0  0  0  0  0
    5.7565  -50.8994  -24.5359 O   0  0  0  0  0  0  0  0  0  0  0  0
    6.6093  -50.7855  -23.4471 C   0  0  0  0  0  0  0  0  0  0  0  0
    5.8487  -46.5996  -21.0445 F   0  0  0  0  0  0  0  0  0  0  0  0
    5.7232  -47.9589  -21.1185 C   0  0  0  0  0  0  0  0  0  0  0  0
    5.0890  -48.6239  -20.0800 C   0  0  0  0  0  0  0  0  0  0  0  0
    4.9860  -49.9923  -20.1980 C   0  0  0  0  0  0  0  0  0  0  0  0
    5.4869  -50.6514  -21.2875 C   0  0  0  0  0  0  0  0  0  0  0  0
    6.1208  -49.9826  -22.3250 C   0  0  0  0  0  0  0  0  0  0  0  0
    6.2337  -48.6028  -22.2230 C   0  0  0  0  0  0  0  0  0  0  0  0
 34 35  1  0  0  0
 35 36  2  0  0  0
 36 37  1  0  0  0
 37 38  2  0  0  0
 38 39  1  0  0  0
 39 33  1  0  0  0
 33 32  1  0  0  0
 32 25  1  0  0  0
 25 26  2  0  0  0
 26 27  1  0  0  0
 27 28  2  0  0  0
 28 23  1  0  0  0
 23  1  1  0  0  0
  1  2  2  0  0  0
  2  3  1  0  0  0
  3  4  2  0  0  0
  4  5  1  0  0  0
  5  6  2  0  0  0
  6  7  1  0  0  0
  7  8  2  0  0  0
  8 11  1  0  0  0
 11 12  1  0  0  0
 12 13  2  0  0  0
 12 15  1  0  0  0
 15 16  2  0  0  0
 16 17  1  0  0  0
 17 18  1  0  0  0
 18 19  1  0  0  0
 19 20  1  0  0  0
 20 21  1  0  0  0
 21 22  1  0  0  0
  8  9  1  0  0  0
  9 10  2  0  0  0
 28 29  1  0  0  0
 29 30  2  0  0  0
 30 31  1  0  0  0
 39 40  2  0  0  0
 40 35  1  0  0  0
 30 25  1  0  0  0
 10  1  1  0  0  0
 10  5  1  0  0  0
 22 18  1  0  0  0
 23 24  1  0  0  0
 11 14  1  0  0  0
M  END
> <minimizedAffinity>
-7.71612

> <CNNscore>
0.1762510389

> <CNNaffinity>
6.9470887184

> <CNN_VS>
1.2244316339

> <CNNaffinity_variance>
0.1476908028

$$$$
[H]/C(C(=O)N([H])c1c([H])c([H])c2nc([H])nc(N([H])c3c([H])c([H])c(OC([H])([H])c4c([H])c([H])c([H])c(F)c4[H])c(Cl)c3[H])c2c1[H])=C(/[H])C([H])([H])N1C([H])([H])C([H])([H])C([H])([H])C1([H])[H]


 40 44  0  0  0  0  0  0  0  0999 V2000
    1.2633  -52.9198  -23.9630 C   0  0  0  0  0  0  0  0  0  0  0  0
    1.1075  -53.2248  -25.2851 N   0  0  0  0  0  0  0  0  0  0  0  0
    0.0878  -53.9464  -25.7499 C   0  0  0  0  0  0  0  0  0  0  0  0
   -0.8127  -54.3823  -24.8669 N   0  0  0  0  0  0  0  0  0  0  0  0
   -0.7149  -54.1132  -23.5405 C   0  0  0  0  0  0  0  0  0  0  0  0
   -1.6688  -54.5808  -22.6540 C   0  0  0  0  0  0  0  0  0  0  0  0
   -1.6066  -54.3306  -21.3124 C   0  0  0  0  0  0  0  0  0  0  0  0
   -0.5407  -53.5687  -20.7805 C   0  0  0  0  0  0  0  0  0  0  0  0
    0.3871  -53.1196  -21.6850 C   0  0  0  0  0  0  0  0  0  0  0  0
    0.3370  -53.3672  -23.0532 C   0  0  0  0  0  0  0  0  0  0  0  0
   -0.5553  -53.3340  -19.3950 N   0  0  0  0  0  0  0  0  0  0  0  0
   -0.2796  -52.1151  -18.7884 C   0  0  0  0  0  0  0  0  0  0  0  0
    0.0254  -51.0791  -19.4552 O   0  0  0  0  0  0  0  0  0  0  0  0
   -0.7979  -54.1452  -18.7448 H   0  0  0  0  0  0  0  0  0  0  0  0
   -0.3176  -51.9201  -17.3207 C   0  0  0  0  0  0  0  0  0  0  0  0
    0.4736  -51.1071  -16.7072 C   0  0  0  0  0  0  0  0  0  0  0  0
    0.4327  -50.9099  -15.2072 C   0  0  0  0  0  0  0  0  0  0  0  0
    1.7761  -50.4661  -14.8423 N   0  0  0  0  0  0  0  0  0  0  0  0
    2.7057  -50.5405  -15.9319 C   0  0  0  0  0  0  0  0  0  0  0  0
    3.8351  -51.4447  -15.5428 C   0  0  0  0  0  0  0  0  0  0  0  0
    3.7626  -51.4900  -14.0513 C   0  0  0  0  0  0  0  0  0  0  0  0
    2.3082  -51.2072  -13.7407 C   0  0  0  0  0  0  0  0  0  0  0  0
    2.3891  -52.1869  -23.5262 N   0  0  0  0  0  0  0  0  0  0  0  0
    3.0325  -52.6413  -22.8036 H   0  0  0  0  0  0  0  0  0  0  0  0
    3.3546  -48.2825  -24.7593 C   0  0  0  0  0  0  0  0  0  0  0  0
    2.9857  -48.5341  -23.4661 C   0  0  0  0  0  0  0  0  0  0  0  0
    2.6778  -49.8269  -23.0547 C   0  0  0  0  0  0  0  0  0  0  0  0
    2.7457  -50.8855  -23.9751 C   0  0  0  0  0  0  0  0  0  0  0  0
    3.1101  -50.6420  -25.2614 C   0  0  0  0  0  0  0  0  0  0  0  0
    3.4125  -49.3353  -25.6397 C   0  0  0  0  0  0  0  0  0  0  0  0
    3.8779  -49.0524  -27.2963 Cl  0  0  0  0  0  0  0  0  0  0  0  0
    3.6587  -47.0289  -25.1812 O   0  0  0  0  0  0  0  0  0  0  0  0
    2.8191  -46.0333  -25.6599 C   0  0  0  0  0  0  0  0  0  0  0  0
    1.3182  -45.9822  -30.3094 F   0  0  0  0  0  0  0  0  0  0  0  0
    2.2508  -45.6537  -29.3654 C   0  0  0  0  0  0  0  0  0  0  0  0
    3.3843  -44.9620  -29.7653 C   0  0  0  0  0  0  0  0  0  0  0  0
    4.2958  -44.6531  -28.7800 C   0  0  0  0  0  0  0  0  0  0  0  0
    4.0842  -45.0145  -27.4774 C   0  0  0  0  0  0  0  0  0  0  0  0
    2.9487  -45.7065  -27.0808 C   0  0  0  0  0  0  0  0  0  0  0  0
    2.0189  -46.0264  -28.0607 C   0  0  0  0  0  0  0  0  0  0  0  0
 34 35  1  0  0  0
 35 36  2  0  0  0
 36 37  1  0  0  0
 37 38  2  0  0  0
 38 39  1  0  0  0
 39 33  1  0  0  0
 33 32  1  0  0  0
 32 25  1  0  0  0
 25 26  2  0  0  0
 26 27  1  0  0  0
 27 28  2  0  0  0
 28 23  1  0  0  0
 23  1  1  0  0  0
  1  2  2  0  0  0
  2  3  1  0  0  0
  3  4  2  0  0  0
  4  5  1  0  0  0
  5  6  2  0  0  0
  6  7  1  0  0  0
  7  8  2  0  0  0
  8 11  1  0  0  0
 11 12  1  0  0  0
 12 13  2  0  0  0
 12 15  1  0  0  0
 15 16  2  0  0  0
 16 17  1  0  0  0
 17 18  1  0  0  0
 18 19  1  0  0  0
 19 20  1  0  0  0
 20 21  1  0  0  0
 21 22  1  0  0  0
  8  9  1  0  0  0
  9 10  2  0  0  0
 28 29  1  0  0  0
 29 30  2  0  0  0
 30 31  1  0  0  0
 39 40  2  0  0  0
 40 35  1  0  0  0
 30 25  1  0  0  0
 10  1  1  0  0  0
 10  5  1  0  0  0
 22 18  1  0  0  0
 23 24  1  0  0  0
 11 14  1  0  0  0
M  END
> <minimizedAffinity>
-8.15307

> <CNNscore>
0.1653109342

> <CNNaffinity>
6.9262924194

> <CNN_VS>
1.1449918747

> <CNNaffinity_variance>
0.0702548176

$$$$
[H]/C(C(=O)N([H])c1c([H])c([H])c2nc([H])nc(N([H])c3c([H])c([H])c(OC([H])([H])c4c([H])c([H])c([H])c(F)c4[H])c(Cl)c3[H])c2c1[H])=C(/[H])C([H])([H])N1C([H])([H])C([H])([H])C([H])([H])C1([H])[H]


 40 44  0  0  0  0  0  0  0  0999 V2000
   -0.2072  -53.0974  -24.7479 C   0  0  0  0  0  0  0  0  0  0  0  0
   -0.6155  -54.3683  -25.0367 N   0  0  0  0  0  0  0  0  0  0  0  0
   -0.0523  -55.1153  -25.9860 C   0  0  0  0  0  0  0  0  0  0  0  0
    0.9563  -54.5790  -26.6759 N   0  0  0  0  0  0  0  0  0  0  0  0
    1.4089  -53.3222  -26.4372 C   0  0  0  0  0  0  0  0  0  0  0  0
    2.4584  -52.7994  -27.1720 C   0  0  0  0  0  0  0  0  0  0  0  0
    2.9434  -51.5397  -26.9615 C   0  0  0  0  0  0  0  0  0  0  0  0
    2.3729  -50.7163  -25.9634 C   0  0  0  0  0  0  0  0  0  0  0  0
    1.3356  -51.2639  -25.2529 C   0  0  0  0  0  0  0  0  0  0  0  0
    0.8310  -52.5444  -25.4566 C   0  0  0  0  0  0  0  0  0  0  0  0
    2.9384  -49.4416  -25.7899 N   0  0  0  0  0  0  0  0  0  0  0  0
    3.9944  -49.1456  -24.9372 C   0  0  0  0  0  0  0  0  0  0  0  0
    4.5508  -50.0283  -24.2147 O   0  0  0  0  0  0  0  0  0  0  0  0
    2.5379  -48.6272  -26.3521 H   0  0  0  0  0  0  0  0  0  0  0  0
    4.5589  -47.7833  -24.7987 C   0  0  0  0  0  0  0  0  0  0  0  0
    5.4483  -47.3144  -25.6063 C   0  0  0  0  0  0  0  0  0  0  0  0
    6.0235  -45.9219  -25.4625 C   0  0  0  0  0  0  0  0  0  0  0  0
    7.4615  -46.1171  -25.2915 N   0  0  0  0  0  0  0  0  0  0  0  0
    7.8595  -47.4890  -25.4195 C   0  0  0  0  0  0  0  0  0  0  0  0
    8.5247  -47.9199  -24.1482 C   0  0  0  0  0  0  0  0  0  0  0  0
    8.9181  -46.6355  -23.4944 C   0  0  0  0  0  0  0  0  0  0  0  0
    7.9262  -45.6257  -24.0312 C   0  0  0  0  0  0  0  0  0  0  0  0
   -0.8727  -52.3401  -23.7585 N   0  0  0  0  0  0  0  0  0  0  0  0
   -1.5819  -51.6083  -24.0812 H   0  0  0  0  0  0  0  0  0  0  0  0
   -0.4287  -52.8079  -19.6015 C   0  0  0  0  0  0  0  0  0  0  0  0
   -1.0839  -53.7525  -20.3434 C   0  0  0  0  0  0  0  0  0  0  0  0
   -1.2207  -53.6042  -21.7199 C   0  0  0  0  0  0  0  0  0  0  0  0
   -0.6815  -52.4741  -22.3557 C   0  0  0  0  0  0  0  0  0  0  0  0
   -0.0307  -51.5316  -21.6243 C   0  0  0  0  0  0  0  0  0  0  0  0
    0.0888  -51.7118  -20.2476 C   0  0  0  0  0  0  0  0  0  0  0  0
    0.9295  -50.4870  -19.3344 Cl  0  0  0  0  0  0  0  0  0  0  0  0
   -0.2844  -52.9332  -18.2578 O   0  0  0  0  0  0  0  0  0  0  0  0
   -0.4435  -51.9793  -17.2627 C   0  0  0  0  0  0  0  0  0  0  0  0
   -4.9800  -53.5789  -16.4051 F   0  0  0  0  0  0  0  0  0  0  0  0
   -3.9846  -52.6703  -16.1759 C   0  0  0  0  0  0  0  0  0  0  0  0
   -4.2241  -51.6346  -15.2853 C   0  0  0  0  0  0  0  0  0  0  0  0
   -3.1927  -50.7438  -15.0863 C   0  0  0  0  0  0  0  0  0  0  0  0
   -1.9978  -50.8827  -15.7384 C   0  0  0  0  0  0  0  0  0  0  0  0
   -1.7616  -51.9204  -16.6288 C   0  0  0  0  0  0  0  0  0  0  0  0
   -2.7902  -52.8280  -16.8418 C   0  0  0  0  0  0  0  0  0  0  0  0
 34 35  1  0  0  0
 35 36  2  0  0  0
 36 37  1  0  0  0
 37 38  2  0  0  0
 38 39  1  0  0  0
 39 33  1  0  0  0
 33 32  1  0  0  0
 32 25  1  0  0  0
 25 26  2  0  0  0
 26 27  1  0  0  0
 27 28  2  0  0  0
 28 23  1  0  0  0
 23  1  1  0  0  0
  1  2  2  0  0  0
  2  3  1  0  0  0
  3  4  2  0  0  0
  4  5  1  0  0  0
  5  6  2  0  0  0
  6  7  1  0  0  0
  7  8  2  0  0  0
  8 11  1  0  0  0
 11 12  1  0  0  0
 12 13  2  0  0  0
 12 15  1  0  0  0
 15 16  2  0  0  0
 16 17  1  0  0  0
 17 18  1  0  0  0
 18 19  1  0  0  0
 19 20  1  0  0  0
 20 21  1  0  0  0
 21 22  1  0  0  0
  8  9  1  0  0  0
  9 10  2  0  0  0
 28 29  1  0  0  0
 29 30  2  0  0  0
 30 31  1  0  0  0
 39 40  2  0  0  0
 40 35  1  0  0  0
 30 25  1  0  0  0
 10  1  1  0  0  0
 10  5  1  0  0  0
 22 18  1  0  0  0
 23 24  1  0  0  0
 11 14  1  0  0  0
M  END
> <minimizedAffinity>
-7.96486

> <CNNscore>
0.1631334275

> <CNNaffinity>
6.8696737289

> <CNN_VS>
1.1206734180

> <CNNaffinity_variance>
0.1096857414

$$$$
[H]c1nn(C([H])([H])[H])c([H])c1N([H])c1nc([H])c2c([H])c(-c3c(Cl)c([H])c([H])c([H])c3Cl)c(=O)n(C([H])([H])[H])c2n1


 28 31  0  0  0  0  0  0  0  0999 V2000
   -0.6577  -53.5122  -20.3183 C   0  0  0  0  0  0  0  0  0  0  0  0
   -1.2344  -54.5282  -20.9536 N   0  0  0  0  0  0  0  0  0  0  0  0
   -1.2596  -54.6450  -22.2907 C   0  0  0  0  0  0  0  0  0  0  0  0
   -0.6714  -53.6903  -23.1104 C   0  0  0  0  0  0  0  0  0  0  0  0
   -0.6780  -53.7776  -24.4855 C   0  0  0  0  0  0  0  0  0  0  0  0
   -0.0825  -52.8082  -25.2681 C   0  0  0  0  0  0  0  0  0  0  0  0
    0.5099  -51.7635  -24.5944 C   0  0  0  0  0  0  0  0  0  0  0  0
    1.0629  -50.8626  -25.3099 O   0  0  0  0  0  0  0  0  0  0  0  0
    0.5059  -51.6962  -23.2555 N   0  0  0  0  0  0  0  0  0  0  0  0
    1.1413  -50.5795  -22.6034 C   0  0  0  0  0  0  0  0  0  0  0  0
   -0.0713  -52.6338  -22.4627 C   0  0  0  0  0  0  0  0  0  0  0  0
   -0.0820  -52.5791  -21.1486 N   0  0  0  0  0  0  0  0  0  0  0  0
   -0.0498  -52.8326  -26.7153 C   0  0  0  0  0  0  0  0  0  0  0  0
   -1.1677  -52.4953  -27.4729 C   0  0  0  0  0  0  0  0  0  0  0  0
   -2.6066  -52.0424  -26.5770 Cl  0  0  0  0  0  0  0  0  0  0  0  0
   -1.1458  -52.5157  -28.8539 C   0  0  0  0  0  0  0  0  0  0  0  0
   -0.0160  -52.8711  -29.5311 C   0  0  0  0  0  0  0  0  0  0  0  0
    1.1106  -53.2116  -28.8041 C   0  0  0  0  0  0  0  0  0  0  0  0
    1.0805  -53.1885  -27.4226 C   0  0  0  0  0  0  0  0  0  0  0  0
    2.5212  -53.6242  -26.5294 Cl  0  0  0  0  0  0  0  0  0  0  0  0
   -0.5938  -53.3260  -18.9180 N   0  0  0  0  0  0  0  0  0  0  0  0
   -0.9073  -54.1302  -18.2838 H   0  0  0  0  0  0  0  0  0  0  0  0
    1.7907  -49.0431  -17.9169 C   0  0  0  0  0  0  0  0  0  0  0  0
    0.8972  -50.2139  -17.8532 N   0  0  0  0  0  0  0  0  0  0  0  0
    0.8142  -51.2145  -18.7491 C   0  0  0  0  0  0  0  0  0  0  0  0
   -0.1322  -52.1188  -18.3421 C   0  0  0  0  0  0  0  0  0  0  0  0
   -0.6260  -51.6024  -17.1303 C   0  0  0  0  0  0  0  0  0  0  0  0
    0.0305  -50.4757  -16.9077 N   0  0  0  0  0  0  0  0  0  0  0  0
 23 24  1  0  0  0
 24 25  1  0  0  0
 25 26  2  0  0  0
 26 21  1  0  0  0
 21  1  1  0  0  0
  1  2  2  0  0  0
  2  3  1  0  0  0
  3  4  2  0  0  0
  4  5  1  0  0  0
  5  6  2  0  0  0
  6 13  1  0  0  0
 13 14  2  0  0  0
 14 15  1  0  0  0
 14 16  1  0  0  0
 16 17  2  0  0  0
 17 18  1  0  0  0
 18 19  2  0  0  0
 19 20  1  0  0  0
  6  7  1  0  0  0
  7  8  2  0  0  0
  7  9  1  0  0  0
  9 10  1  0  0  0
  9 11  1  0  0  0
 11 12  2  0  0  0
 26 27  1  0  0  0
 27 28  2  0  0  0
 28 24  1  0  0  0
 12  1  1  0  0  0
 11  4  1  0  0  0
 19 13  1  0  0  0
 21 22  1  0  0  0
M  END
> <minimizedAffinity>
-9.09649

> <CNNscore>
0.8293851018

> <CNNaffinity>
7.2255606651

> <CNN_VS>
5.9927725792

> <CNNaffinity_variance>
0.1630518585

$$$$
[H]c1nn(C([H])([H])[H])c([H])c1N([H])c1nc([H])c2c([H])c(-c3c(Cl)c([H])c([H])c([H])c3Cl)c(=O)n(C([H])([H])[H])c2n1


 28 31  0  0  0  0  0  0  0  0999 V2000
   -0.4048  -53.3636  -20.2587 C   0  0  0  0  0  0  0  0  0  0  0  0
   -1.0002  -54.3942  -20.8518 N   0  0  0  0  0  0  0  0  0  0  0  0
   -1.0810  -54.5341  -22.1845 C   0  0  0  0  0  0  0  0  0  0  0  0
   -0.5354  -53.5895  -23.0443 C   0  0  0  0  0  0  0  0  0  0  0  0
   -0.5995  -53.7005  -24.4162 C   0  0  0  0  0  0  0  0  0  0  0  0
   -0.0451  -52.7405  -25.2396 C   0  0  0  0  0  0  0  0  0  0  0  0
    0.5674  -51.6803  -24.6093 C   0  0  0  0  0  0  0  0  0  0  0  0
    1.0828  -50.7880  -25.3627 O   0  0  0  0  0  0  0  0  0  0  0  0
    0.6195  -51.5902  -23.2728 N   0  0  0  0  0  0  0  0  0  0  0  0
    1.2735  -50.4581  -22.6671 C   0  0  0  0  0  0  0  0  0  0  0  0
    0.0835  -52.5180  -22.4405 C   0  0  0  0  0  0  0  0  0  0  0  0
    0.1281  -52.4409  -21.1282 N   0  0  0  0  0  0  0  0  0  0  0  0
   -0.0735  -52.7895  -26.6863 C   0  0  0  0  0  0  0  0  0  0  0  0
    1.0417  -53.1804  -27.4218 C   0  0  0  0  0  0  0  0  0  0  0  0
    2.4717  -53.6068  -26.4990 Cl  0  0  0  0  0  0  0  0  0  0  0  0
    1.0240  -53.2301  -28.8021 C   0  0  0  0  0  0  0  0  0  0  0  0
   -0.0989  -52.8942  -29.5004 C   0  0  0  0  0  0  0  0  0  0  0  0
   -1.2227  -52.5016  -28.7957 C   0  0  0  0  0  0  0  0  0  0  0  0
   -1.1967  -52.4546  -27.4147 C   0  0  0  0  0  0  0  0  0  0  0  0
   -2.6337  -51.9541  -26.5499 Cl  0  0  0  0  0  0  0  0  0  0  0  0
   -0.2831  -53.1530  -18.8657 N   0  0  0  0  0  0  0  0  0  0  0  0
   -0.3995  -53.9941  -18.2127 H   0  0  0  0  0  0  0  0  0  0  0  0
   -0.1436  -49.0330  -16.0306 C   0  0  0  0  0  0  0  0  0  0  0  0
    0.0807  -50.0252  -17.0976 N   0  0  0  0  0  0  0  0  0  0  0  0
   -0.4669  -51.2510  -17.1870 C   0  0  0  0  0  0  0  0  0  0  0  0
   -0.0152  -51.8750  -18.3208 C   0  0  0  0  0  0  0  0  0  0  0  0
    0.8507  -50.9442  -18.9234 C   0  0  0  0  0  0  0  0  0  0  0  0
    0.8556  -49.8766  -18.1423 N   0  0  0  0  0  0  0  0  0  0  0  0
 23 24  1  0  0  0
 24 25  1  0  0  0
 25 26  2  0  0  0
 26 21  1  0  0  0
 21  1  1  0  0  0
  1  2  2  0  0  0
  2  3  1  0  0  0
  3  4  2  0  0  0
  4  5  1  0  0  0
  5  6  2  0  0  0
  6 13  1  0  0  0
 13 14  2  0  0  0
 14 15  1  0  0  0
 14 16  1  0  0  0
 16 17  2  0  0  0
 17 18  1  0  0  0
 18 19  2  0  0  0
 19 20  1  0  0  0
  6  7  1  0  0  0
  7  8  2  0  0  0
  7  9  1  0  0  0
  9 10  1  0  0  0
  9 11  1  0  0  0
 11 12  2  0  0  0
 26 27  1  0  0  0
 27 28  2  0  0  0
 28 24  1  0  0  0
 12  1  1  0  0  0
 11  4  1  0  0  0
 19 13  1  0  0  0
 21 22  1  0  0  0
M  END
> <minimizedAffinity>
-9.15634

> <CNNscore>
0.7876687050

> <CNNaffinity>
7.1594977379

> <CNN_VS>
5.6393122673

> <CNNaffinity_variance>
0.1948961914

$$$$
[H]c1nn(C([H])([H])[H])c([H])c1N([H])c1nc([H])c2c([H])c(-c3c(Cl)c([H])c([H])c([H])c3Cl)c(=O)n(C([H])([H])[H])c2n1


 28 31  0  0  0  0  0  0  0  0999 V2000
   -0.0629  -53.0032  -19.9835 C   0  0  0  0  0  0  0  0  0  0  0  0
   -0.6898  -54.0513  -20.5097 N   0  0  0  0  0  0  0  0  0  0  0  0
   -0.8257  -54.2440  -21.8313 C   0  0  0  0  0  0  0  0  0  0  0  0
   -0.3082  -53.3399  -22.7501 C   0  0  0  0  0  0  0  0  0  0  0  0
   -0.4288  -53.5055  -24.1126 C   0  0  0  0  0  0  0  0  0  0  0  0
    0.0990  -52.5847  -24.9960 C   0  0  0  0  0  0  0  0  0  0  0  0
    0.7446  -51.5057  -24.4345 C   0  0  0  0  0  0  0  0  0  0  0  0
    1.2358  -50.6493  -25.2437 O   0  0  0  0  0  0  0  0  0  0  0  0
    0.8517  -51.3622  -23.1060 N   0  0  0  0  0  0  0  0  0  0  0  0
    1.5384  -50.2128  -22.5736 C   0  0  0  0  0  0  0  0  0  0  0  0
    0.3429  -52.2508  -22.2158 C   0  0  0  0  0  0  0  0  0  0  0  0
    0.4413  -52.1212  -20.9105 N   0  0  0  0  0  0  0  0  0  0  0  0
    0.0116  -52.6917  -26.4372 C   0  0  0  0  0  0  0  0  0  0  0  0
    1.0904  -53.1299  -27.1998 C   0  0  0  0  0  0  0  0  0  0  0  0
    2.5501  -53.5416  -26.3178 Cl  0  0  0  0  0  0  0  0  0  0  0  0
    1.0162  -53.2351  -28.5751 C   0  0  0  0  0  0  0  0  0  0  0  0
   -0.1289  -52.9097  -29.2414 C   0  0  0  0  0  0  0  0  0  0  0  0
   -1.2175  -52.4709  -28.5093 C   0  0  0  0  0  0  0  0  0  0  0  0
   -1.1352  -52.3685  -27.1335 C   0  0  0  0  0  0  0  0  0  0  0  0
   -2.5287  -51.8103  -26.2336 Cl  0  0  0  0  0  0  0  0  0  0  0  0
    0.1168  -52.7377  -18.6062 N   0  0  0  0  0  0  0  0  0  0  0  0
    1.1163  -52.6938  -18.2235 H   0  0  0  0  0  0  0  0  0  0  0  0
   -4.2548  -52.9789  -16.1849 C   0  0  0  0  0  0  0  0  0  0  0  0
   -2.9012  -52.5982  -16.6278 N   0  0  0  0  0  0  0  0  0  0  0  0
   -2.1909  -53.1595  -17.6232 C   0  0  0  0  0  0  0  0  0  0  0  0
   -0.9773  -52.5316  -17.7329 C   0  0  0  0  0  0  0  0  0  0  0  0
   -0.9918  -51.5426  -16.7326 C   0  0  0  0  0  0  0  0  0  0  0  0
   -2.1611  -51.6441  -16.1221 N   0  0  0  0  0  0  0  0  0  0  0  0
 23 24  1  0  0  0
 24 25  1  0  0  0
 25 26  2  0  0  0
 26 21  1  0  0  0
 21  1  1  0  0  0
  1  2  2  0  0  0
  2  3  1  0  0  0
  3  4  2  0  0  0
  4  5  1  0  0  0
  5  6  2  0  0  0
  6 13  1  0  0  0
 13 14  2  0  0  0
 14 15  1  0  0  0
 14 16  1  0  0  0
 16 17  2  0  0  0
 17 18  1  0  0  0
 18 19  2  0  0  0
 19 20  1  0  0  0
  6  7  1  0  0  0
  7  8  2  0  0  0
  7  9  1  0  0  0
  9 10  1  0  0  0
  9 11  1  0  0  0
 11 12  2  0  0  0
 26 27  1  0  0  0
 27 28  2  0  0  0
 28 24  1  0  0  0
 12  1  1  0  0  0
 11  4  1  0  0  0
 19 13  1  0  0  0
 21 22  1  0  0  0
M  END
> <minimizedAffinity>
-8.81091

> <CNNscore>
0.7513256073

> <CNNaffinity>
7.1365385056

> <CNN_VS>
5.3618640900

> <CNNaffinity_variance>
0.2333962172

$$$$
[H]c1nn(C([H])([H])[H])c([H])c1N([H])c1nc([H])c2c([H])c(-c3c(Cl)c([H])c([H])c([H])c3Cl)c(=O)n(C([H])([H])[H])c2n1


 28 31  0  0  0  0  0  0  0  0999 V2000
    0.1245  -52.8673  -19.9779 C   0  0  0  0  0  0  0  0  0  0  0  0
   -0.4662  -53.9466  -20.4823 N   0  0  0  0  0  0  0  0  0  0  0  0
   -0.6058  -54.1650  -21.7995 C   0  0  0  0  0  0  0  0  0  0  0  0
   -0.1308  -53.2565  -22.7367 C   0  0  0  0  0  0  0  0  0  0  0  0
   -0.2564  -53.4479  -24.0953 C   0  0  0  0  0  0  0  0  0  0  0  0
    0.2286  -52.5216  -24.9974 C   0  0  0  0  0  0  0  0  0  0  0  0
    0.8372  -51.4102  -24.4584 C   0  0  0  0  0  0  0  0  0  0  0  0
    1.2886  -50.5486  -25.2850 O   0  0  0  0  0  0  0  0  0  0  0  0
    0.9498  -51.2419  -23.1332 N   0  0  0  0  0  0  0  0  0  0  0  0
    1.5966  -50.0591  -22.6248 C   0  0  0  0  0  0  0  0  0  0  0  0
    0.4827  -52.1351  -22.2250 C   0  0  0  0  0  0  0  0  0  0  0  0
    0.5870  -51.9814  -20.9228 N   0  0  0  0  0  0  0  0  0  0  0  0
    0.1332  -52.6545  -26.4360 C   0  0  0  0  0  0  0  0  0  0  0  0
   -1.0503  -52.3774  -27.1141 C   0  0  0  0  0  0  0  0  0  0  0  0
   -2.4083  -51.8619  -26.1300 Cl  0  0  0  0  0  0  0  0  0  0  0  0
   -1.1507  -52.5013  -28.4862 C   0  0  0  0  0  0  0  0  0  0  0  0
   -0.0822  -52.9039  -29.2329 C   0  0  0  0  0  0  0  0  0  0  0  0
    1.1074  -53.1863  -28.5857 C   0  0  0  0  0  0  0  0  0  0  0  0
    1.1996  -53.0598  -27.2125 C   0  0  0  0  0  0  0  0  0  0  0  0
    2.7176  -53.4240  -26.4211 Cl  0  0  0  0  0  0  0  0  0  0  0  0
    0.3055  -52.5736  -18.6064 N   0  0  0  0  0  0  0  0  0  0  0  0
    1.3057  -52.5074  -18.2288 H   0  0  0  0  0  0  0  0  0  0  0  0
   -4.0505  -52.8393  -16.1598 C   0  0  0  0  0  0  0  0  0  0  0  0
   -2.7058  -52.4445  -16.6172 N   0  0  0  0  0  0  0  0  0  0  0  0
   -1.9901  -53.0146  -17.6037 C   0  0  0  0  0  0  0  0  0  0  0  0
   -0.7882  -52.3680  -17.7327 C   0  0  0  0  0  0  0  0  0  0  0  0
   -0.8158  -51.3581  -16.7537 C   0  0  0  0  0  0  0  0  0  0  0  0
   -1.9804  -51.4669  -16.1357 N   0  0  0  0  0  0  0  0  0  0  0  0
 23 24  1  0  0  0
 24 25  1  0  0  0
 25 26  2  0  0  0
 26 21  1  0  0  0
 21  1  1  0  0  0
  1  2  2  0  0  0
  2  3  1  0  0  0
  3  4  2  0  0  0
  4  5  1  0  0  0
  5  6  2  0  0  0
  6 13  1  0  0  0
 13 14  2  0  0  0
 14 15  1  0  0  0
 14 16  1  0  0  0
 16 17  2  0  0  0
 17 18  1  0  0  0
 18 19  2  0  0  0
 19 20  1  0  0  0
  6  7  1  0  0  0
  7  8  2  0  0  0
  7  9  1  0  0  0
  9 10  1  0  0  0
  9 11  1  0  0  0
 11 12  2  0  0  0
 26 27  1  0  0  0
 27 28  2  0  0  0
 28 24  1  0  0  0
 12  1  1  0  0  0
 11  4  1  0  0  0
 19 13  1  0  0  0
 21 22  1  0  0  0
M  END
> <minimizedAffinity>
-8.71676

> <CNNscore>
0.6831562519

> <CNNaffinity>
7.0632348061

> <CNN_VS>
4.8252930641

> <CNNaffinity_variance>
0.2524151206

$$$$
[H]c1nn(C([H])([H])[H])c([H])c1N([H])c1nc([H])c2c([H])c(-c3c(Cl)c([H])c([H])c([H])c3Cl)c(=O)n(C([H])([H])[H])c2n1


 28 31  0  0  0  0  0  0  0  0999 V2000
   -0.5596  -52.4813  -22.0083 C   0  0  0  0  0  0  0  0  0  0  0  0
   -0.8106  -53.3785  -21.0594 N   0  0  0  0  0  0  0  0  0  0  0  0
   -0.5296  -53.1799  -19.7618 C   0  0  0  0  0  0  0  0  0  0  0  0
    0.0535  -51.9986  -19.3215 C   0  0  0  0  0  0  0  0  0  0  0  0
    0.3555  -51.7606  -17.9984 C   0  0  0  0  0  0  0  0  0  0  0  0
    0.9354  -50.5730  -17.5981 C   0  0  0  0  0  0  0  0  0  0  0  0
    1.1885  -49.6553  -18.5931 C   0  0  0  0  0  0  0  0  0  0  0  0
    1.7246  -48.5545  -18.2321 O   0  0  0  0  0  0  0  0  0  0  0  0
    0.8873  -49.9054  -19.8751 N   0  0  0  0  0  0  0  0  0  0  0  0
    1.1745  -48.9082  -20.8747 C   0  0  0  0  0  0  0  0  0  0  0  0
    0.3177  -51.0626  -20.2961 C   0  0  0  0  0  0  0  0  0  0  0  0
    0.0175  -51.3198  -21.5506 N   0  0  0  0  0  0  0  0  0  0  0  0
    1.2804  -50.2528  -16.2289 C   0  0  0  0  0  0  0  0  0  0  0  0
    2.5741  -50.4273  -15.7460 C   0  0  0  0  0  0  0  0  0  0  0  0
    3.7520  -51.0530  -16.8859 Cl  0  0  0  0  0  0  0  0  0  0  0  0
    2.9125  -50.1246  -14.4414 C   0  0  0  0  0  0  0  0  0  0  0  0
    1.9808  -49.6390  -13.5711 C   0  0  0  0  0  0  0  0  0  0  0  0
    0.6863  -49.4554  -14.0234 C   0  0  0  0  0  0  0  0  0  0  0  0
    0.3560  -49.7606  -15.3302 C   0  0  0  0  0  0  0  0  0  0  0  0
   -1.2898  -49.5180  -15.8742 Cl  0  0  0  0  0  0  0  0  0  0  0  0
   -0.8282  -52.6233  -23.3894 N   0  0  0  0  0  0  0  0  0  0  0  0
   -1.8361  -52.4911  -23.7271 H   0  0  0  0  0  0  0  0  0  0  0  0
    3.3557  -52.7262  -26.1309 C   0  0  0  0  0  0  0  0  0  0  0  0
    2.0255  -53.0191  -25.5669 N   0  0  0  0  0  0  0  0  0  0  0  0
    1.4138  -52.3651  -24.5626 C   0  0  0  0  0  0  0  0  0  0  0  0
    0.1887  -52.9319  -24.3235 C   0  0  0  0  0  0  0  0  0  0  0  0
    0.0904  -53.9826  -25.2538 C   0  0  0  0  0  0  0  0  0  0  0  0
    1.2136  -53.9708  -25.9527 N   0  0  0  0  0  0  0  0  0  0  0  0
 23 24  1  0  0  0
 24 25  1  0  0  0
 25 26  2  0  0  0
 26 21  1  0  0  0
 21  1  1  0  0  0
  1  2  2  0  0  0
  2  3  1  0  0  0
  3  4  2  0  0  0
  4  5  1  0  0  0
  5  6  2  0  0  0
  6 13  1  0  0  0
 13 14  2  0  0  0
 14 15  1  0  0  0
 14 16  1  0  0  0
 16 17  2  0  0  0
 17 18  1  0  0  0
 18 19  2  0  0  0
 19 20  1  0  0  0
  6  7  1  0  0  0
  7  8  2  0  0  0
  7  9  1  0  0  0
  9 10  1  0  0  0
  9 11  1  0  0  0
 11 12  2  0  0  0
 26 27  1  0  0  0
 27 28  2  0  0  0
 28 24  1  0  0  0
 12  1  1  0  0  0
 11  4  1  0  0  0
 19 13  1  0  0  0
 21 22  1  0  0  0
M  END
> <minimizedAffinity>
-6.93372

> <CNNscore>
0.3802220523

> <CNNaffinity>
6.4769225121

> <CNN_VS>
2.4626686573

> <CNNaffinity_variance>
0.3712306321

$$$$
[H]c1nn(C([H])([H])[H])c([H])c1N([H])c1nc([H])c2c([H])c(-c3c(Cl)c([H])c([H])c([H])c3Cl)c(=O)n(C([H])([H])[H])c2n1


 28 31  0  0  0  0  0  0  0  0999 V2000
   -0.4395  -52.2626  -21.6743 C   0  0  0  0  0  0  0  0  0  0  0  0
   -0.7519  -53.1090  -20.6973 N   0  0  0  0  0  0  0  0  0  0  0  0
   -0.4760  -52.8789  -19.4039 C   0  0  0  0  0  0  0  0  0  0  0  0
    0.1670  -51.7165  -18.9981 C   0  0  0  0  0  0  0  0  0  0  0  0
    0.4658  -51.4473  -17.6803 C   0  0  0  0  0  0  0  0  0  0  0  0
    1.1065  -50.2799  -17.3147 C   0  0  0  0  0  0  0  0  0  0  0  0
    1.4227  -49.4148  -18.3384 C   0  0  0  0  0  0  0  0  0  0  0  0
    2.0151  -48.3329  -18.0097 O   0  0  0  0  0  0  0  0  0  0  0  0
    1.1235  -49.6946  -19.6148 N   0  0  0  0  0  0  0  0  0  0  0  0
    1.4782  -48.7522  -20.6454 C   0  0  0  0  0  0  0  0  0  0  0  0
    0.4950  -50.8330  -20.0019 C   0  0  0  0  0  0  0  0  0  0  0  0
    0.1962  -51.1190  -21.2505 N   0  0  0  0  0  0  0  0  0  0  0  0
    1.4522  -49.9293  -15.9532 C   0  0  0  0  0  0  0  0  0  0  0  0
    0.5729  -49.2199  -15.1402 C   0  0  0  0  0  0  0  0  0  0  0  0
   -0.9665  -48.7797  -15.8577 Cl  0  0  0  0  0  0  0  0  0  0  0  0
    0.8940  -48.8810  -13.8402 C   0  0  0  0  0  0  0  0  0  0  0  0
    2.0969  -49.2333  -13.3016 C   0  0  0  0  0  0  0  0  0  0  0  0
    2.9912  -49.9390  -14.0865 C   0  0  0  0  0  0  0  0  0  0  0  0
    2.6622  -50.2742  -15.3863 C   0  0  0  0  0  0  0  0  0  0  0  0
    3.8136  -51.1674  -16.3557 Cl  0  0  0  0  0  0  0  0  0  0  0  0
   -0.6989  -52.4400  -23.0530 N   0  0  0  0  0  0  0  0  0  0  0  0
   -1.7070  -52.3316  -23.3983 H   0  0  0  0  0  0  0  0  0  0  0  0
    3.5886  -52.6987  -25.6185 C   0  0  0  0  0  0  0  0  0  0  0  0
    2.2075  -52.9040  -25.1457 N   0  0  0  0  0  0  0  0  0  0  0  0
    1.6160  -52.3020  -24.0978 C   0  0  0  0  0  0  0  0  0  0  0  0
    0.3275  -52.7534  -23.9752 C   0  0  0  0  0  0  0  0  0  0  0  0
    0.1683  -53.6773  -25.0240 C   0  0  0  0  0  0  0  0  0  0  0  0
    1.3215  -53.7119  -25.6713 N   0  0  0  0  0  0  0  0  0  0  0  0
 23 24  1  0  0  0
 24 25  1  0  0  0
 25 26  2  0  0  0
 26 21  1  0  0  0
 21  1  1  0  0  0
  1  2  2  0  0  0
  2  3  1  0  0  0
  3  4  2  0  0  0
  4  5  1  0  0  0
  5  6  2  0  0  0
  6 13  1  0  0  0
 13 14  2  0  0  0
 14 15  1  0  0  0
 14 16  1  0  0  0
 16 17  2  0  0  0
 17 18  1  0  0  0
 18 19  2  0  0  0
 19 20  1  0  0  0
  6  7  1  0  0  0
  7  8  2  0  0  0
  7  9  1  0  0  0
  9 10  1  0  0  0
  9 11  1  0  0  0
 11 12  2  0  0  0
 26 27  1  0  0  0
 27 28  2  0  0  0
 28 24  1  0  0  0
 12  1  1  0  0  0
 11  4  1  0  0  0
 19 13  1  0  0  0
 21 22  1  0  0  0
M  END
> <minimizedAffinity>
-6.79523

> <CNNscore>
0.2967546284

> <CNNaffinity>
6.2736101151

> <CNN_VS>
1.8617228270

> <CNNaffinity_variance>
0.2915056348

$$$$
[H]c1nn(C([H])([H])[H])c([H])c1N([H])c1nc([H])c2c([H])c(-c3c(Cl)c([H])c([H])c([H])c3Cl)c(=O)n(C([H])([H])[H])c2n1


 28 31  0  0  0  0  0  0  0  0999 V2000
    0.5300  -52.4402  -21.6443 C   0  0  0  0  0  0  0  0  0  0  0  0
   -0.0715  -53.5319  -21.1807 N   0  0  0  0  0  0  0  0  0  0  0  0
   -0.5066  -53.6556  -19.9168 C   0  0  0  0  0  0  0  0  0  0  0  0
   -0.3516  -52.6276  -18.9956 C   0  0  0  0  0  0  0  0  0  0  0  0
   -0.7857  -52.7196  -17.6912 C   0  0  0  0  0  0  0  0  0  0  0  0
   -0.6138  -51.6759  -16.8034 C   0  0  0  0  0  0  0  0  0  0  0  0
    0.0106  -50.5534  -17.2996 C   0  0  0  0  0  0  0  0  0  0  0  0
    0.1737  -49.5835  -16.4859 O   0  0  0  0  0  0  0  0  0  0  0  0
    0.4259  -50.4829  -18.5723 N   0  0  0  0  0  0  0  0  0  0  0  0
    1.0736  -49.2829  -19.0376 C   0  0  0  0  0  0  0  0  0  0  0  0
    0.2701  -51.4925  -19.4653 C   0  0  0  0  0  0  0  0  0  0  0  0
    0.6731  -51.4355  -20.7160 N   0  0  0  0  0  0  0  0  0  0  0  0
   -1.0429  -51.7001  -15.4208 C   0  0  0  0  0  0  0  0  0  0  0  0
   -2.3888  -51.6148  -15.0764 C   0  0  0  0  0  0  0  0  0  0  0  0
   -3.5248  -51.4776  -16.4064 Cl  0  0  0  0  0  0  0  0  0  0  0  0
   -2.8075  -51.6371  -13.7602 C   0  0  0  0  0  0  0  0  0  0  0  0
   -1.9072  -51.7444  -12.7409 C   0  0  0  0  0  0  0  0  0  0  0  0
   -0.5623  -51.8307  -13.0533 C   0  0  0  0  0  0  0  0  0  0  0  0
   -0.1516  -51.8079  -14.3727 C   0  0  0  0  0  0  0  0  0  0  0  0
    1.5565  -51.9189  -14.7377 Cl  0  0  0  0  0  0  0  0  0  0  0  0
    1.0120  -52.2420  -22.9588 N   0  0  0  0  0  0  0  0  0  0  0  0
    1.9679  -51.7753  -23.0844 H   0  0  0  0  0  0  0  0  0  0  0  0
   -1.3700  -52.4466  -27.3538 C   0  0  0  0  0  0  0  0  0  0  0  0
   -0.7979  -52.7813  -26.0370 N   0  0  0  0  0  0  0  0  0  0  0  0
   -0.0862  -51.9670  -25.2365 C   0  0  0  0  0  0  0  0  0  0  0  0
    0.2718  -52.6399  -24.0972 C   0  0  0  0  0  0  0  0  0  0  0  0
   -0.2712  -53.9281  -24.2542 C   0  0  0  0  0  0  0  0  0  0  0  0
   -0.8884  -53.9347  -25.4243 N   0  0  0  0  0  0  0  0  0  0  0  0
 23 24  1  0  0  0
 24 25  1  0  0  0
 25 26  2  0  0  0
 26 21  1  0  0  0
 21  1  1  0  0  0
  1  2  2  0  0  0
  2  3  1  0  0  0
  3  4  2  0  0  0
  4  5  1  0  0  0
  5  6  2  0  0  0
  6 13  1  0  0  0
 13 14  2  0  0  0
 14 15  1  0  0  0
 14 16  1  0  0  0
 16 17  2  0  0  0
 17 18  1  0  0  0
 18 19  2  0  0  0
 19 20  1  0  0  0
  6  7  1  0  0  0
  7  8  2  0  0  0
  7  9  1  0  0  0
  9 10  1  0  0  0
  9 11  1  0  0  0
 11 12  2  0  0  0
 26 27  1  0  0  0
 27 28  2  0  0  0
 28 24  1  0  0  0
 12  1  1  0  0  0
 11  4  1  0  0  0
 19 13  1  0  0  0
 21 22  1  0  0  0
M  END
> <minimizedAffinity>
-7.09970

> <CNNscore>
0.2870488763

> <CNNaffinity>
6.5473127365

> <CNN_VS>
1.8793988228

> <CNNaffinity_variance>
0.1682642102

$$$$
[H]c1nn(C([H])([H])[H])c([H])c1N([H])c1nc([H])c2c([H])c(-c3c(Cl)c([H])c([H])c([H])c3Cl)c(=O)n(C([H])([H])[H])c2n1


 28 31  0  0  0  0  0  0  0  0999 V2000
   -0.7013  -51.3106  -21.0978 C   0  0  0  0  0  0  0  0  0  0  0  0
   -0.3080  -50.0806  -20.7803 N   0  0  0  0  0  0  0  0  0  0  0  0
    0.3550  -49.2755  -21.6255 C   0  0  0  0  0  0  0  0  0  0  0  0
    0.6778  -49.6876  -22.9121 C   0  0  0  0  0  0  0  0  0  0  0  0
    1.3569  -48.8886  -23.8058 C   0  0  0  0  0  0  0  0  0  0  0  0
    1.6604  -49.3331  -25.0775 C   0  0  0  0  0  0  0  0  0  0  0  0
    1.2460  -50.6086  -25.3898 C   0  0  0  0  0  0  0  0  0  0  0  0
    1.5222  -51.0279  -26.5634 O   0  0  0  0  0  0  0  0  0  0  0  0
    0.5861  -51.3709  -24.5063 N   0  0  0  0  0  0  0  0  0  0  0  0
    0.1764  -52.6987  -24.8875 C   0  0  0  0  0  0  0  0  0  0  0  0
    0.2751  -50.9598  -23.2512 C   0  0  0  0  0  0  0  0  0  0  0  0
   -0.3716  -51.6981  -22.3755 N   0  0  0  0  0  0  0  0  0  0  0  0
    2.3697  -48.5517  -26.0687 C   0  0  0  0  0  0  0  0  0  0  0  0
    1.7978  -47.4233  -26.6493 C   0  0  0  0  0  0  0  0  0  0  0  0
    0.1799  -47.0077  -26.1128 Cl  0  0  0  0  0  0  0  0  0  0  0  0
    2.4669  -46.6717  -27.5957 C   0  0  0  0  0  0  0  0  0  0  0  0
    3.7248  -47.0126  -27.9990 C   0  0  0  0  0  0  0  0  0  0  0  0
    4.3184  -48.1297  -27.4390 C   0  0  0  0  0  0  0  0  0  0  0  0
    3.6423  -48.8762  -26.4927 C   0  0  0  0  0  0  0  0  0  0  0  0
    4.4184  -50.2845  -25.8015 Cl  0  0  0  0  0  0  0  0  0  0  0  0
   -1.4008  -52.2102  -20.2604 N   0  0  0  0  0  0  0  0  0  0  0  0
   -2.1345  -52.8517  -20.7047 H   0  0  0  0  0  0  0  0  0  0  0  0
    0.5135  -51.8158  -15.6548 C   0  0  0  0  0  0  0  0  0  0  0  0
   -0.3509  -52.1338  -16.8059 N   0  0  0  0  0  0  0  0  0  0  0  0
   -0.1289  -51.8134  -18.0937 C   0  0  0  0  0  0  0  0  0  0  0  0
   -1.1583  -52.2820  -18.8682 C   0  0  0  0  0  0  0  0  0  0  0  0
   -2.0305  -52.9144  -17.9636 C   0  0  0  0  0  0  0  0  0  0  0  0
   -1.4856  -52.7853  -16.7651 N   0  0  0  0  0  0  0  0  0  0  0  0
 23 24  1  0  0  0
 24 25  1  0  0  0
 25 26  2  0  0  0
 26 21  1  0  0  0
 21  1  1  0  0  0
  1  2  2  0  0  0
  2  3  1  0  0  0
  3  4  2  0  0  0
  4  5  1  0  0  0
  5  6  2  0  0  0
  6 13  1  0  0  0
 13 14  2  0  0  0
 14 15  1  0  0  0
 14 16  1  0  0  0
 16 17  2  0  0  0
 17 18  1  0  0  0
 18 19  2  0  0  0
 19 20  1  0  0  0
  6  7  1  0  0  0
  7  8  2  0  0  0
  7  9  1  0  0  0
  9 10  1  0  0  0
  9 11  1  0  0  0
 11 12  2  0  0  0
 26 27  1  0  0  0
 27 28  2  0  0  0
 28 24  1  0  0  0
 12  1  1  0  0  0
 11  4  1  0  0  0
 19 13  1  0  0  0
 21 22  1  0  0  0
M  END
> <minimizedAffinity>
10.65736

> <CNNscore>
0.2611322999

> <CNNaffinity>
5.8459887505

> <CNN_VS>
1.5265765190

> <CNNaffinity_variance>
1.1801837683

$$$$
[H]c1nn(C([H])([H])[H])c([H])c1N([H])c1nc([H])c2c([H])c(-c3c(Cl)c([H])c([H])c([H])c3Cl)c(=O)n(C([H])([H])[H])c2n1


 28 31  0  0  0  0  0  0  0  0999 V2000
   -0.2966  -53.2713  -23.4390 C   0  0  0  0  0  0  0  0  0  0  0  0
   -1.0607  -52.6960  -22.5152 N   0  0  0  0  0  0  0  0  0  0  0  0
   -0.6121  -51.7613  -21.6624 C   0  0  0  0  0  0  0  0  0  0  0  0
    0.7074  -51.3286  -21.6939 C   0  0  0  0  0  0  0  0  0  0  0  0
    1.2022  -50.3719  -20.8346 C   0  0  0  0  0  0  0  0  0  0  0  0
    2.5208  -49.9666  -20.8959 C   0  0  0  0  0  0  0  0  0  0  0  0
    3.2980  -50.5723  -21.8579 C   0  0  0  0  0  0  0  0  0  0  0  0
    4.5185  -50.2038  -21.9217 O   0  0  0  0  0  0  0  0  0  0  0  0
    2.7982  -51.5014  -22.6849 N   0  0  0  0  0  0  0  0  0  0  0  0
    3.6578  -52.1020  -23.6731 C   0  0  0  0  0  0  0  0  0  0  0  0
    1.5075  -51.9180  -22.6468 C   0  0  0  0  0  0  0  0  0  0  0  0
    1.0054  -52.8284  -23.4525 N   0  0  0  0  0  0  0  0  0  0  0  0
    3.1103  -48.9689  -20.0279 C   0  0  0  0  0  0  0  0  0  0  0  0
    3.2133  -47.6367  -20.4177 C   0  0  0  0  0  0  0  0  0  0  0  0
    2.5914  -47.2419  -22.0101 Cl  0  0  0  0  0  0  0  0  0  0  0  0
    3.7741  -46.6780  -19.5965 C   0  0  0  0  0  0  0  0  0  0  0  0
    4.2519  -47.0065  -18.3615 C   0  0  0  0  0  0  0  0  0  0  0  0
    4.1629  -48.3234  -17.9474 C   0  0  0  0  0  0  0  0  0  0  0  0
    3.6003  -49.2766  -18.7750 C   0  0  0  0  0  0  0  0  0  0  0  0
    3.5012  -50.9349  -18.2242 Cl  0  0  0  0  0  0  0  0  0  0  0  0
   -0.7015  -54.2590  -24.3666 N   0  0  0  0  0  0  0  0  0  0  0  0
   -1.2835  -55.0838  -24.0086 H   0  0  0  0  0  0  0  0  0  0  0  0
   -0.0577  -52.8508  -29.1241 C   0  0  0  0  0  0  0  0  0  0  0  0
   -0.0506  -53.6065  -27.8583 N   0  0  0  0  0  0  0  0  0  0  0  0
   -0.5601  -53.2080  -26.6785 C   0  0  0  0  0  0  0  0  0  0  0  0
   -0.3606  -54.1849  -25.7378 C   0  0  0  0  0  0  0  0  0  0  0  0
    0.3089  -55.2143  -26.4242 C   0  0  0  0  0  0  0  0  0  0  0  0
    0.4561  -54.7990  -27.6716 N   0  0  0  0  0  0  0  0  0  0  0  0
 23 24  1  0  0  0
 24 25  1  0  0  0
 25 26  2  0  0  0
 26 21  1  0  0  0
 21  1  1  0  0  0
  1  2  2  0  0  0
  2  3  1  0  0  0
  3  4  2  0  0  0
  4  5  1  0  0  0
  5  6  2  0  0  0
  6 13  1  0  0  0
 13 14  2  0  0  0
 14 15  1  0  0  0
 14 16  1  0  0  0
 16 17  2  0  0  0
 17 18  1  0  0  0
 18 19  2  0  0  0
 19 20  1  0  0  0
  6  7  1  0  0  0
  7  8  2  0  0  0
  7  9  1  0  0  0
  9 10  1  0  0  0
  9 11  1  0  0  0
 11 12  2  0  0  0
 26 27  1  0  0  0
 27 28  2  0  0  0
 28 24  1  0  0  0
 12  1  1  0  0  0
 11  4  1  0  0  0
 19 13  1  0  0  0
 21 22  1  0  0  0
M  END
> <minimizedAffinity>
-6.96015

> <CNNscore>
0.2303710729

> <CNNaffinity>
6.6345038414

> <CNN_VS>
1.5283977985

> <CNNaffinity_variance>
0.2674334645

$$$$
[H]c1nc(N([H])c2c([H])c([H])c(OC([H])([H])c3nc([H])c([H])c([H])c3[H])c(Cl)c2[H])c2c(C([H])([H])N3C([H])([H])C([H])([H])N(C([H])([H])[H])C([H])([H])C3([H])[H])c([H])c([H])n2n1


 34 38  0  0  0  0  0  0  0  0999 V2000
    0.6635  -51.6157  -24.7225 C   0  0  0  0  0  0  0  0  0  0  0  0
   -0.0769  -51.6038  -25.9283 C   0  0  0  0  0  0  0  0  0  0  0  0
   -0.9214  -52.7048  -25.9190 C   0  0  0  0  0  0  0  0  0  0  0  0
   -0.7472  -53.3695  -24.7960 N   0  0  0  0  0  0  0  0  0  0  0  0
   -1.3534  -54.4195  -24.2741 N   0  0  0  0  0  0  0  0  0  0  0  0
   -1.1139  -54.9146  -23.0426 C   0  0  0  0  0  0  0  0  0  0  0  0
   -0.1786  -54.2711  -22.2592 N   0  0  0  0  0  0  0  0  0  0  0  0
    0.4410  -53.2097  -22.7784 C   0  0  0  0  0  0  0  0  0  0  0  0
    0.1828  -52.7309  -24.0740 C   0  0  0  0  0  0  0  0  0  0  0  0
    1.2909  -52.4447  -21.9517 N   0  0  0  0  0  0  0  0  0  0  0  0
    2.2019  -52.0455  -22.1291 H   0  0  0  0  0  0  0  0  0  0  0  0
    0.8324  -52.1052  -20.5873 C   0  0  0  0  0  0  0  0  0  0  0  0
   -0.0462  -52.9036  -19.9289 C   0  0  0  0  0  0  0  0  0  0  0  0
   -0.5187  -52.5823  -18.6655 C   0  0  0  0  0  0  0  0  0  0  0  0
   -0.1072  -51.4411  -18.0626 C   0  0  0  0  0  0  0  0  0  0  0  0
    0.7915  -50.6092  -18.7367 C   0  0  0  0  0  0  0  0  0  0  0  0
    1.2895  -49.1090  -17.9133 Cl  0  0  0  0  0  0  0  0  0  0  0  0
    1.2708  -50.9217  -19.9742 C   0  0  0  0  0  0  0  0  0  0  0  0
   -0.5291  -51.0637  -16.8699 O   0  0  0  0  0  0  0  0  0  0  0  0
   -0.7075  -51.7367  -15.6716 C   0  0  0  0  0  0  0  0  0  0  0  0
   -2.1860  -51.3336  -15.3968 C   0  0  0  0  0  0  0  0  0  0  0  0
   -3.1769  -52.0485  -16.0095 C   0  0  0  0  0  0  0  0  0  0  0  0
   -4.4755  -51.5295  -15.9740 C   0  0  0  0  0  0  0  0  0  0  0  0
   -4.7071  -50.3128  -15.3230 C   0  0  0  0  0  0  0  0  0  0  0  0
   -3.6741  -49.6590  -14.7354 C   0  0  0  0  0  0  0  0  0  0  0  0
   -2.4398  -50.1792  -14.7829 N   0  0  0  0  0  0  0  0  0  0  0  0
    1.9327  -50.9356  -24.4883 C   0  0  0  0  0  0  0  0  0  0  0  0
    5.8193  -50.8797  -22.1389 C   0  0  0  0  0  0  0  0  0  0  0  0
    5.7684  -50.7134  -23.6011 N   0  0  0  0  0  0  0  0  0  0  0  0
    5.4778  -51.9971  -24.2144 C   0  0  0  0  0  0  0  0  0  0  0  0
    3.9700  -52.3237  -24.0095 C   0  0  0  0  0  0  0  0  0  0  0  0
    3.1854  -51.3727  -24.5807 N   0  0  0  0  0  0  0  0  0  0  0  0
    3.9892  -50.1987  -25.0914 C   0  0  0  0  0  0  0  0  0  0  0  0
    4.8242  -49.7091  -23.9576 C   0  0  0  0  0  0  0  0  0  0  0  0
 28 29  1  0  0  0
 29 30  1  0  0  0
 30 31  1  0  0  0
 31 32  1  0  0  0
 32 27  1  0  0  0
 27  1  1  0  0  0
  1  2  1  0  0  0
  2  3  2  0  0  0
  3  4  1  0  0  0
  4  5  1  0  0  0
  5  6  2  0  0  0
  6  7  1  0  0  0
  7  8  2  0  0  0
  8 10  1  0  0  0
 10 12  1  0  0  0
 12 13  2  0  0  0
 13 14  1  0  0  0
 14 15  2  0  0  0
 15 19  1  0  0  0
 19 20  1  0  0  0
 20 21  1  0  0  0
 21 22  2  0  0  0
 22 23  1  0  0  0
 23 24  2  0  0  0
 24 25  1  0  0  0
 25 26  2  0  0  0
 15 16  1  0  0  0
 16 17  1  0  0  0
 16 18  2  0  0  0
  8  9  1  0  0  0
 32 33  1  0  0  0
 33 34  1  0  0  0
 34 29  1  0  0  0
  9  1  2  0  0  0
  9  4  1  0  0  0
 18 12  1  0  0  0
 26 21  1  0  0  0
 10 11  1  0  0  0
M  END
> <minimizedAffinity>
-8.27972

> <CNNscore>
0.6560586095

> <CNNaffinity>
7.3187522888

> <CNN_VS>
4.8015303612

> <CNNaffinity_variance>
0.0886518806

$$$$
[H]c1nc(N([H])c2c([H])c([H])c(OC([H])([H])c3nc([H])c([H])c([H])c3[H])c(Cl)c2[H])c2c(C([H])([H])N3C([H])([H])C([H])([H])N(C([H])([H])[H])C([H])([H])C3([H])[H])c([H])c([H])n2n1


 34 38  0  0  0  0  0  0  0  0999 V2000
    0.4155  -52.2650  -26.2718 C   0  0  0  0  0  0  0  0  0  0  0  0
    0.7300  -52.7110  -27.5773 C   0  0  0  0  0  0  0  0  0  0  0  0
    0.5369  -54.0846  -27.6149 C   0  0  0  0  0  0  0  0  0  0  0  0
    0.1237  -54.4921  -26.4332 N   0  0  0  0  0  0  0  0  0  0  0  0
   -0.2727  -55.6665  -25.9796 N   0  0  0  0  0  0  0  0  0  0  0  0
   -0.7727  -55.8879  -24.7466 C   0  0  0  0  0  0  0  0  0  0  0  0
   -0.8964  -54.8082  -23.8972 N   0  0  0  0  0  0  0  0  0  0  0  0
   -0.4968  -53.6170  -24.3458 C   0  0  0  0  0  0  0  0  0  0  0  0
    0.0393  -53.4234  -25.6302 C   0  0  0  0  0  0  0  0  0  0  0  0
   -0.7470  -52.4732  -23.5583 N   0  0  0  0  0  0  0  0  0  0  0  0
   -0.9865  -51.5279  -23.8225 H   0  0  0  0  0  0  0  0  0  0  0  0
   -0.6938  -52.6027  -22.0860 C   0  0  0  0  0  0  0  0  0  0  0  0
   -1.4238  -53.5497  -21.4433 C   0  0  0  0  0  0  0  0  0  0  0  0
   -1.4184  -53.6616  -20.0611 C   0  0  0  0  0  0  0  0  0  0  0  0
   -0.6754  -52.8058  -19.3190 C   0  0  0  0  0  0  0  0  0  0  0  0
    0.0734  -51.8227  -19.9724 C   0  0  0  0  0  0  0  0  0  0  0  0
    1.0196  -50.7068  -18.9545 Cl  0  0  0  0  0  0  0  0  0  0  0  0
    0.0838  -51.7114  -21.3312 C   0  0  0  0  0  0  0  0  0  0  0  0
   -0.6370  -52.8425  -17.9998 O   0  0  0  0  0  0  0  0  0  0  0  0
   -1.6106  -52.7278  -17.0203 C   0  0  0  0  0  0  0  0  0  0  0  0
   -0.8466  -51.7872  -16.0428 C   0  0  0  0  0  0  0  0  0  0  0  0
   -1.1067  -50.4464  -16.0978 C   0  0  0  0  0  0  0  0  0  0  0  0
   -0.2425  -49.5839  -15.4150 C   0  0  0  0  0  0  0  0  0  0  0  0
    0.8426  -50.1197  -14.7127 C   0  0  0  0  0  0  0  0  0  0  0  0
    1.0378  -51.4619  -14.7014 C   0  0  0  0  0  0  0  0  0  0  0  0
    0.1938  -52.2660  -15.3627 N   0  0  0  0  0  0  0  0  0  0  0  0
    0.8682  -51.0215  -25.6576 C   0  0  0  0  0  0  0  0  0  0  0  0
    4.9398  -52.4842  -24.2754 C   0  0  0  0  0  0  0  0  0  0  0  0
    4.3724  -51.1913  -23.8574 N   0  0  0  0  0  0  0  0  0  0  0  0
    4.4354  -50.2632  -24.9722 C   0  0  0  0  0  0  0  0  0  0  0  0
    3.3257  -50.6327  -25.9989 C   0  0  0  0  0  0  0  0  0  0  0  0
    2.0939  -50.5580  -25.4302 N   0  0  0  0  0  0  0  0  0  0  0  0
    2.1655  -50.3114  -23.9404 C   0  0  0  0  0  0  0  0  0  0  0  0
    3.0489  -51.3632  -23.3611 C   0  0  0  0  0  0  0  0  0  0  0  0
 28 29  1  0  0  0
 29 30  1  0  0  0
 30 31  1  0  0  0
 31 32  1  0  0  0
 32 27  1  0  0  0
 27  1  1  0  0  0
  1  2  1  0  0  0
  2  3  2  0  0  0
  3  4  1  0  0  0
  4  5  1  0  0  0
  5  6  2  0  0  0
  6  7  1  0  0  0
  7  8  2  0  0  0
  8 10  1  0  0  0
 10 12  1  0  0  0
 12 13  2  0  0  0
 13 14  1  0  0  0
 14 15  2  0  0  0
 15 19  1  0  0  0
 19 20  1  0  0  0
 20 21  1  0  0  0
 21 22  2  0  0  0
 22 23  1  0  0  0
 23 24  2  0  0  0
 24 25  1  0  0  0
 25 26  2  0  0  0
 15 16  1  0  0  0
 16 17  1  0  0  0
 16 18  2  0  0  0
  8  9  1  0  0  0
 32 33  1  0  0  0
 33 34  1  0  0  0
 34 29  1  0  0  0
  9  1  2  0  0  0
  9  4  1  0  0  0
 18 12  1  0  0  0
 26 21  1  0  0  0
 10 11  1  0  0  0
M  END
> <minimizedAffinity>
-8.07612

> <CNNscore>
0.4928218126

> <CNNaffinity>
7.4758477211

> <CNN_VS>
3.6842608452

> <CNNaffinity_variance>
0.0463028476

$$$$
[H]c1nc(N([H])c2c([H])c([H])c(OC([H])([H])c3nc([H])c([H])c([H])c3[H])c(Cl)c2[H])c2c(C([H])([H])N3C([H])([H])C([H])([H])N(C([H])([H])[H])C([H])([H])C3([H])[H])c([H])c([H])n2n1


 34 38  0  0  0  0  0  0  0  0999 V2000
    2.7844  -52.4010  -26.0410 C   0  0  0  0  0  0  0  0  0  0  0  0
    3.0256  -53.0324  -27.2841 C   0  0  0  0  0  0  0  0  0  0  0  0
    1.7995  -53.2422  -27.8990 C   0  0  0  0  0  0  0  0  0  0  0  0
    0.8445  -52.7774  -27.1210 N   0  0  0  0  0  0  0  0  0  0  0  0
   -0.4608  -52.6605  -27.2784 N   0  0  0  0  0  0  0  0  0  0  0  0
   -1.2910  -52.0530  -26.4062 C   0  0  0  0  0  0  0  0  0  0  0  0
   -0.7394  -51.4966  -25.2710 N   0  0  0  0  0  0  0  0  0  0  0  0
    0.5790  -51.6109  -25.1018 C   0  0  0  0  0  0  0  0  0  0  0  0
    1.4143  -52.2687  -26.0207 C   0  0  0  0  0  0  0  0  0  0  0  0
    1.1905  -50.9267  -24.0300 N   0  0  0  0  0  0  0  0  0  0  0  0
    1.9120  -50.2194  -24.0226 H   0  0  0  0  0  0  0  0  0  0  0  0
    0.7369  -51.2195  -22.6532 C   0  0  0  0  0  0  0  0  0  0  0  0
    0.9995  -50.3600  -21.6357 C   0  0  0  0  0  0  0  0  0  0  0  0
    0.6177  -50.6352  -20.3314 C   0  0  0  0  0  0  0  0  0  0  0  0
   -0.0288  -51.7915  -20.0485 C   0  0  0  0  0  0  0  0  0  0  0  0
   -0.2965  -52.6858  -21.0891 C   0  0  0  0  0  0  0  0  0  0  0  0
   -1.1311  -54.2029  -20.6666 Cl  0  0  0  0  0  0  0  0  0  0  0  0
    0.0646  -52.4196  -22.3765 C   0  0  0  0  0  0  0  0  0  0  0  0
   -0.4054  -52.1267  -18.8283 O   0  0  0  0  0  0  0  0  0  0  0  0
    0.0253  -51.7480  -17.5666 C   0  0  0  0  0  0  0  0  0  0  0  0
   -1.3132  -51.9442  -16.7960 C   0  0  0  0  0  0  0  0  0  0  0  0
   -2.1673  -52.9235  -17.2200 C   0  0  0  0  0  0  0  0  0  0  0  0
   -3.4672  -52.9267  -16.7029 C   0  0  0  0  0  0  0  0  0  0  0  0
   -3.8393  -51.9385  -15.7848 C   0  0  0  0  0  0  0  0  0  0  0  0
   -2.9371  -50.9980  -15.4088 C   0  0  0  0  0  0  0  0  0  0  0  0
   -1.6977  -51.0188  -15.9184 N   0  0  0  0  0  0  0  0  0  0  0  0
    3.6912  -52.3814  -24.8983 C   0  0  0  0  0  0  0  0  0  0  0  0
    6.0742  -50.4345  -21.5578 C   0  0  0  0  0  0  0  0  0  0  0  0
    5.9712  -49.8543  -22.9072 N   0  0  0  0  0  0  0  0  0  0  0  0
    6.7838  -50.6355  -23.8225 C   0  0  0  0  0  0  0  0  0  0  0  0
    6.0483  -51.9710  -24.1352 C   0  0  0  0  0  0  0  0  0  0  0  0
    4.8385  -51.7363  -24.7077 N   0  0  0  0  0  0  0  0  0  0  0  0
    4.4851  -50.2665  -24.7164 C   0  0  0  0  0  0  0  0  0  0  0  0
    4.6092  -49.7745  -23.3146 C   0  0  0  0  0  0  0  0  0  0  0  0
 28 29  1  0  0  0
 29 30  1  0  0  0
 30 31  1  0  0  0
 31 32  1  0  0  0
 32 27  1  0  0  0
 27  1  1  0  0  0
  1  2  1  0  0  0
  2  3  2  0  0  0
  3  4  1  0  0  0
  4  5  1  0  0  0
  5  6  2  0  0  0
  6  7  1  0  0  0
  7  8  2  0  0  0
  8 10  1  0  0  0
 10 12  1  0  0  0
 12 13  2  0  0  0
 13 14  1  0  0  0
 14 15  2  0  0  0
 15 19  1  0  0  0
 19 20  1  0  0  0
 20 21  1  0  0  0
 21 22  2  0  0  0
 22 23  1  0  0  0
 23 24  2  0  0  0
 24 25  1  0  0  0
 25 26  2  0  0  0
 15 16  1  0  0  0
 16 17  1  0  0  0
 16 18  2  0  0  0
  8  9  1  0  0  0
 32 33  1  0  0  0
 33 34  1  0  0  0
 34 29  1  0  0  0
  9  1  2  0  0  0
  9  4  1  0  0  0
 18 12  1  0  0  0
 26 21  1  0  0  0
 10 11  1  0  0  0
M  END
> <minimizedAffinity>
-7.90424

> <CNNscore>
0.3988892138

> <CNNaffinity>
6.9849638939

> <CNN_VS>
2.7862267494

> <CNNaffinity_variance>
0.1437488347

$$$$
[H]c1nc(N([H])c2c([H])c([H])c(OC([H])([H])c3nc([H])c([H])c([H])c3[H])c(Cl)c2[H])c2c(C([H])([H])N3C([H])([H])C([H])([H])N(C([H])([H])[H])C([H])([H])C3([H])[H])c([H])c([H])n2n1


 34 38  0  0  0  0  0  0  0  0999 V2000
    0.9576  -51.5434  -24.1044 C   0  0  0  0  0  0  0  0  0  0  0  0
    0.2565  -51.5532  -25.3334 C   0  0  0  0  0  0  0  0  0  0  0  0
   -0.6237  -52.6257  -25.3117 C   0  0  0  0  0  0  0  0  0  0  0  0
   -0.5071  -53.2529  -24.1600 N   0  0  0  0  0  0  0  0  0  0  0  0
   -1.1638  -54.2627  -23.6203 N   0  0  0  0  0  0  0  0  0  0  0  0
   -0.9799  -54.7186  -22.3643 C   0  0  0  0  0  0  0  0  0  0  0  0
   -0.0490  -54.0761  -21.5747 N   0  0  0  0  0  0  0  0  0  0  0  0
    0.6213  -53.0553  -22.1117 C   0  0  0  0  0  0  0  0  0  0  0  0
    0.4202  -52.6176  -23.4317 C   0  0  0  0  0  0  0  0  0  0  0  0
    1.4694  -52.2872  -21.2861 N   0  0  0  0  0  0  0  0  0  0  0  0
    2.3719  -51.8717  -21.4696 H   0  0  0  0  0  0  0  0  0  0  0  0
    1.0226  -51.9715  -19.9121 C   0  0  0  0  0  0  0  0  0  0  0  0
    1.7502  -51.1479  -19.1150 C   0  0  0  0  0  0  0  0  0  0  0  0
    1.3693  -50.8711  -17.8107 C   0  0  0  0  0  0  0  0  0  0  0  0
    0.2479  -51.4360  -17.3023 C   0  0  0  0  0  0  0  0  0  0  0  0
   -0.5031  -52.2914  -18.1137 C   0  0  0  0  0  0  0  0  0  0  0  0
   -1.9593  -53.0270  -17.3960 Cl  0  0  0  0  0  0  0  0  0  0  0  0
   -0.1435  -52.5611  -19.4009 C   0  0  0  0  0  0  0  0  0  0  0  0
   -0.1643  -51.2318  -16.0648 O   0  0  0  0  0  0  0  0  0  0  0  0
   -0.1229  -50.1325  -15.2219 C   0  0  0  0  0  0  0  0  0  0  0  0
   -1.6249  -49.7290  -15.2927 C   0  0  0  0  0  0  0  0  0  0  0  0
   -1.9362  -48.3996  -15.3573 C   0  0  0  0  0  0  0  0  0  0  0  0
   -3.2704  -48.0298  -15.1567 C   0  0  0  0  0  0  0  0  0  0  0  0
   -4.2227  -49.0220  -14.8986 C   0  0  0  0  0  0  0  0  0  0  0  0
   -3.8404  -50.3225  -14.8503 C   0  0  0  0  0  0  0  0  0  0  0  0
   -2.5558  -50.6497  -15.0477 N   0  0  0  0  0  0  0  0  0  0  0  0
    2.2406  -50.8956  -23.8536 C   0  0  0  0  0  0  0  0  0  0  0  0
    6.1527  -48.9591  -25.1081 C   0  0  0  0  0  0  0  0  0  0  0  0
    5.1620  -48.2782  -24.2577 N   0  0  0  0  0  0  0  0  0  0  0  0
    4.0287  -47.8819  -25.0743 C   0  0  0  0  0  0  0  0  0  0  0  0
    3.1709  -49.1413  -25.3911 C   0  0  0  0  0  0  0  0  0  0  0  0
    2.7132  -49.7168  -24.2484 N   0  0  0  0  0  0  0  0  0  0  0  0
    3.3037  -49.0802  -23.0109 C   0  0  0  0  0  0  0  0  0  0  0  0
    4.7862  -49.1092  -23.1643 C   0  0  0  0  0  0  0  0  0  0  0  0
 28 29  1  0  0  0
 29 30  1  0  0  0
 30 31  1  0  0  0
 31 32  1  0  0  0
 32 27  1  0  0  0
 27  1  1  0  0  0
  1  2  1  0  0  0
  2  3  2  0  0  0
  3  4  1  0  0  0
  4  5  1  0  0  0
  5  6  2  0  0  0
  6  7  1  0  0  0
  7  8  2  0  0  0
  8 10  1  0  0  0
 10 12  1  0  0  0
 12 13  2  0  0  0
 13 14  1  0  0  0
 14 15  2  0  0  0
 15 19  1  0  0  0
 19 20  1  0  0  0
 20 21  1  0  0  0
 21 22  2  0  0  0
 22 23  1  0  0  0
 23 24  2  0  0  0
 24 25  1  0  0  0
 25 26  2  0  0  0
 15 16  1  0  0  0
 16 17  1  0  0  0
 16 18  2  0  0  0
  8  9  1  0  0  0
 32 33  1  0  0  0
 33 34  1  0  0  0
 34 29  1  0  0  0
  9  1  2  0  0  0
  9  4  1  0  0  0
 18 12  1  0  0  0
 26 21  1  0  0  0
 10 11  1  0  0  0
M  END
> <minimizedAffinity>
-7.29147

> <CNNscore>
0.3890259266

> <CNNaffinity>
7.0391683578

> <CNN_VS>
2.7384190559

> <CNNaffinity_variance>
0.1587014645

$$$$
[H]c1nc(N([H])c2c([H])c([H])c(OC([H])([H])c3nc([H])c([H])c([H])c3[H])c(Cl)c2[H])c2c(C([H])([H])N3C([H])([H])C([H])([H])N(C([H])([H])[H])C([H])([H])C3([H])[H])c([H])c([H])n2n1


 34 38  0  0  0  0  0  0  0  0999 V2000
    0.6555  -52.4940  -25.6299 C   0  0  0  0  0  0  0  0  0  0  0  0
    0.6835  -53.2331  -26.8362 C   0  0  0  0  0  0  0  0  0  0  0  0
    0.1420  -54.4848  -26.5800 C   0  0  0  0  0  0  0  0  0  0  0  0
   -0.2141  -54.5471  -25.3140 N   0  0  0  0  0  0  0  0  0  0  0  0
   -0.8393  -55.4678  -24.6044 N   0  0  0  0  0  0  0  0  0  0  0  0
   -1.2248  -55.3213  -23.3202 C   0  0  0  0  0  0  0  0  0  0  0  0
   -0.9633  -54.1164  -22.7016 N   0  0  0  0  0  0  0  0  0  0  0  0
   -0.3301  -53.1799  -23.4100 C   0  0  0  0  0  0  0  0  0  0  0  0
    0.0767  -53.3718  -24.7413 C   0  0  0  0  0  0  0  0  0  0  0  0
   -0.1810  -51.8908  -22.8560 N   0  0  0  0  0  0  0  0  0  0  0  0
   -0.5445  -50.9966  -23.1546 H   0  0  0  0  0  0  0  0  0  0  0  0
    0.6059  -51.7419  -21.6127 C   0  0  0  0  0  0  0  0  0  0  0  0
    1.9623  -51.7915  -21.6367 C   0  0  0  0  0  0  0  0  0  0  0  0
    2.7166  -51.6940  -20.4773 C   0  0  0  0  0  0  0  0  0  0  0  0
    2.0973  -51.5523  -19.2808 C   0  0  0  0  0  0  0  0  0  0  0  0
    0.7005  -51.5080  -19.2461 C   0  0  0  0  0  0  0  0  0  0  0  0
   -0.0711  -51.3409  -17.6482 Cl  0  0  0  0  0  0  0  0  0  0  0  0
   -0.0499  -51.5917  -20.3814 C   0  0  0  0  0  0  0  0  0  0  0  0
    2.7506  -51.4716  -18.1363 O   0  0  0  0  0  0  0  0  0  0  0  0
    3.7456  -50.6264  -17.6713 C   0  0  0  0  0  0  0  0  0  0  0  0
    3.5224  -50.8238  -16.1432 C   0  0  0  0  0  0  0  0  0  0  0  0
    3.1365  -49.7435  -15.4000 C   0  0  0  0  0  0  0  0  0  0  0  0
    3.1916  -49.8548  -14.0066 C   0  0  0  0  0  0  0  0  0  0  0  0
    3.6362  -51.0518  -13.4342 C   0  0  0  0  0  0  0  0  0  0  0  0
    4.0023  -52.0833  -14.2354 C   0  0  0  0  0  0  0  0  0  0  0  0
    3.9384  -51.9506  -15.5675 N   0  0  0  0  0  0  0  0  0  0  0  0
    1.4829  -51.3345  -25.3147 C   0  0  0  0  0  0  0  0  0  0  0  0
    4.7193  -49.5009  -22.7086 C   0  0  0  0  0  0  0  0  0  0  0  0
    4.7478  -49.4369  -24.1794 N   0  0  0  0  0  0  0  0  0  0  0  0
    5.0954  -50.7454  -24.7043 C   0  0  0  0  0  0  0  0  0  0  0  0
    3.8592  -51.6827  -24.5805 C   0  0  0  0  0  0  0  0  0  0  0  0
    2.8047  -51.1905  -25.2821 N   0  0  0  0  0  0  0  0  0  0  0  0
    3.0768  -49.8077  -25.8292 C   0  0  0  0  0  0  0  0  0  0  0  0
    3.5058  -48.9563  -24.6832 C   0  0  0  0  0  0  0  0  0  0  0  0
 28 29  1  0  0  0
 29 30  1  0  0  0
 30 31  1  0  0  0
 31 32  1  0  0  0
 32 27  1  0  0  0
 27  1  1  0  0  0
  1  2  1  0  0  0
  2  3  2  0  0  0
  3  4  1  0  0  0
  4  5  1  0  0  0
  5  6  2  0  0  0
  6  7  1  0  0  0
  7  8  2  0  0  0
  8 10  1  0  0  0
 10 12  1  0  0  0
 12 13  2  0  0  0
 13 14  1  0  0  0
 14 15  2  0  0  0
 15 19  1  0  0  0
 19 20  1  0  0  0
 20 21  1  0  0  0
 21 22  2  0  0  0
 22 23  1  0  0  0
 23 24  2  0  0  0
 24 25  1  0  0  0
 25 26  2  0  0  0
 15 16  1  0  0  0
 16 17  1  0  0  0
 16 18  2  0  0  0
  8  9  1  0  0  0
 32 33  1  0  0  0
 33 34  1  0  0  0
 34 29  1  0  0  0
  9  1  2  0  0  0
  9  4  1  0  0  0
 18 12  1  0  0  0
 26 21  1  0  0  0
 10 11  1  0  0  0
M  END
> <minimizedAffinity>
-7.61925

> <CNNscore>
0.3869514465

> <CNNaffinity>
7.1092214584

> <CNN_VS>
2.7509236336

> <CNNaffinity_variance>
0.0866368040

$$$$
[H]c1nc(N([H])c2c([H])c([H])c(OC([H])([H])c3nc([H])c([H])c([H])c3[H])c(Cl)c2[H])c2c(C([H])([H])N3C([H])([H])C([H])([H])N(C([H])([H])[H])C([H])([H])C3([H])[H])c([H])c([H])n2n1


 34 38  0  0  0  0  0  0  0  0999 V2000
    0.8207  -51.6229  -25.3047 C   0  0  0  0  0  0  0  0  0  0  0  0
    0.1276  -51.8967  -26.5076 C   0  0  0  0  0  0  0  0  0  0  0  0
   -0.6812  -53.0029  -26.2894 C   0  0  0  0  0  0  0  0  0  0  0  0
   -0.5296  -53.4064  -25.0454 N   0  0  0  0  0  0  0  0  0  0  0  0
   -1.1218  -54.3444  -24.3302 N   0  0  0  0  0  0  0  0  0  0  0  0
   -0.9147  -54.5567  -23.0145 C   0  0  0  0  0  0  0  0  0  0  0  0
   -0.0315  -53.7250  -22.3580 N   0  0  0  0  0  0  0  0  0  0  0  0
    0.5737  -52.7747  -23.0726 C   0  0  0  0  0  0  0  0  0  0  0  0
    0.3509  -52.5928  -24.4481 C   0  0  0  0  0  0  0  0  0  0  0  0
    1.3661  -51.8186  -22.4026 N   0  0  0  0  0  0  0  0  0  0  0  0
    2.1510  -51.2688  -22.7227 H   0  0  0  0  0  0  0  0  0  0  0  0
    1.0416  -51.4905  -20.9975 C   0  0  0  0  0  0  0  0  0  0  0  0
    1.5904  -50.4074  -20.3906 C   0  0  0  0  0  0  0  0  0  0  0  0
    1.3300  -50.1053  -19.0625 C   0  0  0  0  0  0  0  0  0  0  0  0
    0.5141  -50.9071  -18.3368 C   0  0  0  0  0  0  0  0  0  0  0  0
   -0.0492  -52.0289  -18.9518 C   0  0  0  0  0  0  0  0  0  0  0  0
   -1.0999  -53.0656  -17.9529 Cl  0  0  0  0  0  0  0  0  0  0  0  0
    0.1914  -52.3284  -20.2600 C   0  0  0  0  0  0  0  0  0  0  0  0
    0.2368  -50.6906  -17.0643 O   0  0  0  0  0  0  0  0  0  0  0  0
   -0.9431  -50.4423  -16.3809 C   0  0  0  0  0  0  0  0  0  0  0  0
   -0.6731  -51.3215  -15.1247 C   0  0  0  0  0  0  0  0  0  0  0  0
   -1.6153  -51.3434  -14.1347 C   0  0  0  0  0  0  0  0  0  0  0  0
   -1.2614  -51.9141  -12.9074 C   0  0  0  0  0  0  0  0  0  0  0  0
    0.0278  -52.4320  -12.7417 C   0  0  0  0  0  0  0  0  0  0  0  0
    0.9106  -52.3764  -13.7700 C   0  0  0  0  0  0  0  0  0  0  0  0
    0.5453  -51.8256  -14.9359 N   0  0  0  0  0  0  0  0  0  0  0  0
    2.0575  -50.8590  -25.1819 C   0  0  0  0  0  0  0  0  0  0  0  0
    4.9758  -51.6976  -21.8042 C   0  0  0  0  0  0  0  0  0  0  0  0
    5.3731  -51.0283  -23.0542 N   0  0  0  0  0  0  0  0  0  0  0  0
    5.4225  -52.0102  -24.1228 C   0  0  0  0  0  0  0  0  0  0  0  0
    3.9683  -52.3618  -24.5516 C   0  0  0  0  0  0  0  0  0  0  0  0
    3.3126  -51.2575  -24.9953 N   0  0  0  0  0  0  0  0  0  0  0  0
    4.1138  -49.9930  -24.7843 C   0  0  0  0  0  0  0  0  0  0  0  0
    4.4936  -49.9466  -23.3436 C   0  0  0  0  0  0  0  0  0  0  0  0
 28 29  1  0  0  0
 29 30  1  0  0  0
 30 31  1  0  0  0
 31 32  1  0  0  0
 32 27  1  0  0  0
 27  1  1  0  0  0
  1  2  1  0  0  0
  2  3  2  0  0  0
  3  4  1  0  0  0
  4  5  1  0  0  0
  5  6  2  0  0  0
  6  7  1  0  0  0
  7  8  2  0  0  0
  8 10  1  0  0  0
 10 12  1  0  0  0
 12 13  2  0  0  0
 13 14  1  0  0  0
 14 15  2  0  0  0
 15 19  1  0  0  0
 19 20  1  0  0  0
 20 21  1  0  0  0
 21 22  2  0  0  0
 22 23  1  0  0  0
 23 24  2  0  0  0
 24 25  1  0  0  0
 25 26  2  0  0  0
 15 16  1  0  0  0
 16 17  1  0  0  0
 16 18  2  0  0  0
  8  9  1  0  0  0
 32 33  1  0  0  0
 33 34  1  0  0  0
 34 29  1  0  0  0
  9  1  2  0  0  0
  9  4  1  0  0  0
 18 12  1  0  0  0
 26 21  1  0  0  0
 10 11  1  0  0  0
M  END
> <minimizedAffinity>
-7.36747

> <CNNscore>
0.3716322780

> <CNNaffinity>
7.1306810379

> <CNN_VS>
2.6499912739

> <CNNaffinity_variance>
0.0615779646

$$$$
[H]c1nc(N([H])c2c([H])c([H])c(OC([H])([H])c3nc([H])c([H])c([H])c3[H])c(Cl)c2[H])c2c(C([H])([H])N3C([H])([H])C([H])([H])N(C([H])([H])[H])C([H])([H])C3([H])[H])c([H])c([H])n2n1


 34 38  0  0  0  0  0  0  0  0999 V2000
    0.0689  -51.9454  -18.0610 C   0  0  0  0  0  0  0  0  0  0  0  0
   -1.0501  -52.3023  -17.2719 C   0  0  0  0  0  0  0  0  0  0  0  0
   -1.8770  -53.1041  -18.0457 C   0  0  0  0  0  0  0  0  0  0  0  0
   -1.3336  -53.2595  -19.2347 N   0  0  0  0  0  0  0  0  0  0  0  0
   -1.6714  -53.9831  -20.2856 N   0  0  0  0  0  0  0  0  0  0  0  0
   -0.9301  -54.1089  -21.4053 C   0  0  0  0  0  0  0  0  0  0  0  0
    0.2794  -53.4476  -21.4561 N   0  0  0  0  0  0  0  0  0  0  0  0
    0.6291  -52.7121  -20.3994 C   0  0  0  0  0  0  0  0  0  0  0  0
   -0.1764  -52.5853  -19.2550 C   0  0  0  0  0  0  0  0  0  0  0  0
    1.9210  -52.1461  -20.3604 N   0  0  0  0  0  0  0  0  0  0  0  0
    2.6911  -52.2991  -19.7246 H   0  0  0  0  0  0  0  0  0  0  0  0
    2.2989  -51.1734  -21.4084 C   0  0  0  0  0  0  0  0  0  0  0  0
    1.9167  -49.8736  -21.3228 C   0  0  0  0  0  0  0  0  0  0  0  0
    2.2268  -48.9551  -22.3142 C   0  0  0  0  0  0  0  0  0  0  0  0
    2.9229  -49.3522  -23.4064 C   0  0  0  0  0  0  0  0  0  0  0  0
    3.3138  -50.6906  -23.5063 C   0  0  0  0  0  0  0  0  0  0  0  0
    4.2100  -51.1718  -24.9699 Cl  0  0  0  0  0  0  0  0  0  0  0  0
    3.0237  -51.5990  -22.5319 C   0  0  0  0  0  0  0  0  0  0  0  0
    3.2370  -48.5371  -24.3964 O   0  0  0  0  0  0  0  0  0  0  0  0
    4.3211  -47.7063  -24.6314 C   0  0  0  0  0  0  0  0  0  0  0  0
    3.8127  -47.0249  -25.9357 C   0  0  0  0  0  0  0  0  0  0  0  0
    2.7942  -46.1186  -25.8386 C   0  0  0  0  0  0  0  0  0  0  0  0
    2.1677  -45.7095  -27.0206 C   0  0  0  0  0  0  0  0  0  0  0  0
    2.6006  -46.2387  -28.2414 C   0  0  0  0  0  0  0  0  0  0  0  0
    3.6192  -47.1342  -28.2610 C   0  0  0  0  0  0  0  0  0  0  0  0
    4.2031  -47.5080  -27.1140 N   0  0  0  0  0  0  0  0  0  0  0  0
    0.9500  -50.8049  -17.8342 C   0  0  0  0  0  0  0  0  0  0  0  0
    2.9015  -47.2492  -15.7904 C   0  0  0  0  0  0  0  0  0  0  0  0
    3.6168  -48.5087  -16.0551 N   0  0  0  0  0  0  0  0  0  0  0  0
    3.1459  -49.5247  -15.1307 C   0  0  0  0  0  0  0  0  0  0  0  0
    1.7387  -50.0080  -15.5870 C   0  0  0  0  0  0  0  0  0  0  0  0
    1.7890  -50.5369  -16.8376 N   0  0  0  0  0  0  0  0  0  0  0  0
    3.1421  -50.3477  -17.4848 C   0  0  0  0  0  0  0  0  0  0  0  0
    3.4641  -48.8937  -17.4174 C   0  0  0  0  0  0  0  0  0  0  0  0
 28 29  1  0  0  0
 29 30  1  0  0  0
 30 31  1  0  0  0
 31 32  1  0  0  0
 32 27  1  0  0  0
 27  1  1  0  0  0
  1  2  1  0  0  0
  2  3  2  0  0  0
  3  4  1  0  0  0
  4  5  1  0  0  0
  5  6  2  0  0  0
  6  7  1  0  0  0
  7  8  2  0  0  0
  8 10  1  0  0  0
 10 12  1  0  0  0
 12 13  2  0  0  0
 13 14  1  0  0  0
 14 15  2  0  0  0
 15 19  1  0  0  0
 19 20  1  0  0  0
 20 21  1  0  0  0
 21 22  2  0  0  0
 22 23  1  0  0  0
 23 24  2  0  0  0
 24 25  1  0  0  0
 25 26  2  0  0  0
 15 16  1  0  0  0
 16 17  1  0  0  0
 16 18  2  0  0  0
  8  9  1  0  0  0
 32 33  1  0  0  0
 33 34  1  0  0  0
 34 29  1  0  0  0
  9  1  2  0  0  0
  9  4  1  0  0  0
 18 12  1  0  0  0
 26 21  1  0  0  0
 10 11  1  0  0  0
M  END
> <minimizedAffinity>
-6.44964

> <CNNscore>
0.3647265136

> <CNNaffinity>
6.7249207497

> <CNN_VS>
2.4527568817

> <CNNaffinity_variance>
0.3468179107

$$$$
[H]c1nc(N([H])c2c([H])c([H])c(OC([H])([H])c3nc([H])c([H])c([H])c3[H])c(Cl)c2[H])c2c(C([H])([H])N3C([H])([H])C([H])([H])N(C([H])([H])[H])C([H])([H])C3([H])[H])c([H])c([H])n2n1


 34 38  0  0  0  0  0  0  0  0999 V2000
    0.9514  -51.5934  -23.9130 C   0  0  0  0  0  0  0  0  0  0  0  0
    0.3101  -51.9712  -25.1165 C   0  0  0  0  0  0  0  0  0  0  0  0
   -0.4349  -53.1135  -24.8604 C   0  0  0  0  0  0  0  0  0  0  0  0
   -0.2934  -53.4427  -23.5935 N   0  0  0  0  0  0  0  0  0  0  0  0
   -0.8465  -54.3784  -22.8447 N   0  0  0  0  0  0  0  0  0  0  0  0
   -0.6633  -54.5099  -21.5150 C   0  0  0  0  0  0  0  0  0  0  0  0
    0.1486  -53.5920  -20.8817 N   0  0  0  0  0  0  0  0  0  0  0  0
    0.7138  -52.6432  -21.6302 C   0  0  0  0  0  0  0  0  0  0  0  0
    0.5185  -52.5460  -23.0184 C   0  0  0  0  0  0  0  0  0  0  0  0
    1.4270  -51.6063  -20.9921 N   0  0  0  0  0  0  0  0  0  0  0  0
    2.0592  -50.9120  -21.3648 H   0  0  0  0  0  0  0  0  0  0  0  0
    1.2548  -51.4222  -19.5349 C   0  0  0  0  0  0  0  0  0  0  0  0
    0.0213  -51.4588  -18.9691 C   0  0  0  0  0  0  0  0  0  0  0  0
   -0.1651  -51.2489  -17.6112 C   0  0  0  0  0  0  0  0  0  0  0  0
    0.9018  -50.9924  -16.8167 C   0  0  0  0  0  0  0  0  0  0  0  0
    2.1748  -50.9452  -17.3923 C   0  0  0  0  0  0  0  0  0  0  0  0
    3.5458  -50.5847  -16.3121 Cl  0  0  0  0  0  0  0  0  0  0  0  0
    2.3699  -51.1613  -18.7243 C   0  0  0  0  0  0  0  0  0  0  0  0
    0.7967  -50.7652  -15.5203 O   0  0  0  0  0  0  0  0  0  0  0  0
    0.4108  -51.5547  -14.4487 C   0  0  0  0  0  0  0  0  0  0  0  0
   -0.9539  -50.8728  -14.1377 C   0  0  0  0  0  0  0  0  0  0  0  0
   -0.9829  -49.8799  -13.1987 C   0  0  0  0  0  0  0  0  0  0  0  0
   -2.2322  -49.4552  -12.7342 C   0  0  0  0  0  0  0  0  0  0  0  0
   -3.3896  -50.0569  -13.2405 C   0  0  0  0  0  0  0  0  0  0  0  0
   -3.2837  -51.0365  -14.1726 C   0  0  0  0  0  0  0  0  0  0  0  0
   -2.0744  -51.4235  -14.6016 N   0  0  0  0  0  0  0  0  0  0  0  0
    2.1351  -50.7481  -23.8002 C   0  0  0  0  0  0  0  0  0  0  0  0
    6.5873  -50.1185  -24.4403 C   0  0  0  0  0  0  0  0  0  0  0  0
    6.0354  -51.3279  -23.8072 N   0  0  0  0  0  0  0  0  0  0  0  0
    5.5884  -50.9988  -22.4655 C   0  0  0  0  0  0  0  0  0  0  0  0
    4.2509  -50.2087  -22.5595 C   0  0  0  0  0  0  0  0  0  0  0  0
    3.2924  -50.9485  -23.1762 N   0  0  0  0  0  0  0  0  0  0  0  0
    3.8407  -52.2392  -23.7409 C   0  0  0  0  0  0  0  0  0  0  0  0
    4.9989  -51.8838  -24.6096 C   0  0  0  0  0  0  0  0  0  0  0  0
 28 29  1  0  0  0
 29 30  1  0  0  0
 30 31  1  0  0  0
 31 32  1  0  0  0
 32 27  1  0  0  0
 27  1  1  0  0  0
  1  2  1  0  0  0
  2  3  2  0  0  0
  3  4  1  0  0  0
  4  5  1  0  0  0
  5  6  2  0  0  0
  6  7  1  0  0  0
  7  8  2  0  0  0
  8 10  1  0  0  0
 10 12  1  0  0  0
 12 13  2  0  0  0
 13 14  1  0  0  0
 14 15  2  0  0  0
 15 19  1  0  0  0
 19 20  1  0  0  0
 20 21  1  0  0  0
 21 22  2  0  0  0
 22 23  1  0  0  0
 23 24  2  0  0  0
 24 25  1  0  0  0
 25 26  2  0  0  0
 15 16  1  0  0  0
 16 17  1  0  0  0
 16 18  2  0  0  0
  8  9  1  0  0  0
 32 33  1  0  0  0
 33 34  1  0  0  0
 34 29  1  0  0  0
  9  1  2  0  0  0
  9  4  1  0  0  0
 18 12  1  0  0  0
 26 21  1  0  0  0
 10 11  1  0  0  0
M  END
> <minimizedAffinity>
-6.71370

> <CNNscore>
0.2836390436

> <CNNaffinity>
6.8937697411

> <CNN_VS>
1.9553422928

> <CNNaffinity_variance>
0.2388138771

$$$$
[H]c1nc(N([H])c2c([H])c([H])c(OC([H])([H])c3nc([H])c([H])c([H])c3[H])c(Cl)c2[H])c2c(C([H])([H])N3C([H])([H])C([H])([H])N(C([H])([H])[H])C([H])([H])C3([H])[H])c([H])c([H])n2n1


 34 38  0  0  0  0  0  0  0  0999 V2000
    1.1363  -51.4637  -24.5128 C   0  0  0  0  0  0  0  0  0  0  0  0
    0.6169  -51.3295  -25.8222 C   0  0  0  0  0  0  0  0  0  0  0  0
   -0.2472  -52.3916  -26.0473 C   0  0  0  0  0  0  0  0  0  0  0  0
   -0.2892  -53.1462  -24.9692 N   0  0  0  0  0  0  0  0  0  0  0  0
   -1.0061  -54.2063  -24.6461 N   0  0  0  0  0  0  0  0  0  0  0  0
   -0.9979  -54.8029  -23.4365 C   0  0  0  0  0  0  0  0  0  0  0  0
   -0.1948  -54.2604  -22.4550 N   0  0  0  0  0  0  0  0  0  0  0  0
    0.5351  -53.1896  -22.7722 C   0  0  0  0  0  0  0  0  0  0  0  0
    0.5192  -52.6037  -24.0493 C   0  0  0  0  0  0  0  0  0  0  0  0
    1.2500  -52.5257  -21.7529 N   0  0  0  0  0  0  0  0  0  0  0  0
    2.1587  -52.0843  -21.7623 H   0  0  0  0  0  0  0  0  0  0  0  0
    0.6204  -52.3884  -20.4218 C   0  0  0  0  0  0  0  0  0  0  0  0
   -0.5159  -53.0652  -20.1155 C   0  0  0  0  0  0  0  0  0  0  0  0
   -1.1435  -52.9195  -18.8876 C   0  0  0  0  0  0  0  0  0  0  0  0
   -0.6245  -52.0777  -17.9617 C   0  0  0  0  0  0  0  0  0  0  0  0
    0.5411  -51.3710  -18.2717 C   0  0  0  0  0  0  0  0  0  0  0  0
    1.1761  -50.2603  -17.0308 Cl  0  0  0  0  0  0  0  0  0  0  0  0
    1.1720  -51.5156  -19.4716 C   0  0  0  0  0  0  0  0  0  0  0  0
   -1.1782  -51.8763  -16.7802 O   0  0  0  0  0  0  0  0  0  0  0  0
   -2.4391  -52.1381  -16.2681 C   0  0  0  0  0  0  0  0  0  0  0  0
   -2.6762  -50.7865  -15.5327 C   0  0  0  0  0  0  0  0  0  0  0  0
   -1.6026  -49.9674  -15.3205 C   0  0  0  0  0  0  0  0  0  0  0  0
   -1.7640  -48.8921  -14.4404 C   0  0  0  0  0  0  0  0  0  0  0  0
   -3.0019  -48.6999  -13.8170 C   0  0  0  0  0  0  0  0  0  0  0  0
   -4.0237  -49.5533  -14.0768 C   0  0  0  0  0  0  0  0  0  0  0  0
   -3.8426  -50.5747  -14.9255 N   0  0  0  0  0  0  0  0  0  0  0  0
    2.3643  -50.8570  -24.0105 C   0  0  0  0  0  0  0  0  0  0  0  0
    3.1847  -46.5225  -22.9302 C   0  0  0  0  0  0  0  0  0  0  0  0
    3.8637  -47.6511  -22.2719 N   0  0  0  0  0  0  0  0  0  0  0  0
    2.9303  -48.3076  -21.3742 C   0  0  0  0  0  0  0  0  0  0  0  0
    1.9319  -49.1540  -22.2162 C   0  0  0  0  0  0  0  0  0  0  0  0
    2.5870  -50.0982  -22.9412 N   0  0  0  0  0  0  0  0  0  0  0  0
    4.0886  -49.9441  -22.8573 C   0  0  0  0  0  0  0  0  0  0  0  0
    4.4101  -48.5399  -23.2408 C   0  0  0  0  0  0  0  0  0  0  0  0
 28 29  1  0  0  0
 29 30  1  0  0  0
 30 31  1  0  0  0
 31 32  1  0  0  0
 32 27  1  0  0  0
 27  1  1  0  0  0
  1  2  1  0  0  0
  2  3  2  0  0  0
  3  4  1  0  0  0
  4  5  1  0  0  0
  5  6  2  0  0  0
  6  7  1  0  0  0
  7  8  2  0  0  0
  8 10  1  0  0  0
 10 12  1  0  0  0
 12 13  2  0  0  0
 13 14  1  0  0  0
 14 15  2  0  0  0
 15 19  1  0  0  0
 19 20  1  0  0  0
 20 21  1  0  0  0
 21 22  2  0  0  0
 22 23  1  0  0  0
 23 24  2  0  0  0
 24 25  1  0  0  0
 25 26  2  0  0  0
 15 16  1  0  0  0
 16 17  1  0  0  0
 16 18  2  0  0  0
  8  9  1  0  0  0
 32 33  1  0  0  0
 33 34  1  0  0  0
 34 29  1  0  0  0
  9  1  2  0  0  0
  9  4  1  0  0  0
 18 12  1  0  0  0
 26 21  1  0  0  0
 10 11  1  0  0  0
M  END
> <minimizedAffinity>
-7.04036

> <CNNscore>
0.2707079649

> <CNNaffinity>
6.9123916626

> <CNN_VS>
1.8712394238

> <CNNaffinity_variance>
0.0700599998

$$$$
[H]c1nc(N([H])c2c([H])c([H])c(Oc3c([H])c([H])c(OC([H])(C([H])([H])[H])C([H])([H])[H])c(C#N)c3[H])c(OC([H])([H])[H])c2[H])nc(-c2c([H])nc([H])c([H])c2[H])c1[H]


 35 38  0  0  0  0  0  0  0  0999 V2000
    0.1334  -51.1713  -17.7778 C   0  0  0  0  0  0  0  0  0  0  0  0
   -0.5278  -52.2203  -18.4499 C   0  0  0  0  0  0  0  0  0  0  0  0
    0.0583  -52.9438  -19.4500 C   0  0  0  0  0  0  0  0  0  0  0  0
    1.3744  -52.5691  -19.7648 C   0  0  0  0  0  0  0  0  0  0  0  0
    2.0556  -51.5679  -19.1489 C   0  0  0  0  0  0  0  0  0  0  0  0
    1.4182  -50.8570  -18.1352 C   0  0  0  0  0  0  0  0  0  0  0  0
   -1.2425  -51.2117  -15.7682 C   0  0  0  0  0  0  0  0  0  0  0  0
   -0.5671  -50.5114  -16.7804 O   0  0  0  0  0  0  0  0  0  0  0  0
   -0.5151  -53.9860  -20.1896 N   0  0  0  0  0  0  0  0  0  0  0  0
   -0.9769  -54.7715  -19.6214 H   0  0  0  0  0  0  0  0  0  0  0  0
   -0.5742  -54.1393  -21.5913 C   0  0  0  0  0  0  0  0  0  0  0  0
   -1.2913  -55.0452  -22.2559 N   0  0  0  0  0  0  0  0  0  0  0  0
   -1.3373  -55.1771  -23.5713 C   0  0  0  0  0  0  0  0  0  0  0  0
   -0.5916  -54.3212  -24.3692 C   0  0  0  0  0  0  0  0  0  0  0  0
    0.1585  -53.3764  -23.7249 C   0  0  0  0  0  0  0  0  0  0  0  0
    0.1564  -53.3017  -22.3913 N   0  0  0  0  0  0  0  0  0  0  0  0
    0.9601  -52.4524  -24.5168 C   0  0  0  0  0  0  0  0  0  0  0  0
    1.5162  -51.3116  -24.0327 C   0  0  0  0  0  0  0  0  0  0  0  0
    2.2631  -50.5064  -24.8858 C   0  0  0  0  0  0  0  0  0  0  0  0
    2.4357  -50.8603  -26.1993 C   0  0  0  0  0  0  0  0  0  0  0  0
    1.8775  -51.9888  -26.6506 N   0  0  0  0  0  0  0  0  0  0  0  0
    1.1610  -52.7722  -25.8549 C   0  0  0  0  0  0  0  0  0  0  0  0
    2.0895  -49.8332  -17.4924 O   0  0  0  0  0  0  0  0  0  0  0  0
    2.5577  -48.6881  -18.0771 C   0  0  0  0  0  0  0  0  0  0  0  0
    3.1196  -47.6370  -17.3866 C   0  0  0  0  0  0  0  0  0  0  0  0
    3.5844  -46.5013  -17.9973 C   0  0  0  0  0  0  0  0  0  0  0  0
    3.4991  -46.3659  -19.4024 C   0  0  0  0  0  0  0  0  0  0  0  0
    2.9373  -47.4182  -20.0779 C   0  0  0  0  0  0  0  0  0  0  0  0
    2.4732  -48.5588  -19.4427 C   0  0  0  0  0  0  0  0  0  0  0  0
    2.7877  -47.4149  -21.5049 C   0  0  0  0  0  0  0  0  0  0  0  0
    2.6621  -47.4408  -22.6677 N   0  0  0  0  0  0  0  0  0  0  0  0
    3.9526  -45.2674  -19.9554 O   0  0  0  0  0  0  0  0  0  0  0  0
    4.9077  -44.5481  -20.5140 C   0  0  0  0  0  0  0  0  0  0  0  0
    6.2890  -45.2256  -20.5520 C   0  0  0  0  0  0  0  0  0  0  0  0
    4.5382  -44.2088  -21.9890 C   0  0  0  0  0  0  0  0  0  0  0  0
  7  8  1  0  0  0
  8  1  1  0  0  0
  1  2  2  0  0  0
  2  3  1  0  0  0
  3  9  1  0  0  0
  9 11  1  0  0  0
 11 12  2  0  0  0
 12 13  1  0  0  0
 13 14  2  0  0  0
 14 15  1  0  0  0
 15 16  2  0  0  0
 15 17  1  0  0  0
 17 18  2  0  0  0
 18 19  1  0  0  0
 19 20  2  0  0  0
 20 21  1  0  0  0
 21 22  2  0  0  0
  3  4  2  0  0  0
  4  5  1  0  0  0
  5  6  2  0  0  0
  6 23  1  0  0  0
 23 24  1  0  0  0
 24 25  2  0  0  0
 25 26  1  0  0  0
 26 27  2  0  0  0
 27 32  1  0  0  0
 32 33  1  0  0  0
 33 34  1  0  0  0
 33 35  1  0  0  0
 27 28  1  0  0  0
 28 29  2  0  0  0
 28 30  1  0  0  0
 30 31  3  0  0  0
  6  1  1  0  0  0
 29 24  1  0  0  0
 16 11  1  0  0  0
 22 17  1  0  0  0
  9 10  1  0  0  0
M  END
> <minimizedAffinity>
-6.67690

> <CNNscore>
0.5375458002

> <CNNaffinity>
7.1330232620

> <CNN_VS>
3.8343267441

> <CNNaffinity_variance>
0.2132997215

$$$$
[H]c1nc(N([H])c2c([H])c([H])c(Oc3c([H])c([H])c(OC([H])(C([H])([H])[H])C([H])([H])[H])c(C#N)c3[H])c(OC([H])([H])[H])c2[H])nc(-c2c([H])nc([H])c([H])c2[H])c1[H]


 35 38  0  0  0  0  0  0  0  0999 V2000
   -0.1506  -53.5195  -21.1910 C   0  0  0  0  0  0  0  0  0  0  0  0
    0.5794  -53.0883  -22.3182 C   0  0  0  0  0  0  0  0  0  0  0  0
    1.6522  -52.2471  -22.2275 C   0  0  0  0  0  0  0  0  0  0  0  0
    1.9814  -51.8385  -20.9250 C   0  0  0  0  0  0  0  0  0  0  0  0
    1.3121  -52.2241  -19.8074 C   0  0  0  0  0  0  0  0  0  0  0  0
    0.2244  -53.0822  -19.9479 C   0  0  0  0  0  0  0  0  0  0  0  0
   -1.3547  -55.0888  -22.6125 C   0  0  0  0  0  0  0  0  0  0  0  0
   -1.2198  -54.3733  -21.4121 O   0  0  0  0  0  0  0  0  0  0  0  0
    2.4282  -51.7468  -23.2809 N   0  0  0  0  0  0  0  0  0  0  0  0
    3.1462  -50.9913  -23.0227 H   0  0  0  0  0  0  0  0  0  0  0  0
    2.3977  -52.1108  -24.6441 C   0  0  0  0  0  0  0  0  0  0  0  0
    3.4483  -52.4366  -25.3969 N   0  0  0  0  0  0  0  0  0  0  0  0
    3.4047  -52.7763  -26.6746 C   0  0  0  0  0  0  0  0  0  0  0  0
    2.1822  -52.8105  -27.3300 C   0  0  0  0  0  0  0  0  0  0  0  0
    1.0786  -52.4825  -26.5917 C   0  0  0  0  0  0  0  0  0  0  0  0
    1.1983  -52.1489  -25.3039 N   0  0  0  0  0  0  0  0  0  0  0  0
   -0.2298  -52.5027  -27.2327 C   0  0  0  0  0  0  0  0  0  0  0  0
   -0.4282  -52.6870  -28.5638 C   0  0  0  0  0  0  0  0  0  0  0  0
   -1.7264  -52.6868  -29.0623 C   0  0  0  0  0  0  0  0  0  0  0  0
   -2.7927  -52.5028  -28.2199 C   0  0  0  0  0  0  0  0  0  0  0  0
   -2.5699  -52.3234  -26.9134 N   0  0  0  0  0  0  0  0  0  0  0  0
   -1.3399  -52.3198  -26.4158 C   0  0  0  0  0  0  0  0  0  0  0  0
   -0.4739  -53.4897  -18.8261 O   0  0  0  0  0  0  0  0  0  0  0  0
   -0.9661  -52.6723  -17.8454 C   0  0  0  0  0  0  0  0  0  0  0  0
   -2.1419  -52.8974  -17.1641 C   0  0  0  0  0  0  0  0  0  0  0  0
   -2.6115  -52.0638  -16.1825 C   0  0  0  0  0  0  0  0  0  0  0  0
   -1.8812  -50.9067  -15.8254 C   0  0  0  0  0  0  0  0  0  0  0  0
   -0.7135  -50.6934  -16.5111 C   0  0  0  0  0  0  0  0  0  0  0  0
   -0.2547  -51.5481  -17.5004 C   0  0  0  0  0  0  0  0  0  0  0  0
    0.1262  -49.5592  -16.2517 C   0  0  0  0  0  0  0  0  0  0  0  0
    0.8105  -48.6412  -16.0122 N   0  0  0  0  0  0  0  0  0  0  0  0
   -2.3577  -50.1303  -14.8828 O   0  0  0  0  0  0  0  0  0  0  0  0
   -3.2039  -49.2236  -14.4318 C   0  0  0  0  0  0  0  0  0  0  0  0
   -2.7858  -47.7649  -14.6883 C   0  0  0  0  0  0  0  0  0  0  0  0
   -4.6012  -49.4088  -15.0956 C   0  0  0  0  0  0  0  0  0  0  0  0
  7  8  1  0  0  0
  8  1  1  0  0  0
  1  2  2  0  0  0
  2  3  1  0  0  0
  3  9  1  0  0  0
  9 11  1  0  0  0
 11 12  2  0  0  0
 12 13  1  0  0  0
 13 14  2  0  0  0
 14 15  1  0  0  0
 15 16  2  0  0  0
 15 17  1  0  0  0
 17 18  2  0  0  0
 18 19  1  0  0  0
 19 20  2  0  0  0
 20 21  1  0  0  0
 21 22  2  0  0  0
  3  4  2  0  0  0
  4  5  1  0  0  0
  5  6  2  0  0  0
  6 23  1  0  0  0
 23 24  1  0  0  0
 24 25  2  0  0  0
 25 26  1  0  0  0
 26 27  2  0  0  0
 27 32  1  0  0  0
 32 33  1  0  0  0
 33 34  1  0  0  0
 33 35  1  0  0  0
 27 28  1  0  0  0
 28 29  2  0  0  0
 28 30  1  0  0  0
 30 31  3  0  0  0
  6  1  1  0  0  0
 29 24  1  0  0  0
 16 11  1  0  0  0
 22 17  1  0  0  0
  9 10  1  0  0  0
M  END
> <minimizedAffinity>
-8.48660

> <CNNscore>
0.3552713990

> <CNNaffinity>
6.8560371399

> <CNN_VS>
2.4357538223

> <CNNaffinity_variance>
0.1706450880

$$$$
[H]c1nc(N([H])c2c([H])c([H])c(Oc3c([H])c([H])c(OC([H])(C([H])([H])[H])C([H])([H])[H])c(C#N)c3[H])c(OC([H])([H])[H])c2[H])nc(-c2c([H])nc([H])c([H])c2[H])c1[H]


 35 38  0  0  0  0  0  0  0  0999 V2000
    0.0562  -53.2130  -20.9966 C   0  0  0  0  0  0  0  0  0  0  0  0
    0.6285  -52.7374  -22.1948 C   0  0  0  0  0  0  0  0  0  0  0  0
    1.6990  -51.8885  -22.2176 C   0  0  0  0  0  0  0  0  0  0  0  0
    2.1947  -51.5196  -20.9567 C   0  0  0  0  0  0  0  0  0  0  0  0
    1.6809  -51.9487  -19.7745 C   0  0  0  0  0  0  0  0  0  0  0  0
    0.5893  -52.8129  -19.7996 C   0  0  0  0  0  0  0  0  0  0  0  0
   -1.3034  -54.7634  -22.2932 C   0  0  0  0  0  0  0  0  0  0  0  0
   -1.0278  -54.0700  -21.1039 O   0  0  0  0  0  0  0  0  0  0  0  0
    2.3262  -51.3460  -23.3464 N   0  0  0  0  0  0  0  0  0  0  0  0
    2.8617  -50.4276  -23.1949 H   0  0  0  0  0  0  0  0  0  0  0  0
    2.3552  -51.8521  -24.6635 C   0  0  0  0  0  0  0  0  0  0  0  0
    3.4354  -52.2665  -25.3254 N   0  0  0  0  0  0  0  0  0  0  0  0
    3.4476  -52.7393  -26.5608 C   0  0  0  0  0  0  0  0  0  0  0  0
    2.2573  -52.8304  -27.2680 C   0  0  0  0  0  0  0  0  0  0  0  0
    1.1249  -52.4148  -26.6234 C   0  0  0  0  0  0  0  0  0  0  0  0
    1.1881  -51.9478  -25.3736 N   0  0  0  0  0  0  0  0  0  0  0  0
   -0.1516  -52.4896  -27.3220 C   0  0  0  0  0  0  0  0  0  0  0  0
   -0.2829  -52.6950  -28.6583 C   0  0  0  0  0  0  0  0  0  0  0  0
   -1.5564  -52.7475  -29.2144 C   0  0  0  0  0  0  0  0  0  0  0  0
   -2.6657  -52.5940  -28.4229 C   0  0  0  0  0  0  0  0  0  0  0  0
   -2.5087  -52.3929  -27.1100 N   0  0  0  0  0  0  0  0  0  0  0  0
   -1.3034  -52.3391  -26.5579 C   0  0  0  0  0  0  0  0  0  0  0  0
    0.0475  -53.2642  -18.6102 O   0  0  0  0  0  0  0  0  0  0  0  0
   -0.6208  -52.5016  -17.6913 C   0  0  0  0  0  0  0  0  0  0  0  0
   -0.1225  -51.3461  -17.1311 C   0  0  0  0  0  0  0  0  0  0  0  0
   -0.8145  -50.5980  -16.2143 C   0  0  0  0  0  0  0  0  0  0  0  0
   -2.1047  -51.0012  -15.7988 C   0  0  0  0  0  0  0  0  0  0  0  0
   -2.5889  -52.1529  -16.3628 C   0  0  0  0  0  0  0  0  0  0  0  0
   -1.8744  -52.8958  -17.2888 C   0  0  0  0  0  0  0  0  0  0  0  0
   -3.8828  -52.6776  -16.0323 C   0  0  0  0  0  0  0  0  0  0  0  0
   -4.9259  -53.1315  -15.7591 N   0  0  0  0  0  0  0  0  0  0  0  0
   -2.7397  -50.2637  -14.9207 O   0  0  0  0  0  0  0  0  0  0  0  0
   -3.4693  -49.2174  -14.5821 C   0  0  0  0  0  0  0  0  0  0  0  0
   -2.9607  -47.8710  -15.1270 C   0  0  0  0  0  0  0  0  0  0  0  0
   -4.9290  -49.3840  -15.1006 C   0  0  0  0  0  0  0  0  0  0  0  0
  7  8  1  0  0  0
  8  1  1  0  0  0
  1  2  2  0  0  0
  2  3  1  0  0  0
  3  9  1  0  0  0
  9 11  1  0  0  0
 11 12  2  0  0  0
 12 13  1  0  0  0
 13 14  2  0  0  0
 14 15  1  0  0  0
 15 16  2  0  0  0
 15 17  1  0  0  0
 17 18  2  0  0  0
 18 19  1  0  0  0
 19 20  2  0  0  0
 20 21  1  0  0  0
 21 22  2  0  0  0
  3  4  2  0  0  0
  4  5  1  0  0  0
  5  6  2  0  0  0
  6 23  1  0  0  0
 23 24  1  0  0  0
 24 25  2  0  0  0
 25 26  1  0  0  0
 26 27  2  0  0  0
 27 32  1  0  0  0
 32 33  1  0  0  0
 33 34  1  0  0  0
 33 35  1  0  0  0
 27 28  1  0  0  0
 28 29  2  0  0  0
 28 30  1  0  0  0
 30 31  3  0  0  0
  6  1  1  0  0  0
 29 24  1  0  0  0
 16 11  1  0  0  0
 22 17  1  0  0  0
  9 10  1  0  0  0
M  END
> <minimizedAffinity>
-8.56573

> <CNNscore>
0.3368017972

> <CNNaffinity>
6.7277588844

> <CNN_VS>
2.2659213543

> <CNNaffinity_variance>
0.2737453878

$$$$
[H]c1nc(N([H])c2c([H])c([H])c(Oc3c([H])c([H])c(OC([H])(C([H])([H])[H])C([H])([H])[H])c(C#N)c3[H])c(OC([H])([H])[H])c2[H])nc(-c2c([H])nc([H])c([H])c2[H])c1[H]


 35 38  0  0  0  0  0  0  0  0999 V2000
    0.8875  -51.3618  -19.9224 C   0  0  0  0  0  0  0  0  0  0  0  0
    0.1650  -51.6075  -18.7362 C   0  0  0  0  0  0  0  0  0  0  0  0
   -0.4998  -52.7784  -18.5038 C   0  0  0  0  0  0  0  0  0  0  0  0
   -0.4131  -53.7283  -19.5344 C   0  0  0  0  0  0  0  0  0  0  0  0
    0.2688  -53.5418  -20.6946 C   0  0  0  0  0  0  0  0  0  0  0  0
    0.9312  -52.3323  -20.8884 C   0  0  0  0  0  0  0  0  0  0  0  0
    0.9210  -49.0596  -20.7176 C   0  0  0  0  0  0  0  0  0  0  0  0
    1.5200  -50.1342  -20.0410 O   0  0  0  0  0  0  0  0  0  0  0  0
   -1.2580  -53.1126  -17.3745 N   0  0  0  0  0  0  0  0  0  0  0  0
   -1.1107  -54.1007  -16.9807 H   0  0  0  0  0  0  0  0  0  0  0  0
   -2.1904  -52.3164  -16.6756 C   0  0  0  0  0  0  0  0  0  0  0  0
   -3.4724  -52.6103  -16.4589 N   0  0  0  0  0  0  0  0  0  0  0  0
   -4.3356  -51.8539  -15.8011 C   0  0  0  0  0  0  0  0  0  0  0  0
   -3.9159  -50.6413  -15.2732 C   0  0  0  0  0  0  0  0  0  0  0  0
   -2.6061  -50.3028  -15.4740 C   0  0  0  0  0  0  0  0  0  0  0  0
   -1.7905  -51.1172  -16.1490 N   0  0  0  0  0  0  0  0  0  0  0  0
   -2.1146  -49.0393  -14.9398 C   0  0  0  0  0  0  0  0  0  0  0  0
   -2.7278  -47.8407  -15.1203 C   0  0  0  0  0  0  0  0  0  0  0  0
   -2.1635  -46.6994  -14.5612 C   0  0  0  0  0  0  0  0  0  0  0  0
   -1.0023  -46.7835  -13.8366 C   0  0  0  0  0  0  0  0  0  0  0  0
   -0.4187  -47.9758  -13.6738 N   0  0  0  0  0  0  0  0  0  0  0  0
   -0.9392  -49.0778  -14.1982 C   0  0  0  0  0  0  0  0  0  0  0  0
    1.6324  -52.1173  -22.0606 O   0  0  0  0  0  0  0  0  0  0  0  0
    1.1241  -52.2035  -23.3282 C   0  0  0  0  0  0  0  0  0  0  0  0
   -0.1963  -51.9826  -23.6522 C   0  0  0  0  0  0  0  0  0  0  0  0
   -0.6798  -52.0722  -24.9318 C   0  0  0  0  0  0  0  0  0  0  0  0
    0.1890  -52.4061  -25.9964 C   0  0  0  0  0  0  0  0  0  0  0  0
    1.5001  -52.6242  -25.6609 C   0  0  0  0  0  0  0  0  0  0  0  0
    1.9704  -52.5285  -24.3610 C   0  0  0  0  0  0  0  0  0  0  0  0
    2.4898  -52.9706  -26.6403 C   0  0  0  0  0  0  0  0  0  0  0  0
    3.3141  -53.2619  -27.4176 N   0  0  0  0  0  0  0  0  0  0  0  0
   -0.3048  -52.4836  -27.2081 O   0  0  0  0  0  0  0  0  0  0  0  0
   -1.1413  -52.9802  -28.1000 C   0  0  0  0  0  0  0  0  0  0  0  0
   -2.5603  -52.3864  -28.0564 C   0  0  0  0  0  0  0  0  0  0  0  0
   -0.6023  -52.7387  -29.5418 C   0  0  0  0  0  0  0  0  0  0  0  0
  7  8  1  0  0  0
  8  1  1  0  0  0
  1  2  2  0  0  0
  2  3  1  0  0  0
  3  9  1  0  0  0
  9 11  1  0  0  0
 11 12  2  0  0  0
 12 13  1  0  0  0
 13 14  2  0  0  0
 14 15  1  0  0  0
 15 16  2  0  0  0
 15 17  1  0  0  0
 17 18  2  0  0  0
 18 19  1  0  0  0
 19 20  2  0  0  0
 20 21  1  0  0  0
 21 22  2  0  0  0
  3  4  2  0  0  0
  4  5  1  0  0  0
  5  6  2  0  0  0
  6 23  1  0  0  0
 23 24  1  0  0  0
 24 25  2  0  0  0
 25 26  1  0  0  0
 26 27  2  0  0  0
 27 32  1  0  0  0
 32 33  1  0  0  0
 33 34  1  0  0  0
 33 35  1  0  0  0
 27 28  1  0  0  0
 28 29  2  0  0  0
 28 30  1  0  0  0
 30 31  3  0  0  0
  6  1  1  0  0  0
 29 24  1  0  0  0
 16 11  1  0  0  0
 22 17  1  0  0  0
  9 10  1  0  0  0
M  END
> <minimizedAffinity>
-8.14199

> <CNNscore>
0.2317086309

> <CNNaffinity>
6.6232819557

> <CNN_VS>
1.5346715450

> <CNNaffinity_variance>
0.1351030171

$$$$
[H]c1nc(N([H])c2c([H])c([H])c(Oc3c([H])c([H])c(OC([H])(C([H])([H])[H])C([H])([H])[H])c(C#N)c3[H])c(OC([H])([H])[H])c2[H])nc(-c2c([H])nc([H])c([H])c2[H])c1[H]


 35 38  0  0  0  0  0  0  0  0999 V2000
    1.0076  -51.1427  -18.7727 C   0  0  0  0  0  0  0  0  0  0  0  0
    0.0735  -51.4839  -17.7725 C   0  0  0  0  0  0  0  0  0  0  0  0
   -0.7408  -52.5774  -17.8627 C   0  0  0  0  0  0  0  0  0  0  0  0
   -0.5823  -53.3448  -19.0280 C   0  0  0  0  0  0  0  0  0  0  0  0
    0.3014  -53.0603  -20.0199 C   0  0  0  0  0  0  0  0  0  0  0  0
    1.1109  -51.9353  -19.8855 C   0  0  0  0  0  0  0  0  0  0  0  0
    2.7412  -49.9483  -17.5473 C   0  0  0  0  0  0  0  0  0  0  0  0
    1.7772  -50.0085  -18.5662 O   0  0  0  0  0  0  0  0  0  0  0  0
   -1.7097  -52.9908  -16.9395 N   0  0  0  0  0  0  0  0  0  0  0  0
   -1.7805  -54.0486  -16.7691 H   0  0  0  0  0  0  0  0  0  0  0  0
   -2.6063  -52.1971  -16.1925 C   0  0  0  0  0  0  0  0  0  0  0  0
   -3.8610  -52.5135  -15.8726 N   0  0  0  0  0  0  0  0  0  0  0  0
   -4.6907  -51.7591  -15.1709 C   0  0  0  0  0  0  0  0  0  0  0  0
   -4.2622  -50.5238  -14.7065 C   0  0  0  0  0  0  0  0  0  0  0  0
   -2.9796  -50.1618  -15.0137 C   0  0  0  0  0  0  0  0  0  0  0  0
   -2.1972  -50.9757  -15.7277 N   0  0  0  0  0  0  0  0  0  0  0  0
   -2.4802  -48.8739  -14.5498 C   0  0  0  0  0  0  0  0  0  0  0  0
   -2.7209  -47.6900  -15.1707 C   0  0  0  0  0  0  0  0  0  0  0  0
   -2.1901  -46.5224  -14.6334 C   0  0  0  0  0  0  0  0  0  0  0  0
   -1.4333  -46.5663  -13.4907 C   0  0  0  0  0  0  0  0  0  0  0  0
   -1.2113  -47.7450  -12.8989 N   0  0  0  0  0  0  0  0  0  0  0  0
   -1.7076  -48.8715  -13.3938 C   0  0  0  0  0  0  0  0  0  0  0  0
    2.0186  -51.6235  -20.8809 O   0  0  0  0  0  0  0  0  0  0  0  0
    1.8276  -51.7959  -22.2249 C   0  0  0  0  0  0  0  0  0  0  0  0
    2.5215  -51.1162  -23.2015 C   0  0  0  0  0  0  0  0  0  0  0  0
    2.3132  -51.3102  -24.5424 C   0  0  0  0  0  0  0  0  0  0  0  0
    1.3469  -52.2443  -24.9822 C   0  0  0  0  0  0  0  0  0  0  0  0
    0.6627  -52.9135  -24.0008 C   0  0  0  0  0  0  0  0  0  0  0  0
    0.8877  -52.7041  -22.6497 C   0  0  0  0  0  0  0  0  0  0  0  0
   -0.3454  -53.8885  -24.3041 C   0  0  0  0  0  0  0  0  0  0  0  0
   -1.1854  -54.6620  -24.5582 N   0  0  0  0  0  0  0  0  0  0  0  0
    1.1721  -52.4061  -26.2712 O   0  0  0  0  0  0  0  0  0  0  0  0
    1.2673  -53.1080  -27.3847 C   0  0  0  0  0  0  0  0  0  0  0  0
    0.2805  -52.6995  -28.4927 C   0  0  0  0  0  0  0  0  0  0  0  0
    2.6965  -52.9725  -27.9901 C   0  0  0  0  0  0  0  0  0  0  0  0
  7  8  1  0  0  0
  8  1  1  0  0  0
  1  2  2  0  0  0
  2  3  1  0  0  0
  3  9  1  0  0  0
  9 11  1  0  0  0
 11 12  2  0  0  0
 12 13  1  0  0  0
 13 14  2  0  0  0
 14 15  1  0  0  0
 15 16  2  0  0  0
 15 17  1  0  0  0
 17 18  2  0  0  0
 18 19  1  0  0  0
 19 20  2  0  0  0
 20 21  1  0  0  0
 21 22  2  0  0  0
  3  4  2  0  0  0
  4  5  1  0  0  0
  5  6  2  0  0  0
  6 23  1  0  0  0
 23 24  1  0  0  0
 24 25  2  0  0  0
 25 26  1  0  0  0
 26 27  2  0  0  0
 27 32  1  0  0  0
 32 33  1  0  0  0
 33 34  1  0  0  0
 33 35  1  0  0  0
 27 28  1  0  0  0
 28 29  2  0  0  0
 28 30  1  0  0  0
 30 31  3  0  0  0
  6  1  1  0  0  0
 29 24  1  0  0  0
 16 11  1  0  0  0
 22 17  1  0  0  0
  9 10  1  0  0  0
M  END
> <minimizedAffinity>
-7.40200

> <CNNscore>
0.2194124460

> <CNNaffinity>
6.5846939087

> <CNN_VS>
1.4447637796

> <CNNaffinity_variance>
0.1190954000

$$$$
[H]c1nc(N([H])c2c([H])c([H])c(Oc3c([H])c([H])c(OC([H])(C([H])([H])[H])C([H])([H])[H])c(C#N)c3[H])c(OC([H])([H])[H])c2[H])nc(-c2c([H])nc([H])c([H])c2[H])c1[H]


 35 38  0  0  0  0  0  0  0  0999 V2000
    3.0471  -50.5101  -20.6294 C   0  0  0  0  0  0  0  0  0  0  0  0
    2.0944  -51.5495  -20.6656 C   0  0  0  0  0  0  0  0  0  0  0  0
    0.7538  -51.3202  -20.7974 C   0  0  0  0  0  0  0  0  0  0  0  0
    0.3867  -49.9684  -20.8958 C   0  0  0  0  0  0  0  0  0  0  0  0
    1.2633  -48.9310  -20.8666 C   0  0  0  0  0  0  0  0  0  0  0  0
    2.6203  -49.2120  -20.7305 C   0  0  0  0  0  0  0  0  0  0  0  0
    5.1779  -51.1734  -21.6056 C   0  0  0  0  0  0  0  0  0  0  0  0
    4.3785  -50.8699  -20.4920 O   0  0  0  0  0  0  0  0  0  0  0  0
   -0.2705  -52.2753  -20.8245 N   0  0  0  0  0  0  0  0  0  0  0  0
   -0.9214  -52.2957  -19.9707 H   0  0  0  0  0  0  0  0  0  0  0  0
   -0.5682  -53.2155  -21.8340 C   0  0  0  0  0  0  0  0  0  0  0  0
   -1.2683  -54.3397  -21.6828 N   0  0  0  0  0  0  0  0  0  0  0  0
   -1.5401  -55.2124  -22.6390 C   0  0  0  0  0  0  0  0  0  0  0  0
   -1.0776  -54.9798  -23.9263 C   0  0  0  0  0  0  0  0  0  0  0  0
   -0.3544  -53.8358  -24.1233 C   0  0  0  0  0  0  0  0  0  0  0  0
   -0.1184  -52.9991  -23.1092 N   0  0  0  0  0  0  0  0  0  0  0  0
    0.1545  -53.5444  -25.4572 C   0  0  0  0  0  0  0  0  0  0  0  0
    0.0689  -54.3951  -26.5127 C   0  0  0  0  0  0  0  0  0  0  0  0
    0.5921  -54.0063  -27.7411 C   0  0  0  0  0  0  0  0  0  0  0  0
    1.1868  -52.7790  -27.8845 C   0  0  0  0  0  0  0  0  0  0  0  0
    1.2580  -51.9603  -26.8293 N   0  0  0  0  0  0  0  0  0  0  0  0
    0.7658  -52.3103  -25.6480 C   0  0  0  0  0  0  0  0  0  0  0  0
    3.5334  -48.1741  -20.6979 O   0  0  0  0  0  0  0  0  0  0  0  0
    3.6869  -47.2709  -19.6815 C   0  0  0  0  0  0  0  0  0  0  0  0
    3.7741  -45.9079  -19.8601 C   0  0  0  0  0  0  0  0  0  0  0  0
    3.9246  -45.0236  -18.8235 C   0  0  0  0  0  0  0  0  0  0  0  0
    3.9985  -45.4966  -17.4929 C   0  0  0  0  0  0  0  0  0  0  0  0
    3.9113  -46.8548  -17.3285 C   0  0  0  0  0  0  0  0  0  0  0  0
    3.7589  -47.7331  -18.3892 C   0  0  0  0  0  0  0  0  0  0  0  0
    3.9720  -47.4711  -16.0342 C   0  0  0  0  0  0  0  0  0  0  0  0
    4.0278  -47.9479  -14.9674 N   0  0  0  0  0  0  0  0  0  0  0  0
    4.1425  -44.6250  -16.5245 O   0  0  0  0  0  0  0  0  0  0  0  0
    3.6622  -43.8172  -15.5980 C   0  0  0  0  0  0  0  0  0  0  0  0
    2.1271  -43.7937  -15.4933 C   0  0  0  0  0  0  0  0  0  0  0  0
    4.1975  -44.2255  -14.1929 C   0  0  0  0  0  0  0  0  0  0  0  0
  7  8  1  0  0  0
  8  1  1  0  0  0
  1  2  2  0  0  0
  2  3  1  0  0  0
  3  9  1  0  0  0
  9 11  1  0  0  0
 11 12  2  0  0  0
 12 13  1  0  0  0
 13 14  2  0  0  0
 14 15  1  0  0  0
 15 16  2  0  0  0
 15 17  1  0  0  0
 17 18  2  0  0  0
 18 19  1  0  0  0
 19 20  2  0  0  0
 20 21  1  0  0  0
 21 22  2  0  0  0
  3  4  2  0  0  0
  4  5  1  0  0  0
  5  6  2  0  0  0
  6 23  1  0  0  0
 23 24  1  0  0  0
 24 25  2  0  0  0
 25 26  1  0  0  0
 26 27  2  0  0  0
 27 32  1  0  0  0
 32 33  1  0  0  0
 33 34  1  0  0  0
 33 35  1  0  0  0
 27 28  1  0  0  0
 28 29  2  0  0  0
 28 30  1  0  0  0
 30 31  3  0  0  0
  6  1  1  0  0  0
 29 24  1  0  0  0
 16 11  1  0  0  0
 22 17  1  0  0  0
  9 10  1  0  0  0
M  END
> <minimizedAffinity>
-6.13073

> <CNNscore>
0.2078811824

> <CNNaffinity>
6.5686964989

> <CNN_VS>
1.3655084372

> <CNNaffinity_variance>
0.2084178925

$$$$
[H]c1nc(N([H])c2c([H])c([H])c(Oc3c([H])c([H])c(OC([H])(C([H])([H])[H])C([H])([H])[H])c(C#N)c3[H])c(OC([H])([H])[H])c2[H])nc(-c2c([H])nc([H])c([H])c2[H])c1[H]


 35 38  0  0  0  0  0  0  0  0999 V2000
    1.0058  -52.6506  -22.5232 C   0  0  0  0  0  0  0  0  0  0  0  0
    0.0872  -53.0837  -21.5445 C   0  0  0  0  0  0  0  0  0  0  0  0
    0.3048  -52.9274  -20.2047 C   0  0  0  0  0  0  0  0  0  0  0  0
    1.5148  -52.3005  -19.8660 C   0  0  0  0  0  0  0  0  0  0  0  0
    2.4324  -51.8651  -20.7682 C   0  0  0  0  0  0  0  0  0  0  0  0
    2.1685  -52.0459  -22.1235 C   0  0  0  0  0  0  0  0  0  0  0  0
   -0.5364  -53.4807  -24.2160 C   0  0  0  0  0  0  0  0  0  0  0  0
    0.6718  -52.8658  -23.8510 O   0  0  0  0  0  0  0  0  0  0  0  0
   -0.5299  -53.3374  -19.1572 N   0  0  0  0  0  0  0  0  0  0  0  0
   -0.8972  -54.3450  -19.2112 H   0  0  0  0  0  0  0  0  0  0  0  0
   -0.9496  -52.6010  -18.0288 C   0  0  0  0  0  0  0  0  0  0  0  0
   -2.0145  -52.8594  -17.2700 N   0  0  0  0  0  0  0  0  0  0  0  0
   -2.3960  -52.1600  -16.2140 C   0  0  0  0  0  0  0  0  0  0  0  0
   -1.6548  -51.0535  -15.8247 C   0  0  0  0  0  0  0  0  0  0  0  0
   -0.5532  -50.7545  -16.5780 C   0  0  0  0  0  0  0  0  0  0  0  0
   -0.2278  -51.5066  -17.6328 N   0  0  0  0  0  0  0  0  0  0  0  0
    0.2598  -49.6020  -16.2116 C   0  0  0  0  0  0  0  0  0  0  0  0
    1.5432  -49.4108  -16.6135 C   0  0  0  0  0  0  0  0  0  0  0  0
    2.2205  -48.2693  -16.1989 C   0  0  0  0  0  0  0  0  0  0  0  0
    1.6000  -47.3484  -15.3943 C   0  0  0  0  0  0  0  0  0  0  0  0
    0.3358  -47.5607  -15.0128 N   0  0  0  0  0  0  0  0  0  0  0  0
   -0.3298  -48.6426  -15.3961 C   0  0  0  0  0  0  0  0  0  0  0  0
    3.0863  -51.6118  -23.0623 O   0  0  0  0  0  0  0  0  0  0  0  0
    3.1692  -50.3478  -23.5800 C   0  0  0  0  0  0  0  0  0  0  0  0
    3.0080  -49.1948  -22.8440 C   0  0  0  0  0  0  0  0  0  0  0  0
    3.0995  -47.9394  -23.3868 C   0  0  0  0  0  0  0  0  0  0  0  0
    3.3702  -47.7809  -24.7657 C   0  0  0  0  0  0  0  0  0  0  0  0
    3.5277  -48.9358  -25.4873 C   0  0  0  0  0  0  0  0  0  0  0  0
    3.4321  -50.1965  -24.9205 C   0  0  0  0  0  0  0  0  0  0  0  0
    3.8057  -48.9228  -26.8948 C   0  0  0  0  0  0  0  0  0  0  0  0
    4.0058  -48.9020  -28.0473 N   0  0  0  0  0  0  0  0  0  0  0  0
    3.4513  -46.5670  -25.2534 O   0  0  0  0  0  0  0  0  0  0  0  0
    2.9416  -45.3809  -25.5275 C   0  0  0  0  0  0  0  0  0  0  0  0
    1.8925  -44.8794  -24.5194 C   0  0  0  0  0  0  0  0  0  0  0  0
    4.0670  -44.3043  -25.5705 C   0  0  0  0  0  0  0  0  0  0  0  0
  7  8  1  0  0  0
  8  1  1  0  0  0
  1  2  2  0  0  0
  2  3  1  0  0  0
  3  9  1  0  0  0
  9 11  1  0  0  0
 11 12  2  0  0  0
 12 13  1  0  0  0
 13 14  2  0  0  0
 14 15  1  0  0  0
 15 16  2  0  0  0
 15 17  1  0  0  0
 17 18  2  0  0  0
 18 19  1  0  0  0
 19 20  2  0  0  0
 20 21  1  0  0  0
 21 22  2  0  0  0
  3  4  2  0  0  0
  4  5  1  0  0  0
  5  6  2  0  0  0
  6 23  1  0  0  0
 23 24  1  0  0  0
 24 25  2  0  0  0
 25 26  1  0  0  0
 26 27  2  0  0  0
 27 32  1  0  0  0
 32 33  1  0  0  0
 33 34  1  0  0  0
 33 35  1  0  0  0
 27 28  1  0  0  0
 28 29  2  0  0  0
 28 30  1  0  0  0
 30 31  3  0  0  0
  6  1  1  0  0  0
 29 24  1  0  0  0
 16 11  1  0  0  0
 22 17  1  0  0  0
  9 10  1  0  0  0
M  END
> <minimizedAffinity>
-6.66626

> <CNNscore>
0.1956093013

> <CNNaffinity>
6.5437102318

> <CNN_VS>
1.2800105810

> <CNNaffinity_variance>
0.1520652771

$$$$
[H]c1nc(N([H])c2c([H])c([H])c(Oc3c([H])c([H])c(OC([H])(C([H])([H])[H])C([H])([H])[H])c(C#N)c3[H])c(OC([H])([H])[H])c2[H])nc(-c2c([H])nc([H])c([H])c2[H])c1[H]


 35 38  0  0  0  0  0  0  0  0999 V2000
   -0.3683  -53.1124  -21.9068 C   0  0  0  0  0  0  0  0  0  0  0  0
   -0.8051  -53.5949  -20.6556 C   0  0  0  0  0  0  0  0  0  0  0  0
   -0.5573  -52.9399  -19.4823 C   0  0  0  0  0  0  0  0  0  0  0  0
    0.1671  -51.7436  -19.6085 C   0  0  0  0  0  0  0  0  0  0  0  0
    0.6102  -51.2355  -20.7879 C   0  0  0  0  0  0  0  0  0  0  0  0
    0.3348  -51.9375  -21.9586 C   0  0  0  0  0  0  0  0  0  0  0  0
   -1.3567  -55.0938  -22.9217 C   0  0  0  0  0  0  0  0  0  0  0  0
   -0.6816  -53.8673  -23.0262 O   0  0  0  0  0  0  0  0  0  0  0  0
   -0.9282  -53.3419  -18.1927 N   0  0  0  0  0  0  0  0  0  0  0  0
   -0.5370  -54.2849  -17.8600 H   0  0  0  0  0  0  0  0  0  0  0  0
   -1.7465  -52.6653  -17.2631 C   0  0  0  0  0  0  0  0  0  0  0  0
   -3.0166  -52.9506  -16.9764 N   0  0  0  0  0  0  0  0  0  0  0  0
   -3.7721  -52.3073  -16.1016 C   0  0  0  0  0  0  0  0  0  0  0  0
   -3.2397  -51.2366  -15.3978 C   0  0  0  0  0  0  0  0  0  0  0  0
   -1.9380  -50.9117  -15.6632 C   0  0  0  0  0  0  0  0  0  0  0  0
   -1.2346  -51.6068  -16.5611 N   0  0  0  0  0  0  0  0  0  0  0  0
   -1.3308  -49.7949  -14.9509 C   0  0  0  0  0  0  0  0  0  0  0  0
   -1.1599  -49.7471  -13.6041 C   0  0  0  0  0  0  0  0  0  0  0  0
   -0.5663  -48.6255  -13.0354 C   0  0  0  0  0  0  0  0  0  0  0  0
   -0.1588  -47.5810  -13.8249 C   0  0  0  0  0  0  0  0  0  0  0  0
   -0.3388  -47.6532  -15.1482 N   0  0  0  0  0  0  0  0  0  0  0  0
   -0.9028  -48.7133  -15.7125 C   0  0  0  0  0  0  0  0  0  0  0  0
    0.7747  -51.4419  -23.1722 O   0  0  0  0  0  0  0  0  0  0  0  0
    2.0774  -51.2088  -23.5201 C   0  0  0  0  0  0  0  0  0  0  0  0
    2.9855  -52.1951  -23.8360 C   0  0  0  0  0  0  0  0  0  0  0  0
    4.2852  -51.9343  -24.1848 C   0  0  0  0  0  0  0  0  0  0  0  0
    4.7527  -50.6006  -24.2327 C   0  0  0  0  0  0  0  0  0  0  0  0
    3.8398  -49.6284  -23.9155 C   0  0  0  0  0  0  0  0  0  0  0  0
    2.5294  -49.9117  -23.5655 C   0  0  0  0  0  0  0  0  0  0  0  0
    4.1780  -48.2340  -23.9229 C   0  0  0  0  0  0  0  0  0  0  0  0
    4.4270  -47.0910  -23.9199 N   0  0  0  0  0  0  0  0  0  0  0  0
    6.0009  -50.3852  -24.5699 O   0  0  0  0  0  0  0  0  0  0  0  0
    7.2733  -50.1897  -24.2790 C   0  0  0  0  0  0  0  0  0  0  0  0
    7.8383  -48.8313  -24.7306 C   0  0  0  0  0  0  0  0  0  0  0  0
    7.4964  -50.2744  -22.7393 C   0  0  0  0  0  0  0  0  0  0  0  0
  7  8  1  0  0  0
  8  1  1  0  0  0
  1  2  2  0  0  0
  2  3  1  0  0  0
  3  9  1  0  0  0
  9 11  1  0  0  0
 11 12  2  0  0  0
 12 13  1  0  0  0
 13 14  2  0  0  0
 14 15  1  0  0  0
 15 16  2  0  0  0
 15 17  1  0  0  0
 17 18  2  0  0  0
 18 19  1  0  0  0
 19 20  2  0  0  0
 20 21  1  0  0  0
 21 22  2  0  0  0
  3  4  2  0  0  0
  4  5  1  0  0  0
  5  6  2  0  0  0
  6 23  1  0  0  0
 23 24  1  0  0  0
 24 25  2  0  0  0
 25 26  1  0  0  0
 26 27  2  0  0  0
 27 32  1  0  0  0
 32 33  1  0  0  0
 33 34  1  0  0  0
 33 35  1  0  0  0
 27 28  1  0  0  0
 28 29  2  0  0  0
 28 30  1  0  0  0
 30 31  3  0  0  0
  6  1  1  0  0  0
 29 24  1  0  0  0
 16 11  1  0  0  0
 22 17  1  0  0  0
  9 10  1  0  0  0
M  END
> <minimizedAffinity>
-6.95134

> <CNNscore>
0.1628780663

> <CNNaffinity>
6.3018217087

> <CNN_VS>
1.0264285803

> <CNNaffinity_variance>
0.1141174808

$$$$
[H]c1nc(N([H])c2c([H])c([H])c(Oc3c([H])c([H])c(OC([H])(C([H])([H])[H])C([H])([H])[H])c(C#N)c3[H])c(OC([H])([H])[H])c2[H])nc(-c2c([H])nc([H])c([H])c2[H])c1[H]


 35 38  0  0  0  0  0  0  0  0999 V2000
    3.6137  -49.4383  -24.6868 C   0  0  0  0  0  0  0  0  0  0  0  0
    2.7578  -49.5281  -23.5693 C   0  0  0  0  0  0  0  0  0  0  0  0
    2.4907  -48.4643  -22.7544 C   0  0  0  0  0  0  0  0  0  0  0  0
    3.1310  -47.2659  -23.1088 C   0  0  0  0  0  0  0  0  0  0  0  0
    3.9632  -47.1261  -24.1734 C   0  0  0  0  0  0  0  0  0  0  0  0
    4.2069  -48.2376  -24.9762 C   0  0  0  0  0  0  0  0  0  0  0  0
    3.5072  -51.8602  -24.9239 C   0  0  0  0  0  0  0  0  0  0  0  0
    3.8060  -50.5878  -25.4368 O   0  0  0  0  0  0  0  0  0  0  0  0
    1.6756  -48.4533  -21.6153 N   0  0  0  0  0  0  0  0  0  0  0  0
    1.3861  -47.4860  -21.2497 H   0  0  0  0  0  0  0  0  0  0  0  0
    1.1743  -49.5508  -20.8833 C   0  0  0  0  0  0  0  0  0  0  0  0
    1.1289  -49.6584  -19.5555 N   0  0  0  0  0  0  0  0  0  0  0  0
    0.6554  -50.6940  -18.8823 C   0  0  0  0  0  0  0  0  0  0  0  0
    0.1521  -51.7856  -19.5753 C   0  0  0  0  0  0  0  0  0  0  0  0
    0.1807  -51.7143  -20.9408 C   0  0  0  0  0  0  0  0  0  0  0  0
    0.6744  -50.6351  -21.5538 N   0  0  0  0  0  0  0  0  0  0  0  0
   -0.3360  -52.8346  -21.7162 C   0  0  0  0  0  0  0  0  0  0  0  0
   -0.0898  -53.0301  -23.0377 C   0  0  0  0  0  0  0  0  0  0  0  0
   -0.6388  -54.1387  -23.6729 C   0  0  0  0  0  0  0  0  0  0  0  0
   -1.4188  -55.0233  -22.9732 C   0  0  0  0  0  0  0  0  0  0  0  0
   -1.6457  -54.8076  -21.6729 N   0  0  0  0  0  0  0  0  0  0  0  0
   -1.1324  -53.7567  -21.0464 C   0  0  0  0  0  0  0  0  0  0  0  0
    5.0502  -48.1220  -26.0659 O   0  0  0  0  0  0  0  0  0  0  0  0
    4.6742  -47.8031  -27.3424 C   0  0  0  0  0  0  0  0  0  0  0  0
    3.6803  -46.9032  -27.6575 C   0  0  0  0  0  0  0  0  0  0  0  0
    3.3249  -46.5988  -28.9460 C   0  0  0  0  0  0  0  0  0  0  0  0
    3.9880  -47.2193  -30.0300 C   0  0  0  0  0  0  0  0  0  0  0  0
    4.9744  -48.1134  -29.7032 C   0  0  0  0  0  0  0  0  0  0  0  0
    5.3199  -48.4079  -28.3941 C   0  0  0  0  0  0  0  0  0  0  0  0
    5.7279  -48.8154  -30.7023 C   0  0  0  0  0  0  0  0  0  0  0  0
    6.3652  -49.3717  -31.5103 N   0  0  0  0  0  0  0  0  0  0  0  0
    3.6243  -46.9063  -31.2498 O   0  0  0  0  0  0  0  0  0  0  0  0
    2.9724  -46.1577  -32.1194 C   0  0  0  0  0  0  0  0  0  0  0  0
    3.7676  -45.7980  -33.3870 C   0  0  0  0  0  0  0  0  0  0  0  0
    1.6790  -46.8834  -32.5969 C   0  0  0  0  0  0  0  0  0  0  0  0
  7  8  1  0  0  0
  8  1  1  0  0  0
  1  2  2  0  0  0
  2  3  1  0  0  0
  3  9  1  0  0  0
  9 11  1  0  0  0
 11 12  2  0  0  0
 12 13  1  0  0  0
 13 14  2  0  0  0
 14 15  1  0  0  0
 15 16  2  0  0  0
 15 17  1  0  0  0
 17 18  2  0  0  0
 18 19  1  0  0  0
 19 20  2  0  0  0
 20 21  1  0  0  0
 21 22  2  0  0  0
  3  4  2  0  0  0
  4  5  1  0  0  0
  5  6  2  0  0  0
  6 23  1  0  0  0
 23 24  1  0  0  0
 24 25  2  0  0  0
 25 26  1  0  0  0
 26 27  2  0  0  0
 27 32  1  0  0  0
 32 33  1  0  0  0
 33 34  1  0  0  0
 33 35  1  0  0  0
 27 28  1  0  0  0
 28 29  2  0  0  0
 28 30  1  0  0  0
 30 31  3  0  0  0
  6  1  1  0  0  0
 29 24  1  0  0  0
 16 11  1  0  0  0
 22 17  1  0  0  0
  9 10  1  0  0  0
M  END
> <minimizedAffinity>
-7.18549

> <CNNscore>
0.1620922089

> <CNNaffinity>
6.2927803993

> <CNN_VS>
1.0200107098

> <CNNaffinity_variance>
0.1075820699

$$$$
[H]C([H])=C([H])C(=O)N([H])c1c([H])c([H])c([H])c2nc([H])nc(N([H])c3c([H])c([H])c(OC([H])([H])c4c([H])c([H])c([H])c(F)c4[H])c(Cl)c3[H])c12


 34 37  0  0  0  0  0  0  0  0999 V2000
    0.9344  -51.3207  -22.1766 N   0  0  0  0  0  0  0  0  0  0  0  0
    1.3958  -51.0690  -23.0510 H   0  0  0  0  0  0  0  0  0  0  0  0
   -0.0348  -52.3407  -22.0831 C   0  0  0  0  0  0  0  0  0  0  0  0
   -0.5959  -52.5426  -20.8365 N   0  0  0  0  0  0  0  0  0  0  0  0
   -1.2991  -53.6321  -20.5576 C   0  0  0  0  0  0  0  0  0  0  0  0
   -1.4984  -54.5871  -21.4701 N   0  0  0  0  0  0  0  0  0  0  0  0
   -0.9665  -54.4235  -22.7114 C   0  0  0  0  0  0  0  0  0  0  0  0
   -1.1692  -55.3979  -23.6607 C   0  0  0  0  0  0  0  0  0  0  0  0
   -0.6665  -55.2741  -24.9210 C   0  0  0  0  0  0  0  0  0  0  0  0
    0.0517  -54.1651  -25.2677 C   0  0  0  0  0  0  0  0  0  0  0  0
    0.2841  -53.1456  -24.3344 C   0  0  0  0  0  0  0  0  0  0  0  0
   -0.2175  -53.2799  -23.0517 C   0  0  0  0  0  0  0  0  0  0  0  0
    0.7716  -51.9134  -24.8024 N   0  0  0  0  0  0  0  0  0  0  0  0
    2.1413  -51.6120  -24.8881 C   0  0  0  0  0  0  0  0  0  0  0  0
    3.0191  -52.4299  -24.5328 O   0  0  0  0  0  0  0  0  0  0  0  0
    0.1175  -51.1900  -25.1939 H   0  0  0  0  0  0  0  0  0  0  0  0
    2.6460  -50.3295  -25.3950 C   0  0  0  0  0  0  0  0  0  0  0  0
    3.1803  -50.1705  -26.5747 C   0  0  0  0  0  0  0  0  0  0  0  0
    2.2226  -49.2432  -18.6881 C   0  0  0  0  0  0  0  0  0  0  0  0
    1.3579  -48.6757  -19.6029 C   0  0  0  0  0  0  0  0  0  0  0  0
    0.9688  -49.3637  -20.7234 C   0  0  0  0  0  0  0  0  0  0  0  0
    1.4241  -50.6624  -20.9928 C   0  0  0  0  0  0  0  0  0  0  0  0
    2.2736  -51.2047  -20.0808 C   0  0  0  0  0  0  0  0  0  0  0  0
    2.6783  -50.5095  -18.9317 C   0  0  0  0  0  0  0  0  0  0  0  0
    3.7820  -51.2824  -17.8005 Cl  0  0  0  0  0  0  0  0  0  0  0  0
    2.6314  -48.5679  -17.5473 O   0  0  0  0  0  0  0  0  0  0  0  0
    1.6725  -48.2790  -16.5673 C   0  0  0  0  0  0  0  0  0  0  0  0
   -2.0952  -51.3355  -16.2772 F   0  0  0  0  0  0  0  0  0  0  0  0
   -0.8308  -50.9888  -15.9184 C   0  0  0  0  0  0  0  0  0  0  0  0
   -0.1564  -51.8008  -15.0576 C   0  0  0  0  0  0  0  0  0  0  0  0
    1.1201  -51.4720  -14.6811 C   0  0  0  0  0  0  0  0  0  0  0  0
    1.6908  -50.3206  -15.1874 C   0  0  0  0  0  0  0  0  0  0  0  0
    1.0021  -49.5060  -16.0569 C   0  0  0  0  0  0  0  0  0  0  0  0
   -0.2692  -49.8462  -16.4232 C   0  0  0  0  0  0  0  0  0  0  0  0
 28 29  1  0  0  0
 29 30  2  0  0  0
 30 31  1  0  0  0
 31 32  2  0  0  0
 32 33  1  0  0  0
 33 27  1  0  0  0
 27 26  1  0  0  0
 26 19  1  0  0  0
 19 20  2  0  0  0
 20 21  1  0  0  0
 21 22  2  0  0  0
 22  1  1  0  0  0
  1  3  1  0  0  0
  3  4  2  0  0  0
  4  5  1  0  0  0
  5  6  2  0  0  0
  6  7  1  0  0  0
  7  8  2  0  0  0
  8  9  1  0  0  0
  9 10  2  0  0  0
 10 11  1  0  0  0
 11 13  1  0  0  0
 13 14  1  0  0  0
 14 15  2  0  0  0
 14 17  1  0  0  0
 17 18  2  0  0  0
 11 12  2  0  0  0
 22 23  1  0  0  0
 23 24  2  0  0  0
 24 25  1  0  0  0
 33 34  2  0  0  0
 34 29  1  0  0  0
 24 19  1  0  0  0
 12  3  1  0  0  0
 12  7  1  0  0  0
  1  2  1  0  0  0
 13 16  1  0  0  0
M  END
> <minimizedAffinity>
-6.98500

> <CNNscore>
0.4606171548

> <CNNaffinity>
7.2269563675

> <CNN_VS>
3.3288600445

> <CNNaffinity_variance>
0.3652406633

$$$$
[H]C([H])=C([H])C(=O)N([H])c1c([H])c([H])c([H])c2nc([H])nc(N([H])c3c([H])c([H])c(OC([H])([H])c4c([H])c([H])c([H])c(F)c4[H])c(Cl)c3[H])c12


 34 37  0  0  0  0  0  0  0  0999 V2000
    0.1247  -52.2128  -18.1087 N   0  0  0  0  0  0  0  0  0  0  0  0
    1.1031  -52.1284  -17.8321 H   0  0  0  0  0  0  0  0  0  0  0  0
   -0.9450  -52.1137  -17.1953 C   0  0  0  0  0  0  0  0  0  0  0  0
   -1.9241  -53.0845  -17.2882 N   0  0  0  0  0  0  0  0  0  0  0  0
   -3.0987  -52.9486  -16.6872 C   0  0  0  0  0  0  0  0  0  0  0  0
   -3.3910  -51.8651  -15.9626 N   0  0  0  0  0  0  0  0  0  0  0  0
   -2.4516  -50.8886  -15.8424 C   0  0  0  0  0  0  0  0  0  0  0  0
   -2.7395  -49.7707  -15.0948 C   0  0  0  0  0  0  0  0  0  0  0  0
   -1.8273  -48.7712  -14.9355 C   0  0  0  0  0  0  0  0  0  0  0  0
   -0.5959  -48.8663  -15.5189 C   0  0  0  0  0  0  0  0  0  0  0  0
   -0.2568  -49.9867  -16.2898 C   0  0  0  0  0  0  0  0  0  0  0  0
   -1.1897  -50.9945  -16.4597 C   0  0  0  0  0  0  0  0  0  0  0  0
    1.0937  -50.1773  -16.6287 N   0  0  0  0  0  0  0  0  0  0  0  0
    2.0440  -50.6970  -15.7336 C   0  0  0  0  0  0  0  0  0  0  0  0
    1.7416  -51.0103  -14.5606 O   0  0  0  0  0  0  0  0  0  0  0  0
    1.4298  -50.0149  -17.6111 H   0  0  0  0  0  0  0  0  0  0  0  0
    3.4503  -50.9112  -16.0984 C   0  0  0  0  0  0  0  0  0  0  0  0
    3.9330  -50.7093  -17.2938 C   0  0  0  0  0  0  0  0  0  0  0  0
   -0.4962  -52.3253  -22.3213 C   0  0  0  0  0  0  0  0  0  0  0  0
   -0.0854  -51.1790  -21.6705 C   0  0  0  0  0  0  0  0  0  0  0  0
    0.0956  -51.1685  -20.3113 C   0  0  0  0  0  0  0  0  0  0  0  0
   -0.1247  -52.3079  -19.5240 C   0  0  0  0  0  0  0  0  0  0  0  0
   -0.5277  -53.4267  -20.1823 C   0  0  0  0  0  0  0  0  0  0  0  0
   -0.7163  -53.4481  -21.5721 C   0  0  0  0  0  0  0  0  0  0  0  0
   -1.2409  -54.9373  -22.3480 Cl  0  0  0  0  0  0  0  0  0  0  0  0
   -0.6868  -52.3615  -23.6951 O   0  0  0  0  0  0  0  0  0  0  0  0
    0.4349  -52.5348  -24.5166 C   0  0  0  0  0  0  0  0  0  0  0  0
   -2.7645  -52.3932  -28.1725 F   0  0  0  0  0  0  0  0  0  0  0  0
   -1.4862  -52.5341  -27.7322 C   0  0  0  0  0  0  0  0  0  0  0  0
   -0.5043  -52.7463  -28.6519 C   0  0  0  0  0  0  0  0  0  0  0  0
    0.7926  -52.8914  -28.2318 C   0  0  0  0  0  0  0  0  0  0  0  0
    1.0699  -52.8183  -26.8808 C   0  0  0  0  0  0  0  0  0  0  0  0
    0.0714  -52.6035  -25.9584 C   0  0  0  0  0  0  0  0  0  0  0  0
   -1.2164  -52.4607  -26.3914 C   0  0  0  0  0  0  0  0  0  0  0  0
 28 29  1  0  0  0
 29 30  2  0  0  0
 30 31  1  0  0  0
 31 32  2  0  0  0
 32 33  1  0  0  0
 33 27  1  0  0  0
 27 26  1  0  0  0
 26 19  1  0  0  0
 19 20  2  0  0  0
 20 21  1  0  0  0
 21 22  2  0  0  0
 22  1  1  0  0  0
  1  3  1  0  0  0
  3  4  2  0  0  0
  4  5  1  0  0  0
  5  6  2  0  0  0
  6  7  1  0  0  0
  7  8  2  0  0  0
  8  9  1  0  0  0
  9 10  2  0  0  0
 10 11  1  0  0  0
 11 13  1  0  0  0
 13 14  1  0  0  0
 14 15  2  0  0  0
 14 17  1  0  0  0
 17 18  2  0  0  0
 11 12  2  0  0  0
 22 23  1  0  0  0
 23 24  2  0  0  0
 24 25  1  0  0  0
 33 34  2  0  0  0
 34 29  1  0  0  0
 24 19  1  0  0  0
 12  3  1  0  0  0
 12  7  1  0  0  0
  1  2  1  0  0  0
 13 16  1  0  0  0
M  END
> <minimizedAffinity>
-8.36649

> <CNNscore>
0.3805601001

> <CNNaffinity>
6.8541541100

> <CNN_VS>
2.6084175110

> <CNNaffinity_variance>
0.1011386514

$$$$
[H]C([H])=C([H])C(=O)N([H])c1c([H])c([H])c([H])c2nc([H])nc(N([H])c3c([H])c([H])c(OC([H])([H])c4c([H])c([H])c([H])c(F)c4[H])c(Cl)c3[H])c12


 34 37  0  0  0  0  0  0  0  0999 V2000
    1.4507  -52.4285  -22.2752 N   0  0  0  0  0  0  0  0  0  0  0  0
    2.4476  -52.4460  -22.4915 H   0  0  0  0  0  0  0  0  0  0  0  0
    0.4704  -52.9957  -23.1153 C   0  0  0  0  0  0  0  0  0  0  0  0
   -0.2807  -54.0229  -22.5764 N   0  0  0  0  0  0  0  0  0  0  0  0
   -1.0280  -54.8121  -23.3368 C   0  0  0  0  0  0  0  0  0  0  0  0
   -1.0898  -54.6508  -24.6614 N   0  0  0  0  0  0  0  0  0  0  0  0
   -0.3687  -53.6472  -25.2301 C   0  0  0  0  0  0  0  0  0  0  0  0
   -0.4284  -53.4685  -26.5924 C   0  0  0  0  0  0  0  0  0  0  0  0
    0.2665  -52.4704  -27.2067 C   0  0  0  0  0  0  0  0  0  0  0  0
    1.0394  -51.6182  -26.4704 C   0  0  0  0  0  0  0  0  0  0  0  0
    1.1313  -51.7609  -25.0790 C   0  0  0  0  0  0  0  0  0  0  0  0
    0.4338  -52.7831  -24.4596 C   0  0  0  0  0  0  0  0  0  0  0  0
    1.6963  -50.7090  -24.3381 N   0  0  0  0  0  0  0  0  0  0  0  0
    3.0708  -50.6161  -24.0615 C   0  0  0  0  0  0  0  0  0  0  0  0
    3.8812  -51.4860  -24.4516 O   0  0  0  0  0  0  0  0  0  0  0  0
    1.1106  -49.8921  -24.0312 H   0  0  0  0  0  0  0  0  0  0  0  0
    3.6587  -49.5052  -23.3021 C   0  0  0  0  0  0  0  0  0  0  0  0
    2.9742  -48.4965  -22.8368 C   0  0  0  0  0  0  0  0  0  0  0  0
    0.3454  -51.0681  -18.3929 C   0  0  0  0  0  0  0  0  0  0  0  0
   -0.1104  -52.2652  -18.9084 C   0  0  0  0  0  0  0  0  0  0  0  0
    0.2527  -52.6730  -20.1662 C   0  0  0  0  0  0  0  0  0  0  0  0
    1.0950  -51.9038  -20.9820 C   0  0  0  0  0  0  0  0  0  0  0  0
    1.5342  -50.7293  -20.4573 C   0  0  0  0  0  0  0  0  0  0  0  0
    1.1684  -50.3027  -19.1721 C   0  0  0  0  0  0  0  0  0  0  0  0
    1.7794  -48.7678  -18.5669 Cl  0  0  0  0  0  0  0  0  0  0  0  0
   -0.0077  -50.6332  -17.1237 O   0  0  0  0  0  0  0  0  0  0  0  0
   -0.4992  -51.5765  -16.2116 C   0  0  0  0  0  0  0  0  0  0  0  0
   -5.1514  -52.9725  -16.3881 F   0  0  0  0  0  0  0  0  0  0  0  0
   -4.2077  -52.0669  -16.0179 C   0  0  0  0  0  0  0  0  0  0  0  0
   -4.6110  -50.9423  -15.3638 C   0  0  0  0  0  0  0  0  0  0  0  0
   -3.6775  -50.0144  -14.9803 C   0  0  0  0  0  0  0  0  0  0  0  0
   -2.3469  -50.2460  -15.2689 C   0  0  0  0  0  0  0  0  0  0  0  0
   -1.9483  -51.3853  -15.9301 C   0  0  0  0  0  0  0  0  0  0  0  0
   -2.8894  -52.3012  -16.3063 C   0  0  0  0  0  0  0  0  0  0  0  0
 28 29  1  0  0  0
 29 30  2  0  0  0
 30 31  1  0  0  0
 31 32  2  0  0  0
 32 33  1  0  0  0
 33 27  1  0  0  0
 27 26  1  0  0  0
 26 19  1  0  0  0
 19 20  2  0  0  0
 20 21  1  0  0  0
 21 22  2  0  0  0
 22  1  1  0  0  0
  1  3  1  0  0  0
  3  4  2  0  0  0
  4  5  1  0  0  0
  5  6  2  0  0  0
  6  7  1  0  0  0
  7  8  2  0  0  0
  8  9  1  0  0  0
  9 10  2  0  0  0
 10 11  1  0  0  0
 11 13  1  0  0  0
 13 14  1  0  0  0
 14 15  2  0  0  0
 14 17  1  0  0  0
 17 18  2  0  0  0
 11 12  2  0  0  0
 22 23  1  0  0  0
 23 24  2  0  0  0
 24 25  1  0  0  0
 33 34  2  0  0  0
 34 29  1  0  0  0
 24 19  1  0  0  0
 12  3  1  0  0  0
 12  7  1  0  0  0
  1  2  1  0  0  0
 13 16  1  0  0  0
M  END
> <minimizedAffinity>
-8.24230

> <CNNscore>
0.3715313673

> <CNNaffinity>
6.9723100662

> <CNN_VS>
2.5904319286

> <CNNaffinity_variance>
0.1968208998

$$$$
[H]C([H])=C([H])C(=O)N([H])c1c([H])c([H])c([H])c2nc([H])nc(N([H])c3c([H])c([H])c(OC([H])([H])c4c([H])c([H])c([H])c(F)c4[H])c(Cl)c3[H])c12


 34 37  0  0  0  0  0  0  0  0999 V2000
    0.0066  -53.4957  -24.5504 N   0  0  0  0  0  0  0  0  0  0  0  0
    0.3313  -54.4624  -24.5231 H   0  0  0  0  0  0  0  0  0  0  0  0
   -0.6073  -52.9211  -25.6825 C   0  0  0  0  0  0  0  0  0  0  0  0
   -1.8929  -52.4449  -25.5088 N   0  0  0  0  0  0  0  0  0  0  0  0
   -2.6686  -52.1421  -26.5413 C   0  0  0  0  0  0  0  0  0  0  0  0
   -2.2430  -52.2835  -27.7995 N   0  0  0  0  0  0  0  0  0  0  0  0
   -0.9811  -52.7448  -28.0127 C   0  0  0  0  0  0  0  0  0  0  0  0
   -0.5303  -52.8898  -29.3039 C   0  0  0  0  0  0  0  0  0  0  0  0
    0.7293  -53.3372  -29.5680 C   0  0  0  0  0  0  0  0  0  0  0  0
    1.5763  -53.6484  -28.5426 C   0  0  0  0  0  0  0  0  0  0  0  0
    1.1616  -53.5166  -27.2102 C   0  0  0  0  0  0  0  0  0  0  0  0
   -0.1223  -53.0735  -26.9455 C   0  0  0  0  0  0  0  0  0  0  0  0
    2.1380  -53.5706  -26.2009 N   0  0  0  0  0  0  0  0  0  0  0  0
    2.9808  -52.4905  -25.8891 C   0  0  0  0  0  0  0  0  0  0  0  0
    2.9203  -51.4068  -26.5119 O   0  0  0  0  0  0  0  0  0  0  0  0
    2.2161  -54.4094  -25.5726 H   0  0  0  0  0  0  0  0  0  0  0  0
    3.9873  -52.5460  -24.8212 C   0  0  0  0  0  0  0  0  0  0  0  0
    4.7095  -51.5263  -24.4454 C   0  0  0  0  0  0  0  0  0  0  0  0
    0.1879  -51.5185  -20.7818 C   0  0  0  0  0  0  0  0  0  0  0  0
   -0.5095  -52.6969  -20.9595 C   0  0  0  0  0  0  0  0  0  0  0  0
   -0.5603  -53.3057  -22.1871 C   0  0  0  0  0  0  0  0  0  0  0  0
    0.0858  -52.7684  -23.3098 C   0  0  0  0  0  0  0  0  0  0  0  0
    0.7678  -51.6089  -23.1152 C   0  0  0  0  0  0  0  0  0  0  0  0
    0.8257  -50.9777  -21.8639 C   0  0  0  0  0  0  0  0  0  0  0  0
    1.7294  -49.4776  -21.6961 Cl  0  0  0  0  0  0  0  0  0  0  0  0
    0.2541  -50.8830  -19.5503 O   0  0  0  0  0  0  0  0  0  0  0  0
    0.5198  -51.6606  -18.4154 C   0  0  0  0  0  0  0  0  0  0  0  0
   -3.5925  -53.3123  -16.4195 F   0  0  0  0  0  0  0  0  0  0  0  0
   -2.5824  -52.4031  -16.4518 C   0  0  0  0  0  0  0  0  0  0  0  0
   -2.5870  -51.3975  -15.5333 C   0  0  0  0  0  0  0  0  0  0  0  0
   -1.5788  -50.4685  -15.5461 C   0  0  0  0  0  0  0  0  0  0  0  0
   -0.5809  -50.5780  -16.4946 C   0  0  0  0  0  0  0  0  0  0  0  0
   -0.5842  -51.5976  -17.4189 C   0  0  0  0  0  0  0  0  0  0  0  0
   -1.5951  -52.5161  -17.3943 C   0  0  0  0  0  0  0  0  0  0  0  0
 28 29  1  0  0  0
 29 30  2  0  0  0
 30 31  1  0  0  0
 31 32  2  0  0  0
 32 33  1  0  0  0
 33 27  1  0  0  0
 27 26  1  0  0  0
 26 19  1  0  0  0
 19 20  2  0  0  0
 20 21  1  0  0  0
 21 22  2  0  0  0
 22  1  1  0  0  0
  1  3  1  0  0  0
  3  4  2  0  0  0
  4  5  1  0  0  0
  5  6  2  0  0  0
  6  7  1  0  0  0
  7  8  2  0  0  0
  8  9  1  0  0  0
  9 10  2  0  0  0
 10 11  1  0  0  0
 11 13  1  0  0  0
 13 14  1  0  0  0
 14 15  2  0  0  0
 14 17  1  0  0  0
 17 18  2  0  0  0
 11 12  2  0  0  0
 22 23  1  0  0  0
 23 24  2  0  0  0
 24 25  1  0  0  0
 33 34  2  0  0  0
 34 29  1  0  0  0
 24 19  1  0  0  0
 12  3  1  0  0  0
 12  7  1  0  0  0
  1  2  1  0  0  0
 13 16  1  0  0  0
M  END
> <minimizedAffinity>
-8.38126

> <CNNscore>
0.2814841568

> <CNNaffinity>
6.9302124977

> <CNN_VS>
1.9507449865

> <CNNaffinity_variance>
0.1825640649

$$$$
[H]C([H])=C([H])C(=O)N([H])c1c([H])c([H])c([H])c2nc([H])nc(N([H])c3c([H])c([H])c(OC([H])([H])c4c([H])c([H])c([H])c(F)c4[H])c(Cl)c3[H])c12


 34 37  0  0  0  0  0  0  0  0999 V2000
    1.3047  -52.0897  -19.8344 N   0  0  0  0  0  0  0  0  0  0  0  0
    2.2951  -52.1996  -19.6158 H   0  0  0  0  0  0  0  0  0  0  0  0
    0.7672  -52.3329  -21.1153 C   0  0  0  0  0  0  0  0  0  0  0  0
   -0.4698  -52.9475  -21.1558 N   0  0  0  0  0  0  0  0  0  0  0  0
   -0.9493  -53.4742  -22.2748 C   0  0  0  0  0  0  0  0  0  0  0  0
   -0.2578  -53.4352  -23.4171 N   0  0  0  0  0  0  0  0  0  0  0  0
    0.9626  -52.8341  -23.4199 C   0  0  0  0  0  0  0  0  0  0  0  0
    1.6815  -52.7836  -24.5913 C   0  0  0  0  0  0  0  0  0  0  0  0
    2.9030  -52.1825  -24.6470 C   0  0  0  0  0  0  0  0  0  0  0  0
    3.4378  -51.6096  -23.5283 C   0  0  0  0  0  0  0  0  0  0  0  0
    2.7422  -51.6359  -22.3117 C   0  0  0  0  0  0  0  0  0  0  0  0
    1.5073  -52.2578  -22.2555 C   0  0  0  0  0  0  0  0  0  0  0  0
    3.1870  -50.8009  -21.2726 N   0  0  0  0  0  0  0  0  0  0  0  0
    2.9373  -49.4186  -21.2379 C   0  0  0  0  0  0  0  0  0  0  0  0
    2.3082  -48.8399  -22.1517 O   0  0  0  0  0  0  0  0  0  0  0  0
    3.6582  -51.2032  -20.4236 H   0  0  0  0  0  0  0  0  0  0  0  0
    3.3887  -48.5534  -20.1406 C   0  0  0  0  0  0  0  0  0  0  0  0
    4.1367  -48.9596  -19.1515 C   0  0  0  0  0  0  0  0  0  0  0  0
   -1.2786  -51.4259  -16.5132 C   0  0  0  0  0  0  0  0  0  0  0  0
   -1.2881  -52.6088  -17.2254 C   0  0  0  0  0  0  0  0  0  0  0  0
   -0.4531  -52.7908  -18.2977 C   0  0  0  0  0  0  0  0  0  0  0  0
    0.4414  -51.7965  -18.7195 C   0  0  0  0  0  0  0  0  0  0  0  0
    0.4369  -50.6397  -18.0058 C   0  0  0  0  0  0  0  0  0  0  0  0
   -0.4133  -50.4431  -16.9077 C   0  0  0  0  0  0  0  0  0  0  0  0
   -0.3581  -48.9152  -16.0374 Cl  0  0  0  0  0  0  0  0  0  0  0  0
   -2.1137  -51.2172  -15.4251 O   0  0  0  0  0  0  0  0  0  0  0  0
   -3.4808  -51.0254  -15.6646 C   0  0  0  0  0  0  0  0  0  0  0  0
   -6.0179  -55.1617  -15.3877 F   0  0  0  0  0  0  0  0  0  0  0  0
   -5.5557  -54.0234  -14.8059 C   0  0  0  0  0  0  0  0  0  0  0  0
   -5.8804  -53.7833  -13.5051 C   0  0  0  0  0  0  0  0  0  0  0  0
   -5.4258  -52.6420  -12.8967 C   0  0  0  0  0  0  0  0  0  0  0  0
   -4.6471  -51.7621  -13.6226 C   0  0  0  0  0  0  0  0  0  0  0  0
   -4.3237  -52.0128  -14.9366 C   0  0  0  0  0  0  0  0  0  0  0  0
   -4.7837  -53.1541  -15.5299 C   0  0  0  0  0  0  0  0  0  0  0  0
 28 29  1  0  0  0
 29 30  2  0  0  0
 30 31  1  0  0  0
 31 32  2  0  0  0
 32 33  1  0  0  0
 33 27  1  0  0  0
 27 26  1  0  0  0
 26 19  1  0  0  0
 19 20  2  0  0  0
 20 21  1  0  0  0
 21 22  2  0  0  0
 22  1  1  0  0  0
  1  3  1  0  0  0
  3  4  2  0  0  0
  4  5  1  0  0  0
  5  6  2  0  0  0
  6  7  1  0  0  0
  7  8  2  0  0  0
  8  9  1  0  0  0
  9 10  2  0  0  0
 10 11  1  0  0  0
 11 13  1  0  0  0
 13 14  1  0  0  0
 14 15  2  0  0  0
 14 17  1  0  0  0
 17 18  2  0  0  0
 11 12  2  0  0  0
 22 23  1  0  0  0
 23 24  2  0  0  0
 24 25  1  0  0  0
 33 34  2  0  0  0
 34 29  1  0  0  0
 24 19  1  0  0  0
 12  3  1  0  0  0
 12  7  1  0  0  0
  1  2  1  0  0  0
 13 16  1  0  0  0
M  END
> <minimizedAffinity>
-7.06980

> <CNNscore>
0.2503156364

> <CNNaffinity>
6.6105818748

> <CNN_VS>
1.6547319889

> <CNNaffinity_variance>
0.1864403039

$$$$
[H]C([H])=C([H])C(=O)N([H])c1c([H])c([H])c([H])c2nc([H])nc(N([H])c3c([H])c([H])c(OC([H])([H])c4c([H])c([H])c([H])c(F)c4[H])c(Cl)c3[H])c12


 34 37  0  0  0  0  0  0  0  0999 V2000
   -0.5982  -52.3788  -17.0790 N   0  0  0  0  0  0  0  0  0  0  0  0
    0.2537  -52.6539  -16.5897 H   0  0  0  0  0  0  0  0  0  0  0  0
   -1.7746  -51.9795  -16.4118 C   0  0  0  0  0  0  0  0  0  0  0  0
   -2.9101  -52.7235  -16.6704 N   0  0  0  0  0  0  0  0  0  0  0  0
   -4.1176  -52.2915  -16.3317 C   0  0  0  0  0  0  0  0  0  0  0  0
   -4.2933  -51.1151  -15.7238 N   0  0  0  0  0  0  0  0  0  0  0  0
   -3.1996  -50.3549  -15.4471 C   0  0  0  0  0  0  0  0  0  0  0  0
   -3.3678  -49.1440  -14.8171 C   0  0  0  0  0  0  0  0  0  0  0  0
   -2.3026  -48.3524  -14.5086 C   0  0  0  0  0  0  0  0  0  0  0  0
   -1.0350  -48.7552  -14.8198 C   0  0  0  0  0  0  0  0  0  0  0  0
   -0.8140  -49.9814  -15.4619 C   0  0  0  0  0  0  0  0  0  0  0  0
   -1.8989  -50.7775  -15.7847 C   0  0  0  0  0  0  0  0  0  0  0  0
    0.4981  -50.4826  -15.5057 N   0  0  0  0  0  0  0  0  0  0  0  0
    1.5375  -49.8531  -16.2113 C   0  0  0  0  0  0  0  0  0  0  0  0
    1.3484  -48.8024  -16.8639 O   0  0  0  0  0  0  0  0  0  0  0  0
    0.7746  -51.3171  -14.9299 H   0  0  0  0  0  0  0  0  0  0  0  0
    2.9113  -50.3713  -16.2390 C   0  0  0  0  0  0  0  0  0  0  0  0
    3.5222  -50.7614  -17.3240 C   0  0  0  0  0  0  0  0  0  0  0  0
   -0.4689  -52.2423  -21.3345 C   0  0  0  0  0  0  0  0  0  0  0  0
   -1.0865  -53.2713  -20.6517 C   0  0  0  0  0  0  0  0  0  0  0  0
   -1.1030  -53.2954  -19.2808 C   0  0  0  0  0  0  0  0  0  0  0  0
   -0.5006  -52.2882  -18.5131 C   0  0  0  0  0  0  0  0  0  0  0  0
    0.1014  -51.2834  -19.2027 C   0  0  0  0  0  0  0  0  0  0  0  0
    0.1244  -51.2495  -20.6047 C   0  0  0  0  0  0  0  0  0  0  0  0
    0.9263  -49.9134  -21.4216 Cl  0  0  0  0  0  0  0  0  0  0  0  0
   -0.4382  -52.1952  -22.7207 O   0  0  0  0  0  0  0  0  0  0  0  0
    0.1088  -53.2856  -23.4100 C   0  0  0  0  0  0  0  0  0  0  0  0
    0.7086  -54.8212  -27.9822 F   0  0  0  0  0  0  0  0  0  0  0  0
    0.1367  -53.9665  -27.0933 C   0  0  0  0  0  0  0  0  0  0  0  0
   -0.7125  -53.0127  -27.5668 C   0  0  0  0  0  0  0  0  0  0  0  0
   -1.3015  -52.1393  -26.6895 C   0  0  0  0  0  0  0  0  0  0  0  0
   -1.0166  -52.2506  -25.3426 C   0  0  0  0  0  0  0  0  0  0  0  0
   -0.1574  -53.2176  -24.8729 C   0  0  0  0  0  0  0  0  0  0  0  0
    0.4223  -54.0811  -25.7587 C   0  0  0  0  0  0  0  0  0  0  0  0
 28 29  1  0  0  0
 29 30  2  0  0  0
 30 31  1  0  0  0
 31 32  2  0  0  0
 32 33  1  0  0  0
 33 27  1  0  0  0
 27 26  1  0  0  0
 26 19  1  0  0  0
 19 20  2  0  0  0
 20 21  1  0  0  0
 21 22  2  0  0  0
 22  1  1  0  0  0
  1  3  1  0  0  0
  3  4  2  0  0  0
  4  5  1  0  0  0
  5  6  2  0  0  0
  6  7  1  0  0  0
  7  8  2  0  0  0
  8  9  1  0  0  0
  9 10  2  0  0  0
 10 11  1  0  0  0
 11 13  1  0  0  0
 13 14  1  0  0  0
 14 15  2  0  0  0
 14 17  1  0  0  0
 17 18  2  0  0  0
 11 12  2  0  0  0
 22 23  1  0  0  0
 23 24  2  0  0  0
 24 25  1  0  0  0
 33 34  2  0  0  0
 34 29  1  0  0  0
 24 19  1  0  0  0
 12  3  1  0  0  0
 12  7  1  0  0  0
  1  2  1  0  0  0
 13 16  1  0  0  0
M  END
> <minimizedAffinity>
-8.18572

> <CNNscore>
0.1633518040

> <CNNaffinity>
6.3943309784

> <CNN_VS>
1.0445255041

> <CNNaffinity_variance>
0.0986579359

$$$$
[H]C([H])=C([H])C(=O)N([H])c1c([H])c([H])c([H])c2nc([H])nc(N([H])c3c([H])c([H])c(OC([H])([H])c4c([H])c([H])c([H])c(F)c4[H])c(Cl)c3[H])c12


 34 37  0  0  0  0  0  0  0  0999 V2000
    2.2380  -52.5460  -23.3439 N   0  0  0  0  0  0  0  0  0  0  0  0
    3.1701  -52.9610  -23.3442 H   0  0  0  0  0  0  0  0  0  0  0  0
    1.2709  -52.8240  -24.3317 C   0  0  0  0  0  0  0  0  0  0  0  0
    0.0276  -53.2229  -23.8791 N   0  0  0  0  0  0  0  0  0  0  0  0
   -0.8657  -53.7723  -24.6913 C   0  0  0  0  0  0  0  0  0  0  0  0
   -0.6052  -53.9661  -25.9870 N   0  0  0  0  0  0  0  0  0  0  0  0
    0.6061  -53.5821  -26.4727 C   0  0  0  0  0  0  0  0  0  0  0  0
    0.8836  -53.7721  -27.8063 C   0  0  0  0  0  0  0  0  0  0  0  0
    2.0780  -53.3936  -28.3418 C   0  0  0  0  0  0  0  0  0  0  0  0
    3.0285  -52.8083  -27.5547 C   0  0  0  0  0  0  0  0  0  0  0  0
    2.7911  -52.5938  -26.1901 C   0  0  0  0  0  0  0  0  0  0  0  0
    1.5818  -52.9904  -25.6467 C   0  0  0  0  0  0  0  0  0  0  0  0
    3.6634  -51.7444  -25.4883 N   0  0  0  0  0  0  0  0  0  0  0  0
    3.5772  -50.3429  -25.5397 C   0  0  0  0  0  0  0  0  0  0  0  0
    2.7156  -49.7612  -26.2361 O   0  0  0  0  0  0  0  0  0  0  0  0
    4.3719  -52.1360  -24.8181 H   0  0  0  0  0  0  0  0  0  0  0  0
    4.4798  -49.4599  -24.7900 C   0  0  0  0  0  0  0  0  0  0  0  0
    5.7678  -49.6452  -24.6931 C   0  0  0  0  0  0  0  0  0  0  0  0
    1.2854  -50.3541  -19.8178 C   0  0  0  0  0  0  0  0  0  0  0  0
    1.2815  -51.7346  -19.8473 C   0  0  0  0  0  0  0  0  0  0  0  0
    1.5813  -52.4142  -20.9999 C   0  0  0  0  0  0  0  0  0  0  0  0
    1.9029  -51.7491  -22.1919 C   0  0  0  0  0  0  0  0  0  0  0  0
    1.9024  -50.3907  -22.1432 C   0  0  0  0  0  0  0  0  0  0  0  0
    1.5969  -49.6858  -20.9697 C   0  0  0  0  0  0  0  0  0  0  0  0
    1.6173  -47.9268  -20.9907 Cl  0  0  0  0  0  0  0  0  0  0  0  0
    0.9854  -49.6434  -18.6647 O   0  0  0  0  0  0  0  0  0  0  0  0
    1.0704  -50.3082  -17.4342 C   0  0  0  0  0  0  0  0  0  0  0  0
   -1.9843  -47.6139  -14.7824 F   0  0  0  0  0  0  0  0  0  0  0  0
   -1.6372  -48.8124  -15.3217 C   0  0  0  0  0  0  0  0  0  0  0  0
   -2.4473  -49.8835  -15.0947 C   0  0  0  0  0  0  0  0  0  0  0  0
   -2.1180  -51.1026  -15.6283 C   0  0  0  0  0  0  0  0  0  0  0  0
   -0.9680  -51.2125  -16.3853 C   0  0  0  0  0  0  0  0  0  0  0  0
   -0.1553  -50.1248  -16.6097 C   0  0  0  0  0  0  0  0  0  0  0  0
   -0.4959  -48.9162  -16.0717 C   0  0  0  0  0  0  0  0  0  0  0  0
 28 29  1  0  0  0
 29 30  2  0  0  0
 30 31  1  0  0  0
 31 32  2  0  0  0
 32 33  1  0  0  0
 33 27  1  0  0  0
 27 26  1  0  0  0
 26 19  1  0  0  0
 19 20  2  0  0  0
 20 21  1  0  0  0
 21 22  2  0  0  0
 22  1  1  0  0  0
  1  3  1  0  0  0
  3  4  2  0  0  0
  4  5  1  0  0  0
  5  6  2  0  0  0
  6  7  1  0  0  0
  7  8  2  0  0  0
  8  9  1  0  0  0
  9 10  2  0  0  0
 10 11  1  0  0  0
 11 13  1  0  0  0
 13 14  1  0  0  0
 14 15  2  0  0  0
 14 17  1  0  0  0
 17 18  2  0  0  0
 11 12  2  0  0  0
 22 23  1  0  0  0
 23 24  2  0  0  0
 24 25  1  0  0  0
 33 34  2  0  0  0
 34 29  1  0  0  0
 24 19  1  0  0  0
 12  3  1  0  0  0
 12  7  1  0  0  0
  1  2  1  0  0  0
 13 16  1  0  0  0
M  END
> <minimizedAffinity>
-7.39238

> <CNNscore>
0.1612555683

> <CNNaffinity>
6.5479340553

> <CNN_VS>
1.0558907986

> <CNNaffinity_variance>
0.1521492898

$$$$
[H]C([H])=C([H])C(=O)N([H])c1c([H])c([H])c([H])c2nc([H])nc(N([H])c3c([H])c([H])c(OC([H])([H])c4c([H])c([H])c([H])c(F)c4[H])c(Cl)c3[H])c12


 34 37  0  0  0  0  0  0  0  0999 V2000
    2.2503  -52.7963  -24.0710 N   0  0  0  0  0  0  0  0  0  0  0  0
    2.0153  -53.5090  -23.3799 H   0  0  0  0  0  0  0  0  0  0  0  0
    2.0008  -52.9492  -25.4505 C   0  0  0  0  0  0  0  0  0  0  0  0
    3.1105  -53.0473  -26.2682 N   0  0  0  0  0  0  0  0  0  0  0  0
    3.0189  -52.9155  -27.5849 C   0  0  0  0  0  0  0  0  0  0  0  0
    1.8479  -52.6814  -28.1834 N   0  0  0  0  0  0  0  0  0  0  0  0
    0.7307  -52.5831  -27.4135 C   0  0  0  0  0  0  0  0  0  0  0  0
   -0.4814  -52.3471  -28.0191 C   0  0  0  0  0  0  0  0  0  0  0  0
   -1.6297  -52.2521  -27.2918 C   0  0  0  0  0  0  0  0  0  0  0  0
   -1.5960  -52.3958  -25.9339 C   0  0  0  0  0  0  0  0  0  0  0  0
   -0.3843  -52.6376  -25.2722 C   0  0  0  0  0  0  0  0  0  0  0  0
    0.7819  -52.7215  -26.0125 C   0  0  0  0  0  0  0  0  0  0  0  0
   -0.4301  -53.0578  -23.9320 N   0  0  0  0  0  0  0  0  0  0  0  0
   -0.8410  -54.3444  -23.5443 C   0  0  0  0  0  0  0  0  0  0  0  0
   -1.2101  -55.1981  -24.3813 O   0  0  0  0  0  0  0  0  0  0  0  0
   -0.0694  -52.4402  -23.1621 H   0  0  0  0  0  0  0  0  0  0  0  0
   -0.8698  -54.7845  -22.1436 C   0  0  0  0  0  0  0  0  0  0  0  0
   -0.3241  -54.1237  -21.1597 C   0  0  0  0  0  0  0  0  0  0  0  0
    3.8561  -49.1170  -22.6466 C   0  0  0  0  0  0  0  0  0  0  0  0
    4.6377  -50.0623  -23.2807 C   0  0  0  0  0  0  0  0  0  0  0  0
    4.0962  -51.2433  -23.7190 C   0  0  0  0  0  0  0  0  0  0  0  0
    2.7378  -51.5463  -23.5472 C   0  0  0  0  0  0  0  0  0  0  0  0
    1.9843  -50.6035  -22.9219 C   0  0  0  0  0  0  0  0  0  0  0  0
    2.5283  -49.3925  -22.4693 C   0  0  0  0  0  0  0  0  0  0  0  0
    1.4847  -48.2248  -21.6678 Cl  0  0  0  0  0  0  0  0  0  0  0  0
    4.3801  -47.9149  -22.1937 O   0  0  0  0  0  0  0  0  0  0  0  0
    4.9511  -47.0444  -23.1315 C   0  0  0  0  0  0  0  0  0  0  0  0
    2.8352  -46.6866  -27.4924 F   0  0  0  0  0  0  0  0  0  0  0  0
    2.9135  -46.3120  -26.1881 C   0  0  0  0  0  0  0  0  0  0  0  0
    2.0279  -45.3861  -25.7262 C   0  0  0  0  0  0  0  0  0  0  0  0
    2.0872  -44.9924  -24.4143 C   0  0  0  0  0  0  0  0  0  0  0  0
    3.0481  -45.5480  -23.5924 C   0  0  0  0  0  0  0  0  0  0  0  0
    3.9390  -46.4831  -24.0676 C   0  0  0  0  0  0  0  0  0  0  0  0
    3.8681  -46.8659  -25.3771 C   0  0  0  0  0  0  0  0  0  0  0  0
 28 29  1  0  0  0
 29 30  2  0  0  0
 30 31  1  0  0  0
 31 32  2  0  0  0
 32 33  1  0  0  0
 33 27  1  0  0  0
 27 26  1  0  0  0
 26 19  1  0  0  0
 19 20  2  0  0  0
 20 21  1  0  0  0
 21 22  2  0  0  0
 22  1  1  0  0  0
  1  3  1  0  0  0
  3  4  2  0  0  0
  4  5  1  0  0  0
  5  6  2  0  0  0
  6  7  1  0  0  0
  7  8  2  0  0  0
  8  9  1  0  0  0
  9 10  2  0  0  0
 10 11  1  0  0  0
 11 13  1  0  0  0
 13 14  1  0  0  0
 14 15  2  0  0  0
 14 17  1  0  0  0
 17 18  2  0  0  0
 11 12  2  0  0  0
 22 23  1  0  0  0
 23 24  2  0  0  0
 24 25  1  0  0  0
 33 34  2  0  0  0
 34 29  1  0  0  0
 24 19  1  0  0  0
 12  3  1  0  0  0
 12  7  1  0  0  0
  1  2  1  0  0  0
 13 16  1  0  0  0
M  END
> <minimizedAffinity>
-8.51577

> <CNNscore>
0.1553184092

> <CNNaffinity>
6.7364091873

> <CNN_VS>
1.0462883711

> <CNNaffinity_variance>
0.2418775558

$$$$
[H]C([H])=C([H])C(=O)N([H])c1c([H])c([H])c([H])c2nc([H])nc(N([H])c3c([H])c([H])c(OC([H])([H])c4c([H])c([H])c([H])c(F)c4[H])c(Cl)c3[H])c12


 34 37  0  0  0  0  0  0  0  0999 V2000
    1.1964  -50.4940  -22.6810 N   0  0  0  0  0  0  0  0  0  0  0  0
    1.1077  -49.4777  -22.6955 H   0  0  0  0  0  0  0  0  0  0  0  0
    1.9066  -51.2191  -23.6599 C   0  0  0  0  0  0  0  0  0  0  0  0
    1.1729  -52.1162  -24.4125 N   0  0  0  0  0  0  0  0  0  0  0  0
    1.7598  -53.0427  -25.1587 C   0  0  0  0  0  0  0  0  0  0  0  0
    3.0897  -53.1522  -25.2179 N   0  0  0  0  0  0  0  0  0  0  0  0
    3.8479  -52.2841  -24.4953 C   0  0  0  0  0  0  0  0  0  0  0  0
    5.2184  -52.3842  -24.5523 C   0  0  0  0  0  0  0  0  0  0  0  0
    6.0202  -51.5307  -23.8557 C   0  0  0  0  0  0  0  0  0  0  0  0
    5.4696  -50.5474  -23.0839 C   0  0  0  0  0  0  0  0  0  0  0  0
    4.0779  -50.4062  -22.9948 C   0  0  0  0  0  0  0  0  0  0  0  0
    3.2662  -51.2822  -23.6938 C   0  0  0  0  0  0  0  0  0  0  0  0
    3.5635  -49.2263  -22.4308 N   0  0  0  0  0  0  0  0  0  0  0  0
    3.4524  -48.0199  -23.1424 C   0  0  0  0  0  0  0  0  0  0  0  0
    3.8251  -47.9207  -24.3328 O   0  0  0  0  0  0  0  0  0  0  0  0
    3.1553  -49.2267  -21.4623 H   0  0  0  0  0  0  0  0  0  0  0  0
    2.8973  -46.7944  -22.5538 C   0  0  0  0  0  0  0  0  0  0  0  0
    3.5037  -45.6390  -22.5668 C   0  0  0  0  0  0  0  0  0  0  0  0
   -0.3348  -52.2857  -19.1328 C   0  0  0  0  0  0  0  0  0  0  0  0
    0.5325  -51.2118  -19.0972 C   0  0  0  0  0  0  0  0  0  0  0  0
    1.0187  -50.6620  -20.2555 C   0  0  0  0  0  0  0  0  0  0  0  0
    0.6638  -51.1570  -21.5186 C   0  0  0  0  0  0  0  0  0  0  0  0
   -0.1913  -52.2136  -21.5335 C   0  0  0  0  0  0  0  0  0  0  0  0
   -0.6941  -52.7837  -20.3547 C   0  0  0  0  0  0  0  0  0  0  0  0
   -1.7961  -54.1510  -20.4604 Cl  0  0  0  0  0  0  0  0  0  0  0  0
   -0.8403  -52.8598  -17.9754 O   0  0  0  0  0  0  0  0  0  0  0  0
   -0.7300  -52.1436  -16.7761 C   0  0  0  0  0  0  0  0  0  0  0  0
   -3.6012  -49.0715  -14.3389 F   0  0  0  0  0  0  0  0  0  0  0  0
   -3.4460  -50.2012  -15.0788 C   0  0  0  0  0  0  0  0  0  0  0  0
   -4.5497  -50.9484  -15.3589 C   0  0  0  0  0  0  0  0  0  0  0  0
   -4.4182  -52.0919  -16.1035 C   0  0  0  0  0  0  0  0  0  0  0  0
   -3.1639  -52.4573  -16.5517 C   0  0  0  0  0  0  0  0  0  0  0  0
   -2.0540  -51.6962  -16.2640 C   0  0  0  0  0  0  0  0  0  0  0  0
   -2.2001  -50.5592  -15.5210 C   0  0  0  0  0  0  0  0  0  0  0  0
 28 29  1  0  0  0
 29 30  2  0  0  0
 30 31  1  0  0  0
 31 32  2  0  0  0
 32 33  1  0  0  0
 33 27  1  0  0  0
 27 26  1  0  0  0
 26 19  1  0  0  0
 19 20  2  0  0  0
 20 21  1  0  0  0
 21 22  2  0  0  0
 22  1  1  0  0  0
  1  3  1  0  0  0
  3  4  2  0  0  0
  4  5  1  0  0  0
  5  6  2  0  0  0
  6  7  1  0  0  0
  7  8  2  0  0  0
  8  9  1  0  0  0
  9 10  2  0  0  0
 10 11  1  0  0  0
 11 13  1  0  0  0
 13 14  1  0  0  0
 14 15  2  0  0  0
 14 17  1  0  0  0
 17 18  2  0  0  0
 11 12  2  0  0  0
 22 23  1  0  0  0
 23 24  2  0  0  0
 24 25  1  0  0  0
 33 34  2  0  0  0
 34 29  1  0  0  0
 24 19  1  0  0  0
 12  3  1  0  0  0
 12  7  1  0  0  0
  1  2  1  0  0  0
 13 16  1  0  0  0
M  END
> <minimizedAffinity>
-7.70078

> <CNNscore>
0.1373158544

> <CNNaffinity>
6.3544783592

> <CNN_VS>
0.8725706339

> <CNNaffinity_variance>
0.0727080107

$$$$
[H]c1nc(N([H])c2c([H])c([H])c(Oc3c([H])c([H])c([H])c4snc([H])c34)c(Cl)c2[H])c2c([H])c(-c3sc(S(=O)(=O)N4C([H])([H])C([H])([H])C([H])([H])C4([H])[H])c([H])c3[H])c([H])c([H])c2n1


 42 48  0  0  0  0  0  0  0  0999 V2000
    1.5771  -51.0486  -24.8213 C   0  0  0  0  0  0  0  0  0  0  0  0
    0.7813  -51.5179  -25.8299 C   0  0  0  0  0  0  0  0  0  0  0  0
   -0.1189  -52.5502  -25.6328 C   0  0  0  0  0  0  0  0  0  0  0  0
   -0.2293  -53.1343  -24.3874 C   0  0  0  0  0  0  0  0  0  0  0  0
   -1.0988  -54.1369  -24.1766 N   0  0  0  0  0  0  0  0  0  0  0  0
   -1.1973  -54.6998  -22.9485 C   0  0  0  0  0  0  0  0  0  0  0  0
   -0.4402  -54.2719  -21.9402 N   0  0  0  0  0  0  0  0  0  0  0  0
    0.4545  -53.2709  -22.0755 C   0  0  0  0  0  0  0  0  0  0  0  0
    0.5643  -52.6844  -23.3336 C   0  0  0  0  0  0  0  0  0  0  0  0
    1.4566  -51.6445  -23.5728 C   0  0  0  0  0  0  0  0  0  0  0  0
    4.1630  -48.1045  -25.8912 C   0  0  0  0  0  0  0  0  0  0  0  0
    4.0040  -48.2347  -24.5426 C   0  0  0  0  0  0  0  0  0  0  0  0
    3.1698  -49.1803  -24.0989 C   0  0  0  0  0  0  0  0  0  0  0  0
    2.5341  -49.9506  -25.0348 C   0  0  0  0  0  0  0  0  0  0  0  0
    3.1318  -49.3185  -26.5092 S   0  0  0  0  0  0  0  0  0  0  0  0
    6.3979  -46.7563  -26.0243 O   0  0  0  0  0  0  0  0  0  0  0  0
    5.1311  -46.9952  -26.8366 S   0  0  0  0  0  0  0  0  0  0  0  0
    5.5491  -47.6960  -28.1217 O   0  0  0  0  0  0  0  0  0  0  0  0
    4.3430  -45.5548  -27.2339 N   0  0  0  0  0  0  0  0  0  0  0  0
    4.0342  -45.4908  -28.6344 C   0  0  0  0  0  0  0  0  0  0  0  0
    2.6819  -46.2032  -28.7478 C   0  0  0  0  0  0  0  0  0  0  0  0
    1.9957  -45.8172  -27.4656 C   0  0  0  0  0  0  0  0  0  0  0  0
    3.0899  -45.3208  -26.5785 C   0  0  0  0  0  0  0  0  0  0  0  0
    1.2755  -52.8386  -21.0334 N   0  0  0  0  0  0  0  0  0  0  0  0
    2.3052  -52.8214  -21.1337 H   0  0  0  0  0  0  0  0  0  0  0  0
    0.7820  -52.4000  -19.7821 C   0  0  0  0  0  0  0  0  0  0  0  0
   -0.3602  -52.8057  -19.1553 C   0  0  0  0  0  0  0  0  0  0  0  0
   -0.7802  -52.3643  -17.9142 C   0  0  0  0  0  0  0  0  0  0  0  0
   -0.0285  -51.4546  -17.2300 C   0  0  0  0  0  0  0  0  0  0  0  0
    1.1381  -51.0094  -17.8198 C   0  0  0  0  0  0  0  0  0  0  0  0
    2.1304  -49.8367  -16.9670 Cl  0  0  0  0  0  0  0  0  0  0  0  0
    1.5416  -51.4548  -19.0473 C   0  0  0  0  0  0  0  0  0  0  0  0
   -0.3652  -50.9659  -16.0072 O   0  0  0  0  0  0  0  0  0  0  0  0
   -1.2390  -49.9921  -15.6546 C   0  0  0  0  0  0  0  0  0  0  0  0
   -0.7607  -48.6877  -15.6593 C   0  0  0  0  0  0  0  0  0  0  0  0
   -1.4844  -47.5871  -15.3381 C   0  0  0  0  0  0  0  0  0  0  0  0
   -2.7987  -47.7984  -14.9808 C   0  0  0  0  0  0  0  0  0  0  0  0
   -3.3288  -49.1040  -14.9625 C   0  0  0  0  0  0  0  0  0  0  0  0
   -4.8583  -49.7760  -14.6074 S   0  0  0  0  0  0  0  0  0  0  0  0
   -4.5133  -51.3919  -14.8809 N   0  0  0  0  0  0  0  0  0  0  0  0
   -3.2353  -51.3995  -15.2393 C   0  0  0  0  0  0  0  0  0  0  0  0
   -2.5862  -50.2045  -15.2893 C   0  0  0  0  0  0  0  0  0  0  0  0
 16 17  2  0  0  0
 17 18  2  0  0  0
 17 19  1  0  0  0
 19 20  1  0  0  0
 20 21  1  0  0  0
 21 22  1  0  0  0
 22 23  1  0  0  0
 17 11  1  0  0  0
 11 12  2  0  0  0
 12 13  1  0  0  0
 13 14  2  0  0  0
 14 15  1  0  0  0
 14  1  1  0  0  0
  1  2  2  0  0  0
  2  3  1  0  0  0
  3  4  2  0  0  0
  4  5  1  0  0  0
  5  6  2  0  0  0
  6  7  1  0  0  0
  7  8  2  0  0  0
  8 24  1  0  0  0
 24 26  1  0  0  0
 26 27  2  0  0  0
 27 28  1  0  0  0
 28 29  2  0  0  0
 29 33  1  0  0  0
 33 34  1  0  0  0
 34 35  2  0  0  0
 35 36  1  0  0  0
 36 37  2  0  0  0
 37 38  1  0  0  0
 38 39  1  0  0  0
 39 40  1  0  0  0
 40 41  2  0  0  0
 41 42  1  0  0  0
 29 30  1  0  0  0
 30 31  1  0  0  0
 30 32  2  0  0  0
  8  9  1  0  0  0
  9 10  2  0  0  0
 23 19  1  0  0  0
 15 11  1  0  0  0
 10  1  1  0  0  0
  9  4  1  0  0  0
 32 26  1  0  0  0
 42 34  1  0  0  0
 42 38  2  0  0  0
 24 25  1  0  0  0
M  END
> <minimizedAffinity>
-8.93957

> <CNNscore>
0.1969957799

> <CNNaffinity>
7.4801354408

> <CNN_VS>
1.4735550880

> <CNNaffinity_variance>
0.2198479176

$$$$
[H]c1nc(N([H])c2c([H])c([H])c(Oc3c([H])c([H])c([H])c4snc([H])c34)c(Cl)c2[H])c2c([H])c(-c3sc(S(=O)(=O)N4C([H])([H])C([H])([H])C([H])([H])C4([H])[H])c([H])c3[H])c([H])c([H])c2n1


 42 48  0  0  0  0  0  0  0  0999 V2000
    1.4481  -51.2511  -24.8146 C   0  0  0  0  0  0  0  0  0  0  0  0
    0.6871  -51.7321  -25.8444 C   0  0  0  0  0  0  0  0  0  0  0  0
   -0.2078  -52.7731  -25.6699 C   0  0  0  0  0  0  0  0  0  0  0  0
   -0.3484  -53.3542  -24.4262 C   0  0  0  0  0  0  0  0  0  0  0  0
   -1.2133  -54.3651  -24.2373 N   0  0  0  0  0  0  0  0  0  0  0  0
   -1.3418  -54.9250  -23.0105 C   0  0  0  0  0  0  0  0  0  0  0  0
   -0.6190  -54.4858  -21.9820 N   0  0  0  0  0  0  0  0  0  0  0  0
    0.2688  -53.4759  -22.0948 C   0  0  0  0  0  0  0  0  0  0  0  0
    0.4093  -52.8925  -23.3513 C   0  0  0  0  0  0  0  0  0  0  0  0
    1.2974  -51.8441  -23.5681 C   0  0  0  0  0  0  0  0  0  0  0  0
    4.0123  -48.1012  -24.8593 C   0  0  0  0  0  0  0  0  0  0  0  0
    3.8638  -48.7078  -26.0721 C   0  0  0  0  0  0  0  0  0  0  0  0
    3.0376  -49.7556  -26.1511 C   0  0  0  0  0  0  0  0  0  0  0  0
    2.3995  -50.1438  -25.0041 C   0  0  0  0  0  0  0  0  0  0  0  0
    2.9837  -49.0208  -23.8517 S   0  0  0  0  0  0  0  0  0  0  0  0
    5.2735  -45.9461  -25.6309 O   0  0  0  0  0  0  0  0  0  0  0  0
    4.9969  -46.7429  -24.3619 S   0  0  0  0  0  0  0  0  0  0  0  0
    4.1646  -45.8542  -23.4481 O   0  0  0  0  0  0  0  0  0  0  0  0
    6.4161  -47.1759  -23.5546 N   0  0  0  0  0  0  0  0  0  0  0  0
    6.7892  -48.5337  -23.8338 C   0  0  0  0  0  0  0  0  0  0  0  0
    7.6126  -48.4334  -25.1226 C   0  0  0  0  0  0  0  0  0  0  0  0
    8.3313  -47.1222  -24.9553 C   0  0  0  0  0  0  0  0  0  0  0  0
    7.5834  -46.4089  -23.8770 C   0  0  0  0  0  0  0  0  0  0  0  0
    1.0544  -53.0315  -21.0307 N   0  0  0  0  0  0  0  0  0  0  0  0
    2.0846  -52.9774  -21.1108 H   0  0  0  0  0  0  0  0  0  0  0  0
    0.5224  -52.6294  -19.7830 C   0  0  0  0  0  0  0  0  0  0  0  0
   -0.5993  -53.1067  -19.1697 C   0  0  0  0  0  0  0  0  0  0  0  0
   -1.0580  -52.6972  -17.9313 C   0  0  0  0  0  0  0  0  0  0  0  0
   -0.3701  -51.7465  -17.2359 C   0  0  0  0  0  0  0  0  0  0  0  0
    0.7731  -51.2284  -17.8117 C   0  0  0  0  0  0  0  0  0  0  0  0
    1.6834  -50.0013  -16.9442 Cl  0  0  0  0  0  0  0  0  0  0  0  0
    1.2155  -51.6430  -19.0367 C   0  0  0  0  0  0  0  0  0  0  0  0
   -0.7484  -51.2846  -16.0149 O   0  0  0  0  0  0  0  0  0  0  0  0
   -1.7892  -50.4967  -15.6515 C   0  0  0  0  0  0  0  0  0  0  0  0
   -3.0378  -51.1011  -15.5763 C   0  0  0  0  0  0  0  0  0  0  0  0
   -4.1906  -50.4768  -15.2307 C   0  0  0  0  0  0  0  0  0  0  0  0
   -4.0971  -49.1343  -14.9330 C   0  0  0  0  0  0  0  0  0  0  0  0
   -2.8515  -48.4780  -14.9944 C   0  0  0  0  0  0  0  0  0  0  0  0
   -2.3164  -46.8835  -14.6974 S   0  0  0  0  0  0  0  0  0  0  0  0
   -0.6845  -47.0824  -15.0178 N   0  0  0  0  0  0  0  0  0  0  0  0
   -0.5676  -48.3626  -15.3481 C   0  0  0  0  0  0  0  0  0  0  0  0
   -1.6971  -49.1216  -15.3446 C   0  0  0  0  0  0  0  0  0  0  0  0
 16 17  2  0  0  0
 17 18  2  0  0  0
 17 19  1  0  0  0
 19 20  1  0  0  0
 20 21  1  0  0  0
 21 22  1  0  0  0
 22 23  1  0  0  0
 17 11  1  0  0  0
 11 12  2  0  0  0
 12 13  1  0  0  0
 13 14  2  0  0  0
 14 15  1  0  0  0
 14  1  1  0  0  0
  1  2  2  0  0  0
  2  3  1  0  0  0
  3  4  2  0  0  0
  4  5  1  0  0  0
  5  6  2  0  0  0
  6  7  1  0  0  0
  7  8  2  0  0  0
  8 24  1  0  0  0
 24 26  1  0  0  0
 26 27  2  0  0  0
 27 28  1  0  0  0
 28 29  2  0  0  0
 29 33  1  0  0  0
 33 34  1  0  0  0
 34 35  2  0  0  0
 35 36  1  0  0  0
 36 37  2  0  0  0
 37 38  1  0  0  0
 38 39  1  0  0  0
 39 40  1  0  0  0
 40 41  2  0  0  0
 41 42  1  0  0  0
 29 30  1  0  0  0
 30 31  1  0  0  0
 30 32  2  0  0  0
  8  9  1  0  0  0
  9 10  2  0  0  0
 23 19  1  0  0  0
 15 11  1  0  0  0
 10  1  1  0  0  0
  9  4  1  0  0  0
 32 26  1  0  0  0
 42 34  1  0  0  0
 42 38  2  0  0  0
 24 25  1  0  0  0
M  END
> <minimizedAffinity>
-8.57437

> <CNNscore>
0.1738340110

> <CNNaffinity>
7.5396203995

> <CNN_VS>
1.3106424809

> <CNNaffinity_variance>
0.2070264518

$$$$
[H]c1nc(N([H])c2c([H])c([H])c(Oc3c([H])c([H])c([H])c4snc([H])c34)c(Cl)c2[H])c2c([H])c(-c3sc(S(=O)(=O)N4C([H])([H])C([H])([H])C([H])([H])C4([H])[H])c([H])c3[H])c([H])c([H])c2n1


 42 48  0  0  0  0  0  0  0  0999 V2000
    1.4575  -51.5834  -25.0089 C   0  0  0  0  0  0  0  0  0  0  0  0
    0.7031  -52.1241  -26.0136 C   0  0  0  0  0  0  0  0  0  0  0  0
   -0.2044  -53.1426  -25.7813 C   0  0  0  0  0  0  0  0  0  0  0  0
   -0.3649  -53.6389  -24.5036 C   0  0  0  0  0  0  0  0  0  0  0  0
   -1.2422  -54.6267  -24.2586 N   0  0  0  0  0  0  0  0  0  0  0  0
   -1.3902  -55.1029  -22.9991 C   0  0  0  0  0  0  0  0  0  0  0  0
   -0.6744  -54.6036  -21.9934 N   0  0  0  0  0  0  0  0  0  0  0  0
    0.2250  -53.6120  -22.1622 C   0  0  0  0  0  0  0  0  0  0  0  0
    0.3855  -53.1143  -23.4527 C   0  0  0  0  0  0  0  0  0  0  0  0
    1.2868  -52.0911  -23.7278 C   0  0  0  0  0  0  0  0  0  0  0  0
    4.1392  -48.5394  -25.2136 C   0  0  0  0  0  0  0  0  0  0  0  0
    3.7727  -49.0335  -26.4313 C   0  0  0  0  0  0  0  0  0  0  0  0
    2.8925  -50.0389  -26.4597 C   0  0  0  0  0  0  0  0  0  0  0  0
    2.4224  -50.5003  -25.2599 C   0  0  0  0  0  0  0  0  0  0  0  0
    3.2353  -49.5032  -24.1305 S   0  0  0  0  0  0  0  0  0  0  0  0
    5.0438  -46.1580  -25.7976 O   0  0  0  0  0  0  0  0  0  0  0  0
    5.2567  -47.2667  -24.7742 S   0  0  0  0  0  0  0  0  0  0  0  0
    4.8433  -46.7100  -23.4189 O   0  0  0  0  0  0  0  0  0  0  0  0
    6.8699  -47.7608  -24.6904 N   0  0  0  0  0  0  0  0  0  0  0  0
    7.3044  -47.9169  -23.3311 C   0  0  0  0  0  0  0  0  0  0  0  0
    6.8989  -49.3516  -22.9757 C   0  0  0  0  0  0  0  0  0  0  0  0
    7.1057  -50.0852  -24.2729 C   0  0  0  0  0  0  0  0  0  0  0  0
    7.1777  -49.0151  -25.3123 C   0  0  0  0  0  0  0  0  0  0  0  0
    1.0033  -53.1058  -21.1206 N   0  0  0  0  0  0  0  0  0  0  0  0
    2.0368  -53.1137  -21.1706 H   0  0  0  0  0  0  0  0  0  0  0  0
    0.4590  -52.5544  -19.9368 C   0  0  0  0  0  0  0  0  0  0  0  0
   -0.4639  -53.1232  -19.1079 C   0  0  0  0  0  0  0  0  0  0  0  0
   -0.9399  -52.5497  -17.9434 C   0  0  0  0  0  0  0  0  0  0  0  0
   -0.4816  -51.3247  -17.5563 C   0  0  0  0  0  0  0  0  0  0  0  0
    0.4537  -50.7036  -18.3603 C   0  0  0  0  0  0  0  0  0  0  0  0
    1.0651  -49.1242  -17.8924 Cl  0  0  0  0  0  0  0  0  0  0  0  0
    0.9161  -51.2823  -19.5088 C   0  0  0  0  0  0  0  0  0  0  0  0
   -0.8947  -50.6870  -16.4293 O   0  0  0  0  0  0  0  0  0  0  0  0
   -1.3237  -51.1793  -15.2421 C   0  0  0  0  0  0  0  0  0  0  0  0
   -0.3478  -51.6034  -14.3488 C   0  0  0  0  0  0  0  0  0  0  0  0
   -0.5843  -52.1213  -13.1183 C   0  0  0  0  0  0  0  0  0  0  0  0
   -1.9053  -52.2279  -12.7398 C   0  0  0  0  0  0  0  0  0  0  0  0
   -2.9302  -51.8096  -13.6119 C   0  0  0  0  0  0  0  0  0  0  0  0
   -4.6351  -51.7566  -13.5261 S   0  0  0  0  0  0  0  0  0  0  0  0
   -4.9603  -51.0897  -15.0276 N   0  0  0  0  0  0  0  0  0  0  0  0
   -3.7645  -50.9159  -15.5767 C   0  0  0  0  0  0  0  0  0  0  0  0
   -2.6758  -51.2889  -14.8503 C   0  0  0  0  0  0  0  0  0  0  0  0
 16 17  2  0  0  0
 17 18  2  0  0  0
 17 19  1  0  0  0
 19 20  1  0  0  0
 20 21  1  0  0  0
 21 22  1  0  0  0
 22 23  1  0  0  0
 17 11  1  0  0  0
 11 12  2  0  0  0
 12 13  1  0  0  0
 13 14  2  0  0  0
 14 15  1  0  0  0
 14  1  1  0  0  0
  1  2  2  0  0  0
  2  3  1  0  0  0
  3  4  2  0  0  0
  4  5  1  0  0  0
  5  6  2  0  0  0
  6  7  1  0  0  0
  7  8  2  0  0  0
  8 24  1  0  0  0
 24 26  1  0  0  0
 26 27  2  0  0  0
 27 28  1  0  0  0
 28 29  2  0  0  0
 29 33  1  0  0  0
 33 34  1  0  0  0
 34 35  2  0  0  0
 35 36  1  0  0  0
 36 37  2  0  0  0
 37 38  1  0  0  0
 38 39  1  0  0  0
 39 40  1  0  0  0
 40 41  2  0  0  0
 41 42  1  0  0  0
 29 30  1  0  0  0
 30 31  1  0  0  0
 30 32  2  0  0  0
  8  9  1  0  0  0
  9 10  2  0  0  0
 23 19  1  0  0  0
 15 11  1  0  0  0
 10  1  1  0  0  0
  9  4  1  0  0  0
 32 26  1  0  0  0
 42 34  1  0  0  0
 42 38  2  0  0  0
 24 25  1  0  0  0
M  END
> <minimizedAffinity>
-8.46471

> <CNNscore>
0.1699571311

> <CNNaffinity>
7.7022676468

> <CNN_VS>
1.3090553284

> <CNNaffinity_variance>
0.1787053347

$$$$
[H]c1nc(N([H])c2c([H])c([H])c(Oc3c([H])c([H])c([H])c4snc([H])c34)c(Cl)c2[H])c2c([H])c(-c3sc(S(=O)(=O)N4C([H])([H])C([H])([H])C([H])([H])C4([H])[H])c([H])c3[H])c([H])c([H])c2n1


 42 48  0  0  0  0  0  0  0  0999 V2000
    1.4533  -51.1903  -24.7749 C   0  0  0  0  0  0  0  0  0  0  0  0
    0.7094  -51.6747  -25.8155 C   0  0  0  0  0  0  0  0  0  0  0  0
   -0.1683  -52.7329  -25.6585 C   0  0  0  0  0  0  0  0  0  0  0  0
   -0.3089  -53.3283  -24.4215 C   0  0  0  0  0  0  0  0  0  0  0  0
   -1.1572  -54.3560  -24.2494 N   0  0  0  0  0  0  0  0  0  0  0  0
   -1.2859  -54.9298  -23.0291 C   0  0  0  0  0  0  0  0  0  0  0  0
   -0.5796  -54.4879  -21.9905 N   0  0  0  0  0  0  0  0  0  0  0  0
    0.2911  -53.4615  -22.0863 C   0  0  0  0  0  0  0  0  0  0  0  0
    0.4316  -52.8637  -23.3359 C   0  0  0  0  0  0  0  0  0  0  0  0
    1.3028  -51.7977  -23.5353 C   0  0  0  0  0  0  0  0  0  0  0  0
    4.0435  -48.0614  -24.7563 C   0  0  0  0  0  0  0  0  0  0  0  0
    3.6981  -48.4831  -26.0068 C   0  0  0  0  0  0  0  0  0  0  0  0
    2.8485  -49.5100  -26.1088 C   0  0  0  0  0  0  0  0  0  0  0  0
    2.3865  -50.0647  -24.9459 C   0  0  0  0  0  0  0  0  0  0  0  0
    3.1635  -49.1222  -23.7466 S   0  0  0  0  0  0  0  0  0  0  0  0
    5.8389  -47.3400  -22.9995 O   0  0  0  0  0  0  0  0  0  0  0  0
    5.1201  -46.7886  -24.2247 S   0  0  0  0  0  0  0  0  0  0  0  0
    6.1742  -46.5691  -25.3008 O   0  0  0  0  0  0  0  0  0  0  0  0
    4.3505  -45.3184  -23.9089 N   0  0  0  0  0  0  0  0  0  0  0  0
    4.5869  -44.3633  -24.9542 C   0  0  0  0  0  0  0  0  0  0  0  0
    3.4888  -44.6599  -25.9815 C   0  0  0  0  0  0  0  0  0  0  0  0
    2.3238  -45.0562  -25.1157 C   0  0  0  0  0  0  0  0  0  0  0  0
    2.9234  -45.3684  -23.7839 C   0  0  0  0  0  0  0  0  0  0  0  0
    1.0600  -53.0136  -21.0115 N   0  0  0  0  0  0  0  0  0  0  0  0
    2.0903  -52.9469  -21.0801 H   0  0  0  0  0  0  0  0  0  0  0  0
    0.5099  -52.6243  -19.7675 C   0  0  0  0  0  0  0  0  0  0  0  0
   -0.6207  -53.1077  -19.1756 C   0  0  0  0  0  0  0  0  0  0  0  0
   -1.0974  -52.7110  -17.9399 C   0  0  0  0  0  0  0  0  0  0  0  0
   -0.4196  -51.7678  -17.2246 C   0  0  0  0  0  0  0  0  0  0  0  0
    0.7320  -51.2442  -17.7782 C   0  0  0  0  0  0  0  0  0  0  0  0
    1.6298  -50.0265  -16.8847 Cl  0  0  0  0  0  0  0  0  0  0  0  0
    1.1922  -51.6460  -19.0008 C   0  0  0  0  0  0  0  0  0  0  0  0
   -0.8156  -51.3186  -16.0044 O   0  0  0  0  0  0  0  0  0  0  0  0
   -1.8541  -50.5239  -15.6495 C   0  0  0  0  0  0  0  0  0  0  0  0
   -3.1058  -51.1222  -15.5761 C   0  0  0  0  0  0  0  0  0  0  0  0
   -4.2571  -50.4906  -15.2384 C   0  0  0  0  0  0  0  0  0  0  0  0
   -4.1586  -49.1470  -14.9476 C   0  0  0  0  0  0  0  0  0  0  0  0
   -2.9097  -48.4968  -15.0076 C   0  0  0  0  0  0  0  0  0  0  0  0
   -2.3683  -46.9032  -14.7170 S   0  0  0  0  0  0  0  0  0  0  0  0
   -0.7362  -47.1114  -15.0299 N   0  0  0  0  0  0  0  0  0  0  0  0
   -0.6238  -48.3939  -15.3528 C   0  0  0  0  0  0  0  0  0  0  0  0
   -1.7569  -49.1476  -15.3497 C   0  0  0  0  0  0  0  0  0  0  0  0
 16 17  2  0  0  0
 17 18  2  0  0  0
 17 19  1  0  0  0
 19 20  1  0  0  0
 20 21  1  0  0  0
 21 22  1  0  0  0
 22 23  1  0  0  0
 17 11  1  0  0  0
 11 12  2  0  0  0
 12 13  1  0  0  0
 13 14  2  0  0  0
 14 15  1  0  0  0
 14  1  1  0  0  0
  1  2  2  0  0  0
  2  3  1  0  0  0
  3  4  2  0  0  0
  4  5  1  0  0  0
  5  6  2  0  0  0
  6  7  1  0  0  0
  7  8  2  0  0  0
  8 24  1  0  0  0
 24 26  1  0  0  0
 26 27  2  0  0  0
 27 28  1  0  0  0
 28 29  2  0  0  0
 29 33  1  0  0  0
 33 34  1  0  0  0
 34 35  2  0  0  0
 35 36  1  0  0  0
 36 37  2  0  0  0
 37 38  1  0  0  0
 38 39  1  0  0  0
 39 40  1  0  0  0
 40 41  2  0  0  0
 41 42  1  0  0  0
 29 30  1  0  0  0
 30 31  1  0  0  0
 30 32  2  0  0  0
  8  9  1  0  0  0
  9 10  2  0  0  0
 23 19  1  0  0  0
 15 11  1  0  0  0
 10  1  1  0  0  0
  9  4  1  0  0  0
 32 26  1  0  0  0
 42 34  1  0  0  0
 42 38  2  0  0  0
 24 25  1  0  0  0
M  END
> <minimizedAffinity>
-9.05492

> <CNNscore>
0.1692681909

> <CNNaffinity>
7.5875945091

> <CNN_VS>
1.2843383551

> <CNNaffinity_variance>
0.1151623279

$$$$
[H]c1nc(N([H])c2c([H])c([H])c(Oc3c([H])c([H])c([H])c4snc([H])c34)c(Cl)c2[H])c2c([H])c(-c3sc(S(=O)(=O)N4C([H])([H])C([H])([H])C([H])([H])C4([H])[H])c([H])c3[H])c([H])c([H])c2n1


 42 48  0  0  0  0  0  0  0  0999 V2000
    1.4828  -51.3744  -25.3571 C   0  0  0  0  0  0  0  0  0  0  0  0
    0.6458  -51.9291  -26.2858 C   0  0  0  0  0  0  0  0  0  0  0  0
   -0.2459  -52.9359  -25.9598 C   0  0  0  0  0  0  0  0  0  0  0  0
   -0.3048  -53.4054  -24.6634 C   0  0  0  0  0  0  0  0  0  0  0  0
   -1.1651  -54.3813  -24.3277 N   0  0  0  0  0  0  0  0  0  0  0  0
   -1.2129  -54.8313  -23.0509 C   0  0  0  0  0  0  0  0  0  0  0  0
   -0.4145  -54.3177  -22.1172 N   0  0  0  0  0  0  0  0  0  0  0  0
    0.4741  -53.3365  -22.3788 C   0  0  0  0  0  0  0  0  0  0  0  0
    0.5320  -52.8659  -23.6880 C   0  0  0  0  0  0  0  0  0  0  0  0
    1.4140  -51.8553  -24.0562 C   0  0  0  0  0  0  0  0  0  0  0  0
    4.0028  -48.2321  -25.8813 C   0  0  0  0  0  0  0  0  0  0  0  0
    3.9467  -49.0774  -26.9505 C   0  0  0  0  0  0  0  0  0  0  0  0
    3.1416  -50.1411  -26.8660 C   0  0  0  0  0  0  0  0  0  0  0  0
    2.4306  -50.3040  -25.7078 C   0  0  0  0  0  0  0  0  0  0  0  0
    2.9188  -48.9539  -24.7754 S   0  0  0  0  0  0  0  0  0  0  0  0
    5.4225  -46.8582  -24.1703 O   0  0  0  0  0  0  0  0  0  0  0  0
    4.9327  -46.7747  -25.6108 S   0  0  0  0  0  0  0  0  0  0  0  0
    6.1639  -46.8165  -26.5051 O   0  0  0  0  0  0  0  0  0  0  0  0
    4.0852  -45.3462  -25.9180 N   0  0  0  0  0  0  0  0  0  0  0  0
    4.3848  -44.8243  -27.2213 C   0  0  0  0  0  0  0  0  0  0  0  0
    3.3993  -45.5484  -28.1452 C   0  0  0  0  0  0  0  0  0  0  0  0
    2.1729  -45.6795  -27.2835 C   0  0  0  0  0  0  0  0  0  0  0  0
    2.6553  -45.4434  -25.8899 C   0  0  0  0  0  0  0  0  0  0  0  0
    1.3378  -52.8157  -21.4145 N   0  0  0  0  0  0  0  0  0  0  0  0
    2.3628  -52.8177  -21.5555 H   0  0  0  0  0  0  0  0  0  0  0  0
    0.8962  -52.2566  -20.1922 C   0  0  0  0  0  0  0  0  0  0  0  0
    1.3610  -51.1270  -19.5838 C   0  0  0  0  0  0  0  0  0  0  0  0
    0.8701  -50.6078  -18.4001 C   0  0  0  0  0  0  0  0  0  0  0  0
   -0.1538  -51.2397  -17.7576 C   0  0  0  0  0  0  0  0  0  0  0  0
   -0.6615  -52.3892  -18.3302 C   0  0  0  0  0  0  0  0  0  0  0  0
   -1.9802  -53.2296  -17.5290 Cl  0  0  0  0  0  0  0  0  0  0  0  0
   -0.1670  -52.8911  -19.5013 C   0  0  0  0  0  0  0  0  0  0  0  0
   -0.6965  -50.8014  -16.5911 O   0  0  0  0  0  0  0  0  0  0  0  0
   -0.1482  -50.6573  -15.3604 C   0  0  0  0  0  0  0  0  0  0  0  0
    0.0295  -51.8148  -14.6129 C   0  0  0  0  0  0  0  0  0  0  0  0
    0.5608  -51.8684  -13.3666 C   0  0  0  0  0  0  0  0  0  0  0  0
    0.9506  -50.6682  -12.8125 C   0  0  0  0  0  0  0  0  0  0  0  0
    0.7910  -49.4678  -13.5333 C   0  0  0  0  0  0  0  0  0  0  0  0
    1.1467  -47.8254  -13.2281 S   0  0  0  0  0  0  0  0  0  0  0  0
    0.6160  -47.1616  -14.6713 N   0  0  0  0  0  0  0  0  0  0  0  0
    0.1734  -48.2007  -15.3685 C   0  0  0  0  0  0  0  0  0  0  0  0
    0.2534  -49.4298  -14.7899 C   0  0  0  0  0  0  0  0  0  0  0  0
 16 17  2  0  0  0
 17 18  2  0  0  0
 17 19  1  0  0  0
 19 20  1  0  0  0
 20 21  1  0  0  0
 21 22  1  0  0  0
 22 23  1  0  0  0
 17 11  1  0  0  0
 11 12  2  0  0  0
 12 13  1  0  0  0
 13 14  2  0  0  0
 14 15  1  0  0  0
 14  1  1  0  0  0
  1  2  2  0  0  0
  2  3  1  0  0  0
  3  4  2  0  0  0
  4  5  1  0  0  0
  5  6  2  0  0  0
  6  7  1  0  0  0
  7  8  2  0  0  0
  8 24  1  0  0  0
 24 26  1  0  0  0
 26 27  2  0  0  0
 27 28  1  0  0  0
 28 29  2  0  0  0
 29 33  1  0  0  0
 33 34  1  0  0  0
 34 35  2  0  0  0
 35 36  1  0  0  0
 36 37  2  0  0  0
 37 38  1  0  0  0
 38 39  1  0  0  0
 39 40  1  0  0  0
 40 41  2  0  0  0
 41 42  1  0  0  0
 29 30  1  0  0  0
 30 31  1  0  0  0
 30 32  2  0  0  0
  8  9  1  0  0  0
  9 10  2  0  0  0
 23 19  1  0  0  0
 15 11  1  0  0  0
 10  1  1  0  0  0
  9  4  1  0  0  0
 32 26  1  0  0  0
 42 34  1  0  0  0
 42 38  2  0  0  0
 24 25  1  0  0  0
M  END
> <minimizedAffinity>
-8.14694

> <CNNscore>
0.1171724796

> <CNNaffinity>
7.4043564796

> <CNN_VS>
0.8675867915

> <CNNaffinity_variance>
0.1030078903

$$$$
[H]c1nc(N([H])c2c([H])c([H])c(Oc3c([H])c([H])c([H])c4snc([H])c34)c(Cl)c2[H])c2c([H])c(-c3sc(S(=O)(=O)N4C([H])([H])C([H])([H])C([H])([H])C4([H])[H])c([H])c3[H])c([H])c([H])c2n1


 42 48  0  0  0  0  0  0  0  0999 V2000
   -0.4064  -52.9235  -20.4230 C   0  0  0  0  0  0  0  0  0  0  0  0
   -1.4503  -53.7468  -20.7442 C   0  0  0  0  0  0  0  0  0  0  0  0
   -1.6224  -54.2469  -22.0230 C   0  0  0  0  0  0  0  0  0  0  0  0
   -0.7227  -53.9145  -23.0152 C   0  0  0  0  0  0  0  0  0  0  0  0
   -0.8726  -54.3915  -24.2624 N   0  0  0  0  0  0  0  0  0  0  0  0
    0.0192  -54.0578  -25.2259 C   0  0  0  0  0  0  0  0  0  0  0  0
    1.0489  -53.2587  -24.9540 N   0  0  0  0  0  0  0  0  0  0  0  0
    1.2646  -52.7416  -23.7264 C   0  0  0  0  0  0  0  0  0  0  0  0
    0.3545  -53.0779  -22.7278 C   0  0  0  0  0  0  0  0  0  0  0  0
    0.4921  -52.5965  -21.4300 C   0  0  0  0  0  0  0  0  0  0  0  0
    0.4768  -51.2163  -16.8447 C   0  0  0  0  0  0  0  0  0  0  0  0
   -0.6111  -52.0387  -16.8091 C   0  0  0  0  0  0  0  0  0  0  0  0
   -0.9754  -52.6442  -17.9436 C   0  0  0  0  0  0  0  0  0  0  0  0
   -0.2269  -52.3929  -19.0616 C   0  0  0  0  0  0  0  0  0  0  0  0
    0.9657  -51.3120  -18.4789 S   0  0  0  0  0  0  0  0  0  0  0  0
    0.5749  -48.8810  -15.6754 O   0  0  0  0  0  0  0  0  0  0  0  0
    1.2350  -50.2521  -15.5969 S   0  0  0  0  0  0  0  0  0  0  0  0
    0.8728  -50.8461  -14.2428 O   0  0  0  0  0  0  0  0  0  0  0  0
    2.9174  -50.1616  -15.7188 N   0  0  0  0  0  0  0  0  0  0  0  0
    3.3846  -48.8107  -15.5866 C   0  0  0  0  0  0  0  0  0  0  0  0
    3.5342  -48.6176  -14.0735 C   0  0  0  0  0  0  0  0  0  0  0  0
    3.9899  -49.9745  -13.6099 C   0  0  0  0  0  0  0  0  0  0  0  0
    3.6606  -50.8965  -14.7378 C   0  0  0  0  0  0  0  0  0  0  0  0
    2.3217  -51.8769  -23.4404 N   0  0  0  0  0  0  0  0  0  0  0  0
    2.8399  -51.9405  -22.5471 H   0  0  0  0  0  0  0  0  0  0  0  0
    2.7621  -50.8640  -24.3246 C   0  0  0  0  0  0  0  0  0  0  0  0
    2.9507  -50.9672  -25.6722 C   0  0  0  0  0  0  0  0  0  0  0  0
    3.3551  -49.9325  -26.4952 C   0  0  0  0  0  0  0  0  0  0  0  0
    3.5961  -48.6998  -25.9631 C   0  0  0  0  0  0  0  0  0  0  0  0
    3.4213  -48.5403  -24.6026 C   0  0  0  0  0  0  0  0  0  0  0  0
    3.7237  -46.9661  -23.8834 Cl  0  0  0  0  0  0  0  0  0  0  0  0
    3.0204  -49.5720  -23.8008 C   0  0  0  0  0  0  0  0  0  0  0  0
    3.9973  -47.6278  -26.6961 O   0  0  0  0  0  0  0  0  0  0  0  0
    3.4929  -47.0983  -27.8368 C   0  0  0  0  0  0  0  0  0  0  0  0
    2.3898  -46.2636  -27.7073 C   0  0  0  0  0  0  0  0  0  0  0  0
    1.7519  -45.6444  -28.7309 C   0  0  0  0  0  0  0  0  0  0  0  0
    2.2519  -45.8728  -29.9948 C   0  0  0  0  0  0  0  0  0  0  0  0
    3.3700  -46.7113  -30.1757 C   0  0  0  0  0  0  0  0  0  0  0  0
    4.2817  -47.2257  -31.5252 S   0  0  0  0  0  0  0  0  0  0  0  0
    5.4098  -48.1826  -30.7400 N   0  0  0  0  0  0  0  0  0  0  0  0
    5.0772  -48.0987  -29.4578 C   0  0  0  0  0  0  0  0  0  0  0  0
    4.0031  -47.3289  -29.1329 C   0  0  0  0  0  0  0  0  0  0  0  0
 16 17  2  0  0  0
 17 18  2  0  0  0
 17 19  1  0  0  0
 19 20  1  0  0  0
 20 21  1  0  0  0
 21 22  1  0  0  0
 22 23  1  0  0  0
 17 11  1  0  0  0
 11 12  2  0  0  0
 12 13  1  0  0  0
 13 14  2  0  0  0
 14 15  1  0  0  0
 14  1  1  0  0  0
  1  2  2  0  0  0
  2  3  1  0  0  0
  3  4  2  0  0  0
  4  5  1  0  0  0
  5  6  2  0  0  0
  6  7  1  0  0  0
  7  8  2  0  0  0
  8 24  1  0  0  0
 24 26  1  0  0  0
 26 27  2  0  0  0
 27 28  1  0  0  0
 28 29  2  0  0  0
 29 33  1  0  0  0
 33 34  1  0  0  0
 34 35  2  0  0  0
 35 36  1  0  0  0
 36 37  2  0  0  0
 37 38  1  0  0  0
 38 39  1  0  0  0
 39 40  1  0  0  0
 40 41  2  0  0  0
 41 42  1  0  0  0
 29 30  1  0  0  0
 30 31  1  0  0  0
 30 32  2  0  0  0
  8  9  1  0  0  0
  9 10  2  0  0  0
 23 19  1  0  0  0
 15 11  1  0  0  0
 10  1  1  0  0  0
  9  4  1  0  0  0
 32 26  1  0  0  0
 42 34  1  0  0  0
 42 38  2  0  0  0
 24 25  1  0  0  0
M  END
> <minimizedAffinity>
-9.11840

> <CNNscore>
0.0937405303

> <CNNaffinity>
7.2461051941

> <CNN_VS>
0.6792537570

> <CNNaffinity_variance>
0.1355926692

$$$$
[H]c1nc(N([H])c2c([H])c([H])c(Oc3c([H])c([H])c([H])c4snc([H])c34)c(Cl)c2[H])c2c([H])c(-c3sc(S(=O)(=O)N4C([H])([H])C([H])([H])C([H])([H])C4([H])[H])c([H])c3[H])c([H])c([H])c2n1


 42 48  0  0  0  0  0  0  0  0999 V2000
   -0.4753  -53.1862  -21.2353 C   0  0  0  0  0  0  0  0  0  0  0  0
   -1.1245  -54.3589  -21.5076 C   0  0  0  0  0  0  0  0  0  0  0  0
   -1.2453  -54.8470  -22.7968 C   0  0  0  0  0  0  0  0  0  0  0  0
   -0.7004  -54.1415  -23.8502 C   0  0  0  0  0  0  0  0  0  0  0  0
   -0.8065  -54.6005  -25.1087 N   0  0  0  0  0  0  0  0  0  0  0  0
   -0.2654  -53.8979  -26.1327 C   0  0  0  0  0  0  0  0  0  0  0  0
    0.3743  -52.7517  -25.9096 N   0  0  0  0  0  0  0  0  0  0  0  0
    0.5209  -52.2284  -24.6745 C   0  0  0  0  0  0  0  0  0  0  0  0
   -0.0311  -52.9420  -23.6139 C   0  0  0  0  0  0  0  0  0  0  0  0
    0.0688  -52.4856  -22.3036 C   0  0  0  0  0  0  0  0  0  0  0  0
    0.2581  -51.5042  -17.6114 C   0  0  0  0  0  0  0  0  0  0  0  0
   -0.8056  -52.3583  -17.6171 C   0  0  0  0  0  0  0  0  0  0  0  0
   -1.1205  -52.9584  -18.7693 C   0  0  0  0  0  0  0  0  0  0  0  0
   -0.3492  -52.6697  -19.8625 C   0  0  0  0  0  0  0  0  0  0  0  0
    0.7945  -51.5627  -19.2325 S   0  0  0  0  0  0  0  0  0  0  0  0
    0.2839  -49.1707  -16.4348 O   0  0  0  0  0  0  0  0  0  0  0  0
    0.9528  -50.5358  -16.3303 S   0  0  0  0  0  0  0  0  0  0  0  0
    0.5380  -51.1362  -14.9942 O   0  0  0  0  0  0  0  0  0  0  0  0
    2.6380  -50.4296  -16.3794 N   0  0  0  0  0  0  0  0  0  0  0  0
    3.0838  -49.0674  -16.2998 C   0  0  0  0  0  0  0  0  0  0  0  0
    3.1604  -48.7907  -14.7943 C   0  0  0  0  0  0  0  0  0  0  0  0
    3.6086  -50.1144  -14.2367 C   0  0  0  0  0  0  0  0  0  0  0  0
    3.3424  -51.1004  -15.3265 C   0  0  0  0  0  0  0  0  0  0  0  0
    1.1603  -51.0115  -24.4350 N   0  0  0  0  0  0  0  0  0  0  0  0
    0.7131  -50.1125  -24.6847 H   0  0  0  0  0  0  0  0  0  0  0  0
    2.4429  -50.9067  -23.8471 C   0  0  0  0  0  0  0  0  0  0  0  0
    2.8276  -50.0617  -22.8469 C   0  0  0  0  0  0  0  0  0  0  0  0
    4.0914  -50.0228  -22.2876 C   0  0  0  0  0  0  0  0  0  0  0  0
    5.0573  -50.8735  -22.7391 C   0  0  0  0  0  0  0  0  0  0  0  0
    4.7213  -51.7499  -23.7520 C   0  0  0  0  0  0  0  0  0  0  0  0
    5.9413  -52.8593  -24.3586 Cl  0  0  0  0  0  0  0  0  0  0  0  0
    3.4676  -51.7780  -24.2955 C   0  0  0  0  0  0  0  0  0  0  0  0
    6.3246  -50.9033  -22.2488 O   0  0  0  0  0  0  0  0  0  0  0  0
    7.2829  -49.9459  -22.2173 C   0  0  0  0  0  0  0  0  0  0  0  0
    7.6994  -49.5156  -20.9638 C   0  0  0  0  0  0  0  0  0  0  0  0
    8.6442  -48.5706  -20.7342 C   0  0  0  0  0  0  0  0  0  0  0  0
    9.2279  -48.0022  -21.8459 C   0  0  0  0  0  0  0  0  0  0  0  0
    8.8387  -48.4075  -23.1382 C   0  0  0  0  0  0  0  0  0  0  0  0
    9.3080  -47.9820  -24.7243 S   0  0  0  0  0  0  0  0  0  0  0  0
    8.3028  -49.0066  -25.5873 N   0  0  0  0  0  0  0  0  0  0  0  0
    7.6208  -49.6607  -24.6552 C   0  0  0  0  0  0  0  0  0  0  0  0
    7.8840  -49.3623  -23.3538 C   0  0  0  0  0  0  0  0  0  0  0  0
 16 17  2  0  0  0
 17 18  2  0  0  0
 17 19  1  0  0  0
 19 20  1  0  0  0
 20 21  1  0  0  0
 21 22  1  0  0  0
 22 23  1  0  0  0
 17 11  1  0  0  0
 11 12  2  0  0  0
 12 13  1  0  0  0
 13 14  2  0  0  0
 14 15  1  0  0  0
 14  1  1  0  0  0
  1  2  2  0  0  0
  2  3  1  0  0  0
  3  4  2  0  0  0
  4  5  1  0  0  0
  5  6  2  0  0  0
  6  7  1  0  0  0
  7  8  2  0  0  0
  8 24  1  0  0  0
 24 26  1  0  0  0
 26 27  2  0  0  0
 27 28  1  0  0  0
 28 29  2  0  0  0
 29 33  1  0  0  0
 33 34  1  0  0  0
 34 35  2  0  0  0
 35 36  1  0  0  0
 36 37  2  0  0  0
 37 38  1  0  0  0
 38 39  1  0  0  0
 39 40  1  0  0  0
 40 41  2  0  0  0
 41 42  1  0  0  0
 29 30  1  0  0  0
 30 31  1  0  0  0
 30 32  2  0  0  0
  8  9  1  0  0  0
  9 10  2  0  0  0
 23 19  1  0  0  0
 15 11  1  0  0  0
 10  1  1  0  0  0
  9  4  1  0  0  0
 32 26  1  0  0  0
 42 34  1  0  0  0
 42 38  2  0  0  0
 24 25  1  0  0  0
M  END
> <minimizedAffinity>
-8.98670

> <CNNscore>
0.0826396123

> <CNNaffinity>
7.1753401756

> <CNN_VS>
0.5929673314

> <CNNaffinity_variance>
0.5278418064

$$$$
[H]c1nc(N([H])c2c([H])c([H])c(Oc3c([H])c([H])c([H])c4snc([H])c34)c(Cl)c2[H])c2c([H])c(-c3sc(S(=O)(=O)N4C([H])([H])C([H])([H])C([H])([H])C4([H])[H])c([H])c3[H])c([H])c([H])c2n1


 42 48  0  0  0  0  0  0  0  0999 V2000
    2.5700  -50.6352  -26.2177 C   0  0  0  0  0  0  0  0  0  0  0  0
    3.2931  -51.2938  -27.1739 C   0  0  0  0  0  0  0  0  0  0  0  0
    2.9035  -52.5265  -27.6674 C   0  0  0  0  0  0  0  0  0  0  0  0
    1.7537  -53.1227  -27.1910 C   0  0  0  0  0  0  0  0  0  0  0  0
    1.3588  -54.3187  -27.6591 N   0  0  0  0  0  0  0  0  0  0  0  0
    0.2271  -54.8913  -27.1832 C   0  0  0  0  0  0  0  0  0  0  0  0
   -0.5047  -54.2828  -26.2520 N   0  0  0  0  0  0  0  0  0  0  0  0
   -0.1719  -53.0819  -25.7344 C   0  0  0  0  0  0  0  0  0  0  0  0
    0.9894  -52.4835  -26.2163 C   0  0  0  0  0  0  0  0  0  0  0  0
    1.4151  -51.2454  -25.7465 C   0  0  0  0  0  0  0  0  0  0  0  0
    3.6915  -47.2193  -24.3275 C   0  0  0  0  0  0  0  0  0  0  0  0
    3.6360  -47.1045  -25.6857 C   0  0  0  0  0  0  0  0  0  0  0  0
    3.2755  -48.1813  -26.3907 C   0  0  0  0  0  0  0  0  0  0  0  0
    2.9879  -49.3242  -25.6946 C   0  0  0  0  0  0  0  0  0  0  0  0
    3.2345  -48.8453  -24.0697 S   0  0  0  0  0  0  0  0  0  0  0  0
    3.5770  -44.7237  -23.5598 O   0  0  0  0  0  0  0  0  0  0  0  0
    4.1299  -46.0633  -23.0892 S   0  0  0  0  0  0  0  0  0  0  0  0
    3.3918  -46.4269  -21.8084 O   0  0  0  0  0  0  0  0  0  0  0  0
    5.7857  -45.9944  -22.7621 N   0  0  0  0  0  0  0  0  0  0  0  0
    6.1015  -46.6091  -21.5039 C   0  0  0  0  0  0  0  0  0  0  0  0
    6.2830  -48.0908  -21.8515 C   0  0  0  0  0  0  0  0  0  0  0  0
    6.9057  -48.0361  -23.2201 C   0  0  0  0  0  0  0  0  0  0  0  0
    6.6423  -46.6489  -23.7069 C   0  0  0  0  0  0  0  0  0  0  0  0
   -0.9144  -52.4525  -24.7347 N   0  0  0  0  0  0  0  0  0  0  0  0
   -1.7760  -51.9249  -24.9583 H   0  0  0  0  0  0  0  0  0  0  0  0
   -0.5599  -52.4799  -23.3653 C   0  0  0  0  0  0  0  0  0  0  0  0
   -0.6473  -53.5393  -22.5096 C   0  0  0  0  0  0  0  0  0  0  0  0
   -0.2568  -53.5184  -21.1834 C   0  0  0  0  0  0  0  0  0  0  0  0
    0.2585  -52.3744  -20.6482 C   0  0  0  0  0  0  0  0  0  0  0  0
    0.3682  -51.2709  -21.4711 C   0  0  0  0  0  0  0  0  0  0  0  0
    1.0268  -49.7803  -20.8144 Cl  0  0  0  0  0  0  0  0  0  0  0  0
   -0.0212  -51.3059  -22.7807 C   0  0  0  0  0  0  0  0  0  0  0  0
    0.6660  -52.2637  -19.3562 O   0  0  0  0  0  0  0  0  0  0  0  0
   -0.0234  -51.9348  -18.2371 C   0  0  0  0  0  0  0  0  0  0  0  0
   -1.0813  -52.7638  -17.8851 C   0  0  0  0  0  0  0  0  0  0  0  0
   -1.8814  -52.5959  -16.8035 C   0  0  0  0  0  0  0  0  0  0  0  0
   -1.6084  -51.5102  -15.9996 C   0  0  0  0  0  0  0  0  0  0  0  0
   -0.5446  -50.6417  -16.3157 C   0  0  0  0  0  0  0  0  0  0  0  0
    0.1169  -49.2397  -15.5989 S   0  0  0  0  0  0  0  0  0  0  0  0
    1.3562  -48.9404  -16.6850 N   0  0  0  0  0  0  0  0  0  0  0  0
    1.2502  -49.9132  -17.5817 C   0  0  0  0  0  0  0  0  0  0  0  0
    0.2540  -50.8244  -17.4104 C   0  0  0  0  0  0  0  0  0  0  0  0
 16 17  2  0  0  0
 17 18  2  0  0  0
 17 19  1  0  0  0
 19 20  1  0  0  0
 20 21  1  0  0  0
 21 22  1  0  0  0
 22 23  1  0  0  0
 17 11  1  0  0  0
 11 12  2  0  0  0
 12 13  1  0  0  0
 13 14  2  0  0  0
 14 15  1  0  0  0
 14  1  1  0  0  0
  1  2  2  0  0  0
  2  3  1  0  0  0
  3  4  2  0  0  0
  4  5  1  0  0  0
  5  6  2  0  0  0
  6  7  1  0  0  0
  7  8  2  0  0  0
  8 24  1  0  0  0
 24 26  1  0  0  0
 26 27  2  0  0  0
 27 28  1  0  0  0
 28 29  2  0  0  0
 29 33  1  0  0  0
 33 34  1  0  0  0
 34 35  2  0  0  0
 35 36  1  0  0  0
 36 37  2  0  0  0
 37 38  1  0  0  0
 38 39  1  0  0  0
 39 40  1  0  0  0
 40 41  2  0  0  0
 41 42  1  0  0  0
 29 30  1  0  0  0
 30 31  1  0  0  0
 30 32  2  0  0  0
  8  9  1  0  0  0
  9 10  2  0  0  0
 23 19  1  0  0  0
 15 11  1  0  0  0
 10  1  1  0  0  0
  9  4  1  0  0  0
 32 26  1  0  0  0
 42 34  1  0  0  0
 42 38  2  0  0  0
 24 25  1  0  0  0
M  END
> <minimizedAffinity>
-8.64563

> <CNNscore>
0.0814035386

> <CNNaffinity>
7.5111298561

> <CNN_VS>
0.6114325523

> <CNNaffinity_variance>
0.2865296602

$$$$
[H]c1nc(N([H])c2c([H])c([H])c(Oc3c([H])c([H])c([H])c4snc([H])c34)c(Cl)c2[H])c2c([H])c(-c3sc(S(=O)(=O)N4C([H])([H])C([H])([H])C([H])([H])C4([H])[H])c([H])c3[H])c([H])c([H])c2n1


 42 48  0  0  0  0  0  0  0  0999 V2000
    0.4806  -52.0792  -21.1975 C   0  0  0  0  0  0  0  0  0  0  0  0
   -0.1719  -53.2124  -20.7966 C   0  0  0  0  0  0  0  0  0  0  0  0
   -0.6453  -53.3673  -19.5056 C   0  0  0  0  0  0  0  0  0  0  0  0
   -0.4615  -52.3577  -18.5829 C   0  0  0  0  0  0  0  0  0  0  0  0
   -0.9154  -52.4895  -17.3251 N   0  0  0  0  0  0  0  0  0  0  0  0
   -0.7290  -51.4895  -16.4305 C   0  0  0  0  0  0  0  0  0  0  0  0
   -0.0984  -50.3704  -16.7811 N   0  0  0  0  0  0  0  0  0  0  0  0
    0.3847  -50.1661  -18.0244 C   0  0  0  0  0  0  0  0  0  0  0  0
    0.1988  -51.1872  -18.9526 C   0  0  0  0  0  0  0  0  0  0  0  0
    0.6592  -51.0705  -20.2600 C   0  0  0  0  0  0  0  0  0  0  0  0
    1.7983  -52.1186  -25.0396 C   0  0  0  0  0  0  0  0  0  0  0  0
    1.8260  -50.8838  -24.4604 C   0  0  0  0  0  0  0  0  0  0  0  0
    1.4092  -50.7764  -23.1950 C   0  0  0  0  0  0  0  0  0  0  0  0
    0.9834  -51.9182  -22.5718 C   0  0  0  0  0  0  0  0  0  0  0  0
    1.1838  -53.1060  -23.7880 S   0  0  0  0  0  0  0  0  0  0  0  0
    2.3981  -51.3760  -27.4726 O   0  0  0  0  0  0  0  0  0  0  0  0
    2.2357  -52.6478  -26.6491 S   0  0  0  0  0  0  0  0  0  0  0  0
    3.6024  -53.3147  -26.5817 O   0  0  0  0  0  0  0  0  0  0  0  0
    1.1376  -53.7264  -27.3451 N   0  0  0  0  0  0  0  0  0  0  0  0
   -0.1596  -53.6240  -26.7389 C   0  0  0  0  0  0  0  0  0  0  0  0
   -0.8457  -52.4990  -27.5216 C   0  0  0  0  0  0  0  0  0  0  0  0
   -0.3100  -52.6901  -28.9145 C   0  0  0  0  0  0  0  0  0  0  0  0
    0.8931  -53.5592  -28.7476 C   0  0  0  0  0  0  0  0  0  0  0  0
    1.0760  -49.0109  -18.3914 N   0  0  0  0  0  0  0  0  0  0  0  0
    0.6251  -48.0805  -18.3508 H   0  0  0  0  0  0  0  0  0  0  0  0
    2.4175  -49.0142  -18.8407 C   0  0  0  0  0  0  0  0  0  0  0  0
    3.4493  -49.7661  -18.3587 C   0  0  0  0  0  0  0  0  0  0  0  0
    4.7387  -49.7510  -18.8576 C   0  0  0  0  0  0  0  0  0  0  0  0
    5.0477  -48.9382  -19.9085 C   0  0  0  0  0  0  0  0  0  0  0  0
    4.0398  -48.1544  -20.4345 C   0  0  0  0  0  0  0  0  0  0  0  0
    4.4028  -47.0947  -21.7882 Cl  0  0  0  0  0  0  0  0  0  0  0  0
    2.7692  -48.1798  -19.9317 C   0  0  0  0  0  0  0  0  0  0  0  0
    6.2871  -48.8587  -20.4608 O   0  0  0  0  0  0  0  0  0  0  0  0
    6.7504  -49.2916  -21.6583 C   0  0  0  0  0  0  0  0  0  0  0  0
    7.8383  -48.6127  -22.1931 C   0  0  0  0  0  0  0  0  0  0  0  0
    8.4373  -48.9009  -23.3747 C   0  0  0  0  0  0  0  0  0  0  0  0
    7.9115  -49.9556  -24.0893 C   0  0  0  0  0  0  0  0  0  0  0  0
    6.8088  -50.6749  -23.5866 C   0  0  0  0  0  0  0  0  0  0  0  0
    5.8959  -52.0119  -24.1307 S   0  0  0  0  0  0  0  0  0  0  0  0
    4.8187  -52.1405  -22.8547 N   0  0  0  0  0  0  0  0  0  0  0  0
    5.1680  -51.1616  -22.0291 C   0  0  0  0  0  0  0  0  0  0  0  0
    6.2153  -50.3722  -22.3926 C   0  0  0  0  0  0  0  0  0  0  0  0
 16 17  2  0  0  0
 17 18  2  0  0  0
 17 19  1  0  0  0
 19 20  1  0  0  0
 20 21  1  0  0  0
 21 22  1  0  0  0
 22 23  1  0  0  0
 17 11  1  0  0  0
 11 12  2  0  0  0
 12 13  1  0  0  0
 13 14  2  0  0  0
 14 15  1  0  0  0
 14  1  1  0  0  0
  1  2  2  0  0  0
  2  3  1  0  0  0
  3  4  2  0  0  0
  4  5  1  0  0  0
  5  6  2  0  0  0
  6  7  1  0  0  0
  7  8  2  0  0  0
  8 24  1  0  0  0
 24 26  1  0  0  0
 26 27  2  0  0  0
 27 28  1  0  0  0
 28 29  2  0  0  0
 29 33  1  0  0  0
 33 34  1  0  0  0
 34 35  2  0  0  0
 35 36  1  0  0  0
 36 37  2  0  0  0
 37 38  1  0  0  0
 38 39  1  0  0  0
 39 40  1  0  0  0
 40 41  2  0  0  0
 41 42  1  0  0  0
 29 30  1  0  0  0
 30 31  1  0  0  0
 30 32  2  0  0  0
  8  9  1  0  0  0
  9 10  2  0  0  0
 23 19  1  0  0  0
 15 11  1  0  0  0
 10  1  1  0  0  0
  9  4  1  0  0  0
 32 26  1  0  0  0
 42 34  1  0  0  0
 42 38  2  0  0  0
 24 25  1  0  0  0
M  END
> <minimizedAffinity>
-9.52411

> <CNNscore>
0.0766032934

> <CNNaffinity>
7.2455039024

> <CNN_VS>
0.5550294518

> <CNNaffinity_variance>
0.8298343420

$$$$
[H]c1nc(N([H])c2c([H])c([H])c3c(c([H])nn3C([H])([H])c3c([H])c([H])c([H])c(F)c3[H])c2[H])c2c(O[C@@]([H])(C(=O)N(C([H])([H])[H])C([H])([H])C([H])([H])C(=O)N(C([H])([H])[H])C([H])([H])[H])C([H])([H])[H])c([H])c([H])c([H])c2n1


 43 47  0  0  0  0  0  0  0  0999 V2000
    0.7538  -50.5451  -17.2522 C   0  0  0  0  0  0  0  0  0  0  0  0
    0.8061  -49.4211  -16.4629 C   0  0  0  0  0  0  0  0  0  0  0  0
   -0.1892  -49.0470  -15.5997 C   0  0  0  0  0  0  0  0  0  0  0  0
   -1.3192  -49.8136  -15.4887 C   0  0  0  0  0  0  0  0  0  0  0  0
   -1.3891  -50.9608  -16.2850 C   0  0  0  0  0  0  0  0  0  0  0  0
   -2.5145  -51.7189  -16.1400 N   0  0  0  0  0  0  0  0  0  0  0  0
   -2.6371  -52.8407  -16.8580 C   0  0  0  0  0  0  0  0  0  0  0  0
   -1.6888  -53.2204  -17.7012 N   0  0  0  0  0  0  0  0  0  0  0  0
   -0.5417  -52.5063  -17.8921 C   0  0  0  0  0  0  0  0  0  0  0  0
   -0.3930  -51.3447  -17.1578 C   0  0  0  0  0  0  0  0  0  0  0  0
    0.3646  -52.9188  -18.8818 N   0  0  0  0  0  0  0  0  0  0  0  0
    1.3016  -53.2599  -18.7109 H   0  0  0  0  0  0  0  0  0  0  0  0
   -0.0023  -52.8304  -20.2796 C   0  0  0  0  0  0  0  0  0  0  0  0
   -0.0615  -51.6957  -21.0086 C   0  0  0  0  0  0  0  0  0  0  0  0
   -0.3966  -51.7176  -22.3556 C   0  0  0  0  0  0  0  0  0  0  0  0
   -0.6786  -52.9136  -22.9778 C   0  0  0  0  0  0  0  0  0  0  0  0
   -1.0293  -53.2241  -24.2567 N   0  0  0  0  0  0  0  0  0  0  0  0
   -1.1836  -54.5284  -24.3116 N   0  0  0  0  0  0  0  0  0  0  0  0
   -0.9542  -55.1011  -23.1380 C   0  0  0  0  0  0  0  0  0  0  0  0
   -0.6272  -54.0820  -22.2622 C   0  0  0  0  0  0  0  0  0  0  0  0
   -0.2942  -54.0288  -20.9400 C   0  0  0  0  0  0  0  0  0  0  0  0
   -1.2017  -52.3182  -25.3511 C   0  0  0  0  0  0  0  0  0  0  0  0
   -0.4250  -52.6668  -26.5631 C   0  0  0  0  0  0  0  0  0  0  0  0
    0.9529  -52.8769  -26.5068 C   0  0  0  0  0  0  0  0  0  0  0  0
    1.6399  -53.2041  -27.6678 C   0  0  0  0  0  0  0  0  0  0  0  0
    0.9982  -53.3286  -28.8834 C   0  0  0  0  0  0  0  0  0  0  0  0
   -0.3662  -53.1209  -28.9419 C   0  0  0  0  0  0  0  0  0  0  0  0
   -1.0136  -53.2402  -30.1372 F   0  0  0  0  0  0  0  0  0  0  0  0
   -1.0590  -52.7911  -27.7710 C   0  0  0  0  0  0  0  0  0  0  0  0
    1.7751  -50.8709  -18.0867 O   0  0  0  0  0  0  0  0  0  0  0  0
    1.6765  -49.0937  -19.6511 C   0  0  0  0  0  0  0  0  0  0  0  0
    2.5420  -50.0984  -18.9499 C   0  0  0  0  0  0  0  0  0  0  0  0
    3.4730  -50.8452  -19.7792 C   0  0  0  0  0  0  0  0  0  0  0  0
    3.2520  -52.1087  -19.8387 O   0  0  0  0  0  0  0  0  0  0  0  0
    4.5805  -50.3520  -20.5176 N   0  0  0  0  0  0  0  0  0  0  0  0
    4.9645  -48.9585  -20.5073 C   0  0  0  0  0  0  0  0  0  0  0  0
    5.3122  -51.2776  -21.3536 C   0  0  0  0  0  0  0  0  0  0  0  0
    5.3265  -51.0417  -22.7982 C   0  0  0  0  0  0  0  0  0  0  0  0
    4.0811  -50.9508  -23.5467 C   0  0  0  0  0  0  0  0  0  0  0  0
    3.0624  -51.6490  -23.3641 O   0  0  0  0  0  0  0  0  0  0  0  0
    3.9459  -49.9777  -24.6207 N   0  0  0  0  0  0  0  0  0  0  0  0
    2.7265  -49.8874  -25.3489 C   0  0  0  0  0  0  0  0  0  0  0  0
    5.0597  -49.1051  -24.9484 C   0  0  0  0  0  0  0  0  0  0  0  0
 31 32  1  0  0  0
 32 30  1  0  0  0
 30  1  1  0  0  0
  1  2  2  0  0  0
  2  3  1  0  0  0
  3  4  2  0  0  0
  4  5  1  0  0  0
  5  6  2  0  0  0
  6  7  1  0  0  0
  7  8  2  0  0  0
  8  9  1  0  0  0
  9 11  1  0  0  0
 11 13  1  0  0  0
 13 14  2  0  0  0
 14 15  1  0  0  0
 15 16  2  0  0  0
 16 17  1  0  0  0
 17 22  1  0  0  0
 22 23  1  0  0  0
 23 24  2  0  0  0
 24 25  1  0  0  0
 25 26  2  0  0  0
 26 27  1  0  0  0
 27 28  1  0  0  0
 27 29  2  0  0  0
 17 18  1  0  0  0
 18 19  2  0  0  0
 19 20  1  0  0  0
 20 21  2  0  0  0
  9 10  2  0  0  0
 32 33  1  0  0  0
 33 34  2  0  0  0
 33 35  1  0  0  0
 35 36  1  0  0  0
 35 37  1  0  0  0
 37 38  1  0  0  0
 38 39  1  0  0  0
 39 40  2  0  0  0
 39 41  1  0  0  0
 41 42  1  0  0  0
 41 43  1  0  0  0
 10  1  1  0  0  0
 10  5  1  0  0  0
 21 13  1  0  0  0
 20 16  1  0  0  0
 29 23  1  0  0  0
 11 12  1  0  0  0
M  END
> <minimizedAffinity>
-8.97676

> <CNNscore>
0.6661525369

> <CNNaffinity>
7.7243561745

> <CNN_VS>
5.1455993652

> <CNNaffinity_variance>
0.5594260693

$$$$
[H]c1nc(N([H])c2c([H])c([H])c3c(c([H])nn3C([H])([H])c3c([H])c([H])c([H])c(F)c3[H])c2[H])c2c(O[C@@]([H])(C(=O)N(C([H])([H])[H])C([H])([H])C([H])([H])C(=O)N(C([H])([H])[H])C([H])([H])[H])C([H])([H])[H])c([H])c([H])c([H])c2n1


 43 47  0  0  0  0  0  0  0  0999 V2000
   -0.3339  -52.7078  -25.1727 C   0  0  0  0  0  0  0  0  0  0  0  0
   -1.5755  -52.5827  -25.7489 C   0  0  0  0  0  0  0  0  0  0  0  0
   -1.7854  -52.4945  -27.0994 C   0  0  0  0  0  0  0  0  0  0  0  0
   -0.7191  -52.5299  -27.9589 C   0  0  0  0  0  0  0  0  0  0  0  0
    0.5516  -52.6566  -27.3894 C   0  0  0  0  0  0  0  0  0  0  0  0
    1.5950  -52.7116  -28.2673 N   0  0  0  0  0  0  0  0  0  0  0  0
    2.8366  -52.8520  -27.7902 C   0  0  0  0  0  0  0  0  0  0  0  0
    3.0637  -52.9361  -26.4879 N   0  0  0  0  0  0  0  0  0  0  0  0
    2.0646  -52.8865  -25.5597 C   0  0  0  0  0  0  0  0  0  0  0  0
    0.7730  -52.7446  -26.0312 C   0  0  0  0  0  0  0  0  0  0  0  0
    2.3974  -52.8740  -24.1959 N   0  0  0  0  0  0  0  0  0  0  0  0
    2.2946  -53.6557  -23.5619 H   0  0  0  0  0  0  0  0  0  0  0  0
    2.8919  -51.6587  -23.5839 C   0  0  0  0  0  0  0  0  0  0  0  0
    2.2447  -50.4744  -23.5484 C   0  0  0  0  0  0  0  0  0  0  0  0
    2.7912  -49.3700  -22.9091 C   0  0  0  0  0  0  0  0  0  0  0  0
    4.0195  -49.4661  -22.2931 C   0  0  0  0  0  0  0  0  0  0  0  0
    4.7776  -48.5651  -21.6088 N   0  0  0  0  0  0  0  0  0  0  0  0
    5.8728  -49.1861  -21.2310 N   0  0  0  0  0  0  0  0  0  0  0  0
    5.8830  -50.4513  -21.6274 C   0  0  0  0  0  0  0  0  0  0  0  0
    4.7000  -50.6561  -22.3138 C   0  0  0  0  0  0  0  0  0  0  0  0
    4.1372  -51.7243  -22.9495 C   0  0  0  0  0  0  0  0  0  0  0  0
    4.4611  -47.1958  -21.3385 C   0  0  0  0  0  0  0  0  0  0  0  0
    4.2827  -46.3580  -22.5467 C   0  0  0  0  0  0  0  0  0  0  0  0
    5.3584  -46.0435  -23.3773 C   0  0  0  0  0  0  0  0  0  0  0  0
    5.1441  -45.2567  -24.5007 C   0  0  0  0  0  0  0  0  0  0  0  0
    3.8923  -44.7732  -24.8234 C   0  0  0  0  0  0  0  0  0  0  0  0
    2.8254  -45.0832  -24.0026 C   0  0  0  0  0  0  0  0  0  0  0  0
    1.5822  -44.6115  -24.3091 F   0  0  0  0  0  0  0  0  0  0  0  0
    3.0416  -45.8766  -22.8696 C   0  0  0  0  0  0  0  0  0  0  0  0
   -0.1857  -52.7977  -23.8253 O   0  0  0  0  0  0  0  0  0  0  0  0
   -0.9601  -55.0310  -23.6559 C   0  0  0  0  0  0  0  0  0  0  0  0
   -0.3192  -53.8709  -22.9532 C   0  0  0  0  0  0  0  0  0  0  0  0
   -0.8465  -53.5340  -21.6414 C   0  0  0  0  0  0  0  0  0  0  0  0
   -2.0516  -53.9216  -21.4262 O   0  0  0  0  0  0  0  0  0  0  0  0
   -0.1987  -52.8372  -20.5880 N   0  0  0  0  0  0  0  0  0  0  0  0
    1.1423  -52.3120  -20.7111 C   0  0  0  0  0  0  0  0  0  0  0  0
   -0.8947  -52.7018  -19.3278 C   0  0  0  0  0  0  0  0  0  0  0  0
   -0.1106  -52.3703  -18.1369 C   0  0  0  0  0  0  0  0  0  0  0  0
   -0.0474  -51.0001  -17.6489 C   0  0  0  0  0  0  0  0  0  0  0  0
    0.5731  -50.0582  -18.1842 O   0  0  0  0  0  0  0  0  0  0  0  0
   -0.7491  -50.6281  -16.4291 N   0  0  0  0  0  0  0  0  0  0  0  0
   -0.6895  -49.2873  -15.9554 C   0  0  0  0  0  0  0  0  0  0  0  0
   -1.5043  -51.6295  -15.6968 C   0  0  0  0  0  0  0  0  0  0  0  0
 31 32  1  0  0  0
 32 30  1  0  0  0
 30  1  1  0  0  0
  1  2  2  0  0  0
  2  3  1  0  0  0
  3  4  2  0  0  0
  4  5  1  0  0  0
  5  6  2  0  0  0
  6  7  1  0  0  0
  7  8  2  0  0  0
  8  9  1  0  0  0
  9 11  1  0  0  0
 11 13  1  0  0  0
 13 14  2  0  0  0
 14 15  1  0  0  0
 15 16  2  0  0  0
 16 17  1  0  0  0
 17 22  1  0  0  0
 22 23  1  0  0  0
 23 24  2  0  0  0
 24 25  1  0  0  0
 25 26  2  0  0  0
 26 27  1  0  0  0
 27 28  1  0  0  0
 27 29  2  0  0  0
 17 18  1  0  0  0
 18 19  2  0  0  0
 19 20  1  0  0  0
 20 21  2  0  0  0
  9 10  2  0  0  0
 32 33  1  0  0  0
 33 34  2  0  0  0
 33 35  1  0  0  0
 35 36  1  0  0  0
 35 37  1  0  0  0
 37 38  1  0  0  0
 38 39  1  0  0  0
 39 40  2  0  0  0
 39 41  1  0  0  0
 41 42  1  0  0  0
 41 43  1  0  0  0
 10  1  1  0  0  0
 10  5  1  0  0  0
 21 13  1  0  0  0
 20 16  1  0  0  0
 29 23  1  0  0  0
 11 12  1  0  0  0
M  END
> <minimizedAffinity>
-8.49643

> <CNNscore>
0.5728415251

> <CNNaffinity>
7.7967019081

> <CNN_VS>
4.4662747383

> <CNNaffinity_variance>
0.0838761404

$$$$
[H]c1nc(N([H])c2c([H])c([H])c3c(c([H])nn3C([H])([H])c3c([H])c([H])c([H])c(F)c3[H])c2[H])c2c(O[C@@]([H])(C(=O)N(C([H])([H])[H])C([H])([H])C([H])([H])C(=O)N(C([H])([H])[H])C([H])([H])[H])C([H])([H])[H])c([H])c([H])c([H])c2n1


 43 47  0  0  0  0  0  0  0  0999 V2000
    0.7546  -50.5716  -17.3247 C   0  0  0  0  0  0  0  0  0  0  0  0
    0.8020  -49.4700  -16.5040 C   0  0  0  0  0  0  0  0  0  0  0  0
   -0.1971  -49.1221  -15.6342 C   0  0  0  0  0  0  0  0  0  0  0  0
   -1.3260  -49.8936  -15.5487 C   0  0  0  0  0  0  0  0  0  0  0  0
   -1.3908  -51.0182  -16.3771 C   0  0  0  0  0  0  0  0  0  0  0  0
   -2.5152  -51.7822  -16.2573 N   0  0  0  0  0  0  0  0  0  0  0  0
   -2.6331  -52.8837  -17.0068 C   0  0  0  0  0  0  0  0  0  0  0  0
   -1.6811  -53.2379  -17.8570 N   0  0  0  0  0  0  0  0  0  0  0  0
   -0.5347  -52.5166  -18.0238 C   0  0  0  0  0  0  0  0  0  0  0  0
   -0.3909  -51.3757  -17.2567 C   0  0  0  0  0  0  0  0  0  0  0  0
    0.3758  -52.8996  -19.0214 N   0  0  0  0  0  0  0  0  0  0  0  0
    1.3096  -53.2520  -18.8565 H   0  0  0  0  0  0  0  0  0  0  0  0
    0.0189  -52.7598  -20.4175 C   0  0  0  0  0  0  0  0  0  0  0  0
   -0.0904  -51.5945  -21.0903 C   0  0  0  0  0  0  0  0  0  0  0  0
   -0.4105  -51.5657  -22.4408 C   0  0  0  0  0  0  0  0  0  0  0  0
   -0.6253  -52.7418  -23.1249 C   0  0  0  0  0  0  0  0  0  0  0  0
   -0.9471  -53.0051  -24.4217 N   0  0  0  0  0  0  0  0  0  0  0  0
   -1.0347  -54.3111  -24.5430 N   0  0  0  0  0  0  0  0  0  0  0  0
   -0.7883  -54.9296  -23.3964 C   0  0  0  0  0  0  0  0  0  0  0  0
   -0.5220  -53.9404  -22.4673 C   0  0  0  0  0  0  0  0  0  0  0  0
   -0.2055  -53.9368  -21.1400 C   0  0  0  0  0  0  0  0  0  0  0  0
   -1.1541  -52.0555  -25.4722 C   0  0  0  0  0  0  0  0  0  0  0  0
   -0.6216  -52.4732  -26.7896 C   0  0  0  0  0  0  0  0  0  0  0  0
   -1.4477  -52.5678  -27.9096 C   0  0  0  0  0  0  0  0  0  0  0  0
   -0.9046  -52.9613  -29.1251 C   0  0  0  0  0  0  0  0  0  0  0  0
    0.4352  -53.2635  -29.2606 C   0  0  0  0  0  0  0  0  0  0  0  0
    1.2554  -53.1706  -28.1530 C   0  0  0  0  0  0  0  0  0  0  0  0
    2.5821  -53.4670  -28.2722 F   0  0  0  0  0  0  0  0  0  0  0  0
    0.7077  -52.7738  -26.9272 C   0  0  0  0  0  0  0  0  0  0  0  0
    1.7795  -50.8721  -18.1643 O   0  0  0  0  0  0  0  0  0  0  0  0
    1.7077  -49.0663  -19.6972 C   0  0  0  0  0  0  0  0  0  0  0  0
    2.5640  -50.0708  -18.9844 C   0  0  0  0  0  0  0  0  0  0  0  0
    3.5363  -50.7865  -19.7936 C   0  0  0  0  0  0  0  0  0  0  0  0
    3.3777  -52.0601  -19.8305 O   0  0  0  0  0  0  0  0  0  0  0  0
    4.6237  -50.2534  -20.5342 N   0  0  0  0  0  0  0  0  0  0  0  0
    4.9391  -48.8428  -20.5479 C   0  0  0  0  0  0  0  0  0  0  0  0
    5.4057  -51.1575  -21.3479 C   0  0  0  0  0  0  0  0  0  0  0  0
    5.2969  -51.0474  -22.8035 C   0  0  0  0  0  0  0  0  0  0  0  0
    4.0029  -51.1616  -23.4608 C   0  0  0  0  0  0  0  0  0  0  0  0
    3.1998  -52.1101  -23.3408 O   0  0  0  0  0  0  0  0  0  0  0  0
    3.5438  -50.1079  -24.3539 N   0  0  0  0  0  0  0  0  0  0  0  0
    2.2768  -50.2193  -24.9926 C   0  0  0  0  0  0  0  0  0  0  0  0
    4.3841  -48.9479  -24.5936 C   0  0  0  0  0  0  0  0  0  0  0  0
 31 32  1  0  0  0
 32 30  1  0  0  0
 30  1  1  0  0  0
  1  2  2  0  0  0
  2  3  1  0  0  0
  3  4  2  0  0  0
  4  5  1  0  0  0
  5  6  2  0  0  0
  6  7  1  0  0  0
  7  8  2  0  0  0
  8  9  1  0  0  0
  9 11  1  0  0  0
 11 13  1  0  0  0
 13 14  2  0  0  0
 14 15  1  0  0  0
 15 16  2  0  0  0
 16 17  1  0  0  0
 17 22  1  0  0  0
 22 23  1  0  0  0
 23 24  2  0  0  0
 24 25  1  0  0  0
 25 26  2  0  0  0
 26 27  1  0  0  0
 27 28  1  0  0  0
 27 29  2  0  0  0
 17 18  1  0  0  0
 18 19  2  0  0  0
 19 20  1  0  0  0
 20 21  2  0  0  0
  9 10  2  0  0  0
 32 33  1  0  0  0
 33 34  2  0  0  0
 33 35  1  0  0  0
 35 36  1  0  0  0
 35 37  1  0  0  0
 37 38  1  0  0  0
 38 39  1  0  0  0
 39 40  2  0  0  0
 39 41  1  0  0  0
 41 42  1  0  0  0
 41 43  1  0  0  0
 10  1  1  0  0  0
 10  5  1  0  0  0
 21 13  1  0  0  0
 20 16  1  0  0  0
 29 23  1  0  0  0
 11 12  1  0  0  0
M  END
> <minimizedAffinity>
-9.00813

> <CNNscore>
0.5365607738

> <CNNaffinity>
7.5996942520

> <CNN_VS>
4.0776977539

> <CNNaffinity_variance>
0.4874784350

$$$$
[H]c1nc(N([H])c2c([H])c([H])c3c(c([H])nn3C([H])([H])c3c([H])c([H])c([H])c(F)c3[H])c2[H])c2c(O[C@@]([H])(C(=O)N(C([H])([H])[H])C([H])([H])C([H])([H])C(=O)N(C([H])([H])[H])C([H])([H])[H])C([H])([H])[H])c([H])c([H])c([H])c2n1


 43 47  0  0  0  0  0  0  0  0999 V2000
    1.1866  -49.4571  -17.6930 C   0  0  0  0  0  0  0  0  0  0  0  0
    1.5668  -49.0353  -16.4413 C   0  0  0  0  0  0  0  0  0  0  0  0
    1.2644  -49.7044  -15.2852 C   0  0  0  0  0  0  0  0  0  0  0  0
    0.5420  -50.8672  -15.3395 C   0  0  0  0  0  0  0  0  0  0  0  0
    0.1467  -51.3107  -16.6053 C   0  0  0  0  0  0  0  0  0  0  0  0
   -0.5525  -52.4823  -16.6344 N   0  0  0  0  0  0  0  0  0  0  0  0
   -0.9446  -52.9738  -17.8149 C   0  0  0  0  0  0  0  0  0  0  0  0
   -0.6662  -52.3421  -18.9455 N   0  0  0  0  0  0  0  0  0  0  0  0
    0.0276  -51.1677  -18.9833 C   0  0  0  0  0  0  0  0  0  0  0  0
    0.4451  -50.6433  -17.7744 C   0  0  0  0  0  0  0  0  0  0  0  0
    0.1880  -50.5068  -20.2115 N   0  0  0  0  0  0  0  0  0  0  0  0
    0.2131  -49.5032  -20.3364 H   0  0  0  0  0  0  0  0  0  0  0  0
    0.2873  -51.2723  -21.4363 C   0  0  0  0  0  0  0  0  0  0  0  0
    1.1398  -51.0250  -22.4535 C   0  0  0  0  0  0  0  0  0  0  0  0
    1.1796  -51.8376  -23.5783 C   0  0  0  0  0  0  0  0  0  0  0  0
    0.3379  -52.9236  -23.6759 C   0  0  0  0  0  0  0  0  0  0  0  0
    0.1645  -53.8681  -24.6416 N   0  0  0  0  0  0  0  0  0  0  0  0
   -0.7797  -54.6818  -24.2243 N   0  0  0  0  0  0  0  0  0  0  0  0
   -1.2429  -54.3287  -23.0332 C   0  0  0  0  0  0  0  0  0  0  0  0
   -0.5390  -53.1987  -22.6586 C   0  0  0  0  0  0  0  0  0  0  0  0
   -0.5547  -52.3823  -21.5654 C   0  0  0  0  0  0  0  0  0  0  0  0
    0.8674  -53.9753  -25.8836 C   0  0  0  0  0  0  0  0  0  0  0  0
    0.1203  -53.4654  -27.0564 C   0  0  0  0  0  0  0  0  0  0  0  0
    0.7129  -53.3881  -28.3169 C   0  0  0  0  0  0  0  0  0  0  0  0
   -0.0262  -52.9056  -29.3884 C   0  0  0  0  0  0  0  0  0  0  0  0
   -1.3368  -52.4977  -29.2445 C   0  0  0  0  0  0  0  0  0  0  0  0
   -1.9259  -52.5732  -27.9974 C   0  0  0  0  0  0  0  0  0  0  0  0
   -3.2209  -52.1729  -27.8403 F   0  0  0  0  0  0  0  0  0  0  0  0
   -1.1806  -53.0598  -26.9168 C   0  0  0  0  0  0  0  0  0  0  0  0
    1.5208  -48.7554  -18.8072 O   0  0  0  0  0  0  0  0  0  0  0  0
    3.3113  -47.2191  -18.5839 C   0  0  0  0  0  0  0  0  0  0  0  0
    2.7550  -48.3938  -19.3328 C   0  0  0  0  0  0  0  0  0  0  0  0
    2.8076  -48.3235  -20.7835 C   0  0  0  0  0  0  0  0  0  0  0  0
    1.7217  -47.9332  -21.3467 O   0  0  0  0  0  0  0  0  0  0  0  0
    3.8986  -48.6320  -21.6378 N   0  0  0  0  0  0  0  0  0  0  0  0
    5.1646  -49.1191  -21.1386 C   0  0  0  0  0  0  0  0  0  0  0  0
    3.7460  -48.3928  -23.0557 C   0  0  0  0  0  0  0  0  0  0  0  0
    4.4942  -47.2864  -23.6547 C   0  0  0  0  0  0  0  0  0  0  0  0
    4.1365  -46.7762  -24.9704 C   0  0  0  0  0  0  0  0  0  0  0  0
    4.6603  -47.1086  -26.0539 O   0  0  0  0  0  0  0  0  0  0  0  0
    3.0797  -45.7843  -25.1046 N   0  0  0  0  0  0  0  0  0  0  0  0
    2.7285  -45.2894  -26.3920 C   0  0  0  0  0  0  0  0  0  0  0  0
    2.3905  -45.2994  -23.9217 C   0  0  0  0  0  0  0  0  0  0  0  0
 31 32  1  0  0  0
 32 30  1  0  0  0
 30  1  1  0  0  0
  1  2  2  0  0  0
  2  3  1  0  0  0
  3  4  2  0  0  0
  4  5  1  0  0  0
  5  6  2  0  0  0
  6  7  1  0  0  0
  7  8  2  0  0  0
  8  9  1  0  0  0
  9 11  1  0  0  0
 11 13  1  0  0  0
 13 14  2  0  0  0
 14 15  1  0  0  0
 15 16  2  0  0  0
 16 17  1  0  0  0
 17 22  1  0  0  0
 22 23  1  0  0  0
 23 24  2  0  0  0
 24 25  1  0  0  0
 25 26  2  0  0  0
 26 27  1  0  0  0
 27 28  1  0  0  0
 27 29  2  0  0  0
 17 18  1  0  0  0
 18 19  2  0  0  0
 19 20  1  0  0  0
 20 21  2  0  0  0
  9 10  2  0  0  0
 32 33  1  0  0  0
 33 34  2  0  0  0
 33 35  1  0  0  0
 35 36  1  0  0  0
 35 37  1  0  0  0
 37 38  1  0  0  0
 38 39  1  0  0  0
 39 40  2  0  0  0
 39 41  1  0  0  0
 41 42  1  0  0  0
 41 43  1  0  0  0
 10  1  1  0  0  0
 10  5  1  0  0  0
 21 13  1  0  0  0
 20 16  1  0  0  0
 29 23  1  0  0  0
 11 12  1  0  0  0
M  END
> <minimizedAffinity>
-8.49268

> <CNNscore>
0.5093670487

> <CNNaffinity>
7.7787580490

> <CNN_VS>
3.9622430801

> <CNNaffinity_variance>
0.0423528664

$$$$
[H]c1nc(N([H])c2c([H])c([H])c3c(c([H])nn3C([H])([H])c3c([H])c([H])c([H])c(F)c3[H])c2[H])c2c(O[C@@]([H])(C(=O)N(C([H])([H])[H])C([H])([H])C([H])([H])C(=O)N(C([H])([H])[H])C([H])([H])[H])C([H])([H])[H])c([H])c([H])c([H])c2n1


 43 47  0  0  0  0  0  0  0  0999 V2000
    1.3849  -49.4165  -17.8131 C   0  0  0  0  0  0  0  0  0  0  0  0
    1.8513  -48.9337  -16.6137 C   0  0  0  0  0  0  0  0  0  0  0  0
    1.5838  -49.5123  -15.4015 C   0  0  0  0  0  0  0  0  0  0  0  0
    0.8093  -50.6407  -15.3407 C   0  0  0  0  0  0  0  0  0  0  0  0
    0.3262  -51.1454  -16.5519 C   0  0  0  0  0  0  0  0  0  0  0  0
   -0.4242  -52.2820  -16.4665 N   0  0  0  0  0  0  0  0  0  0  0  0
   -0.9017  -52.8291  -17.5898 C   0  0  0  0  0  0  0  0  0  0  0  0
   -0.6584  -52.2851  -18.7728 N   0  0  0  0  0  0  0  0  0  0  0  0
    0.0830  -51.1496  -18.9247 C   0  0  0  0  0  0  0  0  0  0  0  0
    0.5888  -50.5691  -17.7767 C   0  0  0  0  0  0  0  0  0  0  0  0
    0.2046  -50.5772  -20.2009 N   0  0  0  0  0  0  0  0  0  0  0  0
    0.2827  -49.5869  -20.3924 H   0  0  0  0  0  0  0  0  0  0  0  0
    0.1785  -51.4214  -21.3768 C   0  0  0  0  0  0  0  0  0  0  0  0
    0.9022  -51.2304  -22.5003 C   0  0  0  0  0  0  0  0  0  0  0  0
    0.8297  -52.1156  -23.5672 C   0  0  0  0  0  0  0  0  0  0  0  0
    0.0064  -53.2176  -23.4955 C   0  0  0  0  0  0  0  0  0  0  0  0
   -0.2566  -54.2269  -24.3713 N   0  0  0  0  0  0  0  0  0  0  0  0
   -1.1283  -55.0243  -23.7949 N   0  0  0  0  0  0  0  0  0  0  0  0
   -1.4585  -54.5990  -22.5833 C   0  0  0  0  0  0  0  0  0  0  0  0
   -0.7410  -53.4367  -22.3672 C   0  0  0  0  0  0  0  0  0  0  0  0
   -0.6482  -52.5493  -21.3348 C   0  0  0  0  0  0  0  0  0  0  0  0
    0.3003  -54.4068  -25.6773 C   0  0  0  0  0  0  0  0  0  0  0  0
   -0.3839  -53.6428  -26.7458 C   0  0  0  0  0  0  0  0  0  0  0  0
   -1.5480  -52.9186  -26.4887 C   0  0  0  0  0  0  0  0  0  0  0  0
   -2.1543  -52.2152  -27.5205 C   0  0  0  0  0  0  0  0  0  0  0  0
   -1.6380  -52.2100  -28.8004 C   0  0  0  0  0  0  0  0  0  0  0  0
   -0.4853  -52.9264  -29.0577 C   0  0  0  0  0  0  0  0  0  0  0  0
    0.0361  -52.9307  -30.3187 F   0  0  0  0  0  0  0  0  0  0  0  0
    0.1261  -53.6358  -28.0171 C   0  0  0  0  0  0  0  0  0  0  0  0
    1.6878  -48.8043  -18.9874 O   0  0  0  0  0  0  0  0  0  0  0  0
    3.3627  -47.1329  -18.8571 C   0  0  0  0  0  0  0  0  0  0  0  0
    2.9006  -48.3934  -19.5264 C   0  0  0  0  0  0  0  0  0  0  0  0
    2.9680  -48.4207  -20.9779 C   0  0  0  0  0  0  0  0  0  0  0  0
    1.8656  -48.1472  -21.5766 O   0  0  0  0  0  0  0  0  0  0  0  0
    4.0892  -48.7111  -21.7987 N   0  0  0  0  0  0  0  0  0  0  0  0
    5.3789  -49.0728  -21.2554 C   0  0  0  0  0  0  0  0  0  0  0  0
    3.9399  -48.5823  -23.2312 C   0  0  0  0  0  0  0  0  0  0  0  0
    4.6711  -49.5161  -24.0893 C   0  0  0  0  0  0  0  0  0  0  0  0
    3.9602  -50.3708  -25.0292 C   0  0  0  0  0  0  0  0  0  0  0  0
    3.1459  -49.9906  -25.8959 O   0  0  0  0  0  0  0  0  0  0  0  0
    4.1723  -51.8107  -25.0089 N   0  0  0  0  0  0  0  0  0  0  0  0
    3.4795  -52.6445  -25.9310 C   0  0  0  0  0  0  0  0  0  0  0  0
    5.0878  -52.3918  -24.0426 C   0  0  0  0  0  0  0  0  0  0  0  0
 31 32  1  0  0  0
 32 30  1  0  0  0
 30  1  1  0  0  0
  1  2  2  0  0  0
  2  3  1  0  0  0
  3  4  2  0  0  0
  4  5  1  0  0  0
  5  6  2  0  0  0
  6  7  1  0  0  0
  7  8  2  0  0  0
  8  9  1  0  0  0
  9 11  1  0  0  0
 11 13  1  0  0  0
 13 14  2  0  0  0
 14 15  1  0  0  0
 15 16  2  0  0  0
 16 17  1  0  0  0
 17 22  1  0  0  0
 22 23  1  0  0  0
 23 24  2  0  0  0
 24 25  1  0  0  0
 25 26  2  0  0  0
 26 27  1  0  0  0
 27 28  1  0  0  0
 27 29  2  0  0  0
 17 18  1  0  0  0
 18 19  2  0  0  0
 19 20  1  0  0  0
 20 21  2  0  0  0
  9 10  2  0  0  0
 32 33  1  0  0  0
 33 34  2  0  0  0
 33 35  1  0  0  0
 35 36  1  0  0  0
 35 37  1  0  0  0
 37 38  1  0  0  0
 38 39  1  0  0  0
 39 40  2  0  0  0
 39 41  1  0  0  0
 41 42  1  0  0  0
 41 43  1  0  0  0
 10  1  1  0  0  0
 10  5  1  0  0  0
 21 13  1  0  0  0
 20 16  1  0  0  0
 29 23  1  0  0  0
 11 12  1  0  0  0
M  END
> <minimizedAffinity>
-8.51220

> <CNNscore>
0.5024788380

> <CNNaffinity>
7.7906227112

> <CNN_VS>
3.9146230221

> <CNNaffinity_variance>
0.1267163903

$$$$
[H]c1nc(N([H])c2c([H])c([H])c3c(c([H])nn3C([H])([H])c3c([H])c([H])c([H])c(F)c3[H])c2[H])c2c(O[C@@]([H])(C(=O)N(C([H])([H])[H])C([H])([H])C([H])([H])C(=O)N(C([H])([H])[H])C([H])([H])[H])C([H])([H])[H])c([H])c([H])c([H])c2n1


 43 47  0  0  0  0  0  0  0  0999 V2000
    1.8044  -52.1776  -25.6453 C   0  0  0  0  0  0  0  0  0  0  0  0
    1.9671  -52.3218  -27.0025 C   0  0  0  0  0  0  0  0  0  0  0  0
    1.2715  -53.2232  -27.7637 C   0  0  0  0  0  0  0  0  0  0  0  0
    0.3500  -54.0470  -27.1727 C   0  0  0  0  0  0  0  0  0  0  0  0
    0.1720  -53.9137  -25.7922 C   0  0  0  0  0  0  0  0  0  0  0  0
   -0.7669  -54.7299  -25.2312 N   0  0  0  0  0  0  0  0  0  0  0  0
   -1.0014  -54.6405  -23.9175 C   0  0  0  0  0  0  0  0  0  0  0  0
   -0.3385  -53.7784  -23.1612 N   0  0  0  0  0  0  0  0  0  0  0  0
    0.6122  -52.9368  -23.6612 C   0  0  0  0  0  0  0  0  0  0  0  0
    0.8685  -53.0103  -25.0175 C   0  0  0  0  0  0  0  0  0  0  0  0
    1.3449  -52.1293  -22.7768 N   0  0  0  0  0  0  0  0  0  0  0  0
    2.1806  -51.6110  -23.0144 H   0  0  0  0  0  0  0  0  0  0  0  0
    0.9427  -52.0274  -21.3897 C   0  0  0  0  0  0  0  0  0  0  0  0
    0.3960  -53.0177  -20.6528 C   0  0  0  0  0  0  0  0  0  0  0  0
    0.0701  -52.8299  -19.3165 C   0  0  0  0  0  0  0  0  0  0  0  0
    0.3018  -51.6135  -18.7134 C   0  0  0  0  0  0  0  0  0  0  0  0
    0.0844  -51.1586  -17.4482 N   0  0  0  0  0  0  0  0  0  0  0  0
    0.4904  -49.9090  -17.4093 N   0  0  0  0  0  0  0  0  0  0  0  0
    0.9660  -49.5092  -18.5806 C   0  0  0  0  0  0  0  0  0  0  0  0
    0.8552  -50.5891  -19.4374 C   0  0  0  0  0  0  0  0  0  0  0  0
    1.1655  -50.8038  -20.7487 C   0  0  0  0  0  0  0  0  0  0  0  0
   -0.4774  -51.8863  -16.3514 C   0  0  0  0  0  0  0  0  0  0  0  0
   -1.9048  -51.5921  -16.0877 C   0  0  0  0  0  0  0  0  0  0  0  0
   -2.9149  -52.4524  -16.5184 C   0  0  0  0  0  0  0  0  0  0  0  0
   -4.2393  -52.1375  -16.2469 C   0  0  0  0  0  0  0  0  0  0  0  0
   -4.5899  -50.9930  -15.5599 C   0  0  0  0  0  0  0  0  0  0  0  0
   -3.5916  -50.1394  -15.1323 C   0  0  0  0  0  0  0  0  0  0  0  0
   -3.9236  -49.0038  -14.4523 F   0  0  0  0  0  0  0  0  0  0  0  0
   -2.2559  -50.4569  -15.4061 C   0  0  0  0  0  0  0  0  0  0  0  0
    2.5181  -51.2608  -24.9413 O   0  0  0  0  0  0  0  0  0  0  0  0
    4.5487  -52.4362  -24.6083 C   0  0  0  0  0  0  0  0  0  0  0  0
    3.8861  -51.0991  -24.7608 C   0  0  0  0  0  0  0  0  0  0  0  0
    4.2618  -50.0746  -23.8008 C   0  0  0  0  0  0  0  0  0  0  0  0
    3.9123  -50.3138  -22.5887 O   0  0  0  0  0  0  0  0  0  0  0  0
    4.9561  -48.8599  -24.0407 N   0  0  0  0  0  0  0  0  0  0  0  0
    5.3725  -48.4492  -25.3626 C   0  0  0  0  0  0  0  0  0  0  0  0
    5.3050  -48.0356  -22.9050 C   0  0  0  0  0  0  0  0  0  0  0  0
    4.8241  -46.6533  -22.8802 C   0  0  0  0  0  0  0  0  0  0  0  0
    3.4402  -46.3440  -23.2096 C   0  0  0  0  0  0  0  0  0  0  0  0
    2.4295  -46.8878  -22.7181 O   0  0  0  0  0  0  0  0  0  0  0  0
    3.1380  -45.3171  -24.1959 N   0  0  0  0  0  0  0  0  0  0  0  0
    1.7845  -45.0132  -24.5140 C   0  0  0  0  0  0  0  0  0  0  0  0
    4.2209  -44.6092  -24.8559 C   0  0  0  0  0  0  0  0  0  0  0  0
 31 32  1  0  0  0
 32 30  1  0  0  0
 30  1  1  0  0  0
  1  2  2  0  0  0
  2  3  1  0  0  0
  3  4  2  0  0  0
  4  5  1  0  0  0
  5  6  2  0  0  0
  6  7  1  0  0  0
  7  8  2  0  0  0
  8  9  1  0  0  0
  9 11  1  0  0  0
 11 13  1  0  0  0
 13 14  2  0  0  0
 14 15  1  0  0  0
 15 16  2  0  0  0
 16 17  1  0  0  0
 17 22  1  0  0  0
 22 23  1  0  0  0
 23 24  2  0  0  0
 24 25  1  0  0  0
 25 26  2  0  0  0
 26 27  1  0  0  0
 27 28  1  0  0  0
 27 29  2  0  0  0
 17 18  1  0  0  0
 18 19  2  0  0  0
 19 20  1  0  0  0
 20 21  2  0  0  0
  9 10  2  0  0  0
 32 33  1  0  0  0
 33 34  2  0  0  0
 33 35  1  0  0  0
 35 36  1  0  0  0
 35 37  1  0  0  0
 37 38  1  0  0  0
 38 39  1  0  0  0
 39 40  2  0  0  0
 39 41  1  0  0  0
 41 42  1  0  0  0
 41 43  1  0  0  0
 10  1  1  0  0  0
 10  5  1  0  0  0
 21 13  1  0  0  0
 20 16  1  0  0  0
 29 23  1  0  0  0
 11 12  1  0  0  0
M  END
> <minimizedAffinity>
-8.78873

> <CNNscore>
0.4852410853

> <CNNaffinity>
7.6668767929

> <CNN_VS>
3.7202835083

> <CNNaffinity_variance>
0.1215423197

$$$$
[H]c1nc(N([H])c2c([H])c([H])c3c(c([H])nn3C([H])([H])c3c([H])c([H])c([H])c(F)c3[H])c2[H])c2c(O[C@@]([H])(C(=O)N(C([H])([H])[H])C([H])([H])C([H])([H])C(=O)N(C([H])([H])[H])C([H])([H])[H])C([H])([H])[H])c([H])c([H])c([H])c2n1


 43 47  0  0  0  0  0  0  0  0999 V2000
    0.5830  -53.2657  -24.5304 C   0  0  0  0  0  0  0  0  0  0  0  0
    0.4455  -54.2734  -25.4549 C   0  0  0  0  0  0  0  0  0  0  0  0
   -0.3343  -55.3832  -25.2648 C   0  0  0  0  0  0  0  0  0  0  0  0
   -1.0342  -55.5327  -24.0966 C   0  0  0  0  0  0  0  0  0  0  0  0
   -0.9055  -54.5166  -23.1447 C   0  0  0  0  0  0  0  0  0  0  0  0
   -1.6296  -54.6782  -21.9993 N   0  0  0  0  0  0  0  0  0  0  0  0
   -1.5675  -53.7334  -21.0547 C   0  0  0  0  0  0  0  0  0  0  0  0
   -0.8176  -52.6533  -21.2155 N   0  0  0  0  0  0  0  0  0  0  0  0
   -0.0702  -52.4339  -22.3359 C   0  0  0  0  0  0  0  0  0  0  0  0
   -0.1219  -53.3966  -23.3265 C   0  0  0  0  0  0  0  0  0  0  0  0
    0.7805  -51.3181  -22.3834 N   0  0  0  0  0  0  0  0  0  0  0  0
    1.0831  -50.8491  -23.2272 H   0  0  0  0  0  0  0  0  0  0  0  0
    1.3340  -50.7789  -21.1590 C   0  0  0  0  0  0  0  0  0  0  0  0
    0.6326  -50.4597  -20.0505 C   0  0  0  0  0  0  0  0  0  0  0  0
    1.2606  -49.9747  -18.9114 C   0  0  0  0  0  0  0  0  0  0  0  0
    2.6279  -49.8085  -18.8942 C   0  0  0  0  0  0  0  0  0  0  0  0
    3.4874  -49.3607  -17.9374 N   0  0  0  0  0  0  0  0  0  0  0  0
    4.6968  -49.4036  -18.4505 N   0  0  0  0  0  0  0  0  0  0  0  0
    4.6871  -49.8559  -19.6968 C   0  0  0  0  0  0  0  0  0  0  0  0
    3.3659  -50.1236  -20.0059 C   0  0  0  0  0  0  0  0  0  0  0  0
    2.7207  -50.5987  -21.1103 C   0  0  0  0  0  0  0  0  0  0  0  0
    3.1587  -48.9224  -16.6153 C   0  0  0  0  0  0  0  0  0  0  0  0
    2.8552  -50.0169  -15.6647 C   0  0  0  0  0  0  0  0  0  0  0  0
    1.6462  -50.0608  -14.9702 C   0  0  0  0  0  0  0  0  0  0  0  0
    1.4037  -51.1070  -14.0906 C   0  0  0  0  0  0  0  0  0  0  0  0
    2.3270  -52.1112  -13.8808 C   0  0  0  0  0  0  0  0  0  0  0  0
    3.5250  -52.0701  -14.5673 C   0  0  0  0  0  0  0  0  0  0  0  0
    4.4474  -53.0560  -14.3692 F   0  0  0  0  0  0  0  0  0  0  0  0
    3.7696  -51.0150  -15.4543 C   0  0  0  0  0  0  0  0  0  0  0  0
    1.3664  -52.1833  -24.7759 O   0  0  0  0  0  0  0  0  0  0  0  0
    3.6731  -52.3640  -24.2639 C   0  0  0  0  0  0  0  0  0  0  0  0
    2.6424  -52.0723  -25.3141 C   0  0  0  0  0  0  0  0  0  0  0  0
    2.8635  -50.8909  -26.1311 C   0  0  0  0  0  0  0  0  0  0  0  0
    2.8581  -51.0997  -27.3980 O   0  0  0  0  0  0  0  0  0  0  0  0
    3.0830  -49.5558  -25.7016 N   0  0  0  0  0  0  0  0  0  0  0  0
    3.1522  -49.1887  -24.3052 C   0  0  0  0  0  0  0  0  0  0  0  0
    3.1838  -48.5216  -26.7071 C   0  0  0  0  0  0  0  0  0  0  0  0
    4.5182  -48.0585  -27.0913 C   0  0  0  0  0  0  0  0  0  0  0  0
    4.6827  -47.0501  -28.1284 C   0  0  0  0  0  0  0  0  0  0  0  0
    4.4679  -45.8266  -28.0033 O   0  0  0  0  0  0  0  0  0  0  0  0
    5.1355  -47.4378  -29.4564 N   0  0  0  0  0  0  0  0  0  0  0  0
    5.2995  -46.4503  -30.4680 C   0  0  0  0  0  0  0  0  0  0  0  0
    5.4135  -48.8338  -29.7452 C   0  0  0  0  0  0  0  0  0  0  0  0
 31 32  1  0  0  0
 32 30  1  0  0  0
 30  1  1  0  0  0
  1  2  2  0  0  0
  2  3  1  0  0  0
  3  4  2  0  0  0
  4  5  1  0  0  0
  5  6  2  0  0  0
  6  7  1  0  0  0
  7  8  2  0  0  0
  8  9  1  0  0  0
  9 11  1  0  0  0
 11 13  1  0  0  0
 13 14  2  0  0  0
 14 15  1  0  0  0
 15 16  2  0  0  0
 16 17  1  0  0  0
 17 22  1  0  0  0
 22 23  1  0  0  0
 23 24  2  0  0  0
 24 25  1  0  0  0
 25 26  2  0  0  0
 26 27  1  0  0  0
 27 28  1  0  0  0
 27 29  2  0  0  0
 17 18  1  0  0  0
 18 19  2  0  0  0
 19 20  1  0  0  0
 20 21  2  0  0  0
  9 10  2  0  0  0
 32 33  1  0  0  0
 33 34  2  0  0  0
 33 35  1  0  0  0
 35 36  1  0  0  0
 35 37  1  0  0  0
 37 38  1  0  0  0
 38 39  1  0  0  0
 39 40  2  0  0  0
 39 41  1  0  0  0
 41 42  1  0  0  0
 41 43  1  0  0  0
 10  1  1  0  0  0
 10  5  1  0  0  0
 21 13  1  0  0  0
 20 16  1  0  0  0
 29 23  1  0  0  0
 11 12  1  0  0  0
M  END
> <minimizedAffinity>
-7.69065

> <CNNscore>
0.4581839740

> <CNNaffinity>
7.5106725693

> <CNN_VS>
3.4412698746

> <CNNaffinity_variance>
0.0488445982

$$$$
[H]c1nc(N([H])c2c([H])c([H])c3c(c([H])nn3C([H])([H])c3c([H])c([H])c([H])c(F)c3[H])c2[H])c2c(O[C@@]([H])(C(=O)N(C([H])([H])[H])C([H])([H])C([H])([H])C(=O)N(C([H])([H])[H])C([H])([H])[H])C([H])([H])[H])c([H])c([H])c([H])c2n1


 43 47  0  0  0  0  0  0  0  0999 V2000
    1.2557  -52.2769  -25.7282 C   0  0  0  0  0  0  0  0  0  0  0  0
    1.4107  -52.5254  -27.0711 C   0  0  0  0  0  0  0  0  0  0  0  0
    0.8584  -53.5988  -27.7180 C   0  0  0  0  0  0  0  0  0  0  0  0
    0.0997  -54.4999  -27.0185 C   0  0  0  0  0  0  0  0  0  0  0  0
   -0.0680  -54.2624  -25.6508 C   0  0  0  0  0  0  0  0  0  0  0  0
   -0.8457  -55.1618  -24.9810 N   0  0  0  0  0  0  0  0  0  0  0  0
   -1.0633  -54.9832  -23.6735 C   0  0  0  0  0  0  0  0  0  0  0  0
   -0.5367  -53.9542  -23.0265 N   0  0  0  0  0  0  0  0  0  0  0  0
    0.2497  -53.0218  -23.6384 C   0  0  0  0  0  0  0  0  0  0  0  0
    0.4851  -53.1855  -24.9906 C   0  0  0  0  0  0  0  0  0  0  0  0
    0.8569  -52.0225  -22.8615 N   0  0  0  0  0  0  0  0  0  0  0  0
    1.5331  -51.3498  -23.1988 H   0  0  0  0  0  0  0  0  0  0  0  0
    0.5614  -51.9273  -21.4474 C   0  0  0  0  0  0  0  0  0  0  0  0
   -0.0191  -52.8878  -20.6971 C   0  0  0  0  0  0  0  0  0  0  0  0
   -0.2346  -52.7124  -19.3370 C   0  0  0  0  0  0  0  0  0  0  0  0
    0.1449  -51.5391  -18.7233 C   0  0  0  0  0  0  0  0  0  0  0  0
    0.0560  -51.1049  -17.4355 N   0  0  0  0  0  0  0  0  0  0  0  0
    0.5730  -49.8970  -17.3960 N   0  0  0  0  0  0  0  0  0  0  0  0
    1.0007  -49.5053  -18.5883 C   0  0  0  0  0  0  0  0  0  0  0  0
    0.7361  -50.5456  -19.4604 C   0  0  0  0  0  0  0  0  0  0  0  0
    0.9353  -50.7473  -20.7951 C   0  0  0  0  0  0  0  0  0  0  0  0
   -0.4914  -51.8134  -16.3190 C   0  0  0  0  0  0  0  0  0  0  0  0
   -1.9242  -51.5396  -16.0624 C   0  0  0  0  0  0  0  0  0  0  0  0
   -2.9207  -52.4063  -16.5115 C   0  0  0  0  0  0  0  0  0  0  0  0
   -4.2508  -52.1108  -16.2460 C   0  0  0  0  0  0  0  0  0  0  0  0
   -4.6201  -50.9793  -15.5472 C   0  0  0  0  0  0  0  0  0  0  0  0
   -3.6353  -50.1194  -15.1014 C   0  0  0  0  0  0  0  0  0  0  0  0
   -3.9860  -48.9966  -14.4097 F   0  0  0  0  0  0  0  0  0  0  0  0
   -2.2939  -50.4175  -15.3692 C   0  0  0  0  0  0  0  0  0  0  0  0
    1.8222  -51.1911  -25.1403 O   0  0  0  0  0  0  0  0  0  0  0  0
    4.0208  -51.9457  -24.6793 C   0  0  0  0  0  0  0  0  0  0  0  0
    3.1463  -50.7821  -25.0421 C   0  0  0  0  0  0  0  0  0  0  0  0
    3.3556  -49.5539  -24.2940 C   0  0  0  0  0  0  0  0  0  0  0  0
    2.4727  -49.3107  -23.3940 O   0  0  0  0  0  0  0  0  0  0  0  0
    4.4021  -48.6058  -24.4391 N   0  0  0  0  0  0  0  0  0  0  0  0
    5.4382  -48.7368  -25.4386 C   0  0  0  0  0  0  0  0  0  0  0  0
    4.4565  -47.4993  -23.5097 C   0  0  0  0  0  0  0  0  0  0  0  0
    5.2693  -47.6505  -22.3017 C   0  0  0  0  0  0  0  0  0  0  0  0
    4.7091  -48.2566  -21.1025 C   0  0  0  0  0  0  0  0  0  0  0  0
    3.9518  -47.6972  -20.2824 O   0  0  0  0  0  0  0  0  0  0  0  0
    5.0221  -49.6388  -20.7703 N   0  0  0  0  0  0  0  0  0  0  0  0
    4.4705  -50.2310  -19.5996 C   0  0  0  0  0  0  0  0  0  0  0  0
    5.9014  -50.4072  -21.6338 C   0  0  0  0  0  0  0  0  0  0  0  0
 31 32  1  0  0  0
 32 30  1  0  0  0
 30  1  1  0  0  0
  1  2  2  0  0  0
  2  3  1  0  0  0
  3  4  2  0  0  0
  4  5  1  0  0  0
  5  6  2  0  0  0
  6  7  1  0  0  0
  7  8  2  0  0  0
  8  9  1  0  0  0
  9 11  1  0  0  0
 11 13  1  0  0  0
 13 14  2  0  0  0
 14 15  1  0  0  0
 15 16  2  0  0  0
 16 17  1  0  0  0
 17 22  1  0  0  0
 22 23  1  0  0  0
 23 24  2  0  0  0
 24 25  1  0  0  0
 25 26  2  0  0  0
 26 27  1  0  0  0
 27 28  1  0  0  0
 27 29  2  0  0  0
 17 18  1  0  0  0
 18 19  2  0  0  0
 19 20  1  0  0  0
 20 21  2  0  0  0
  9 10  2  0  0  0
 32 33  1  0  0  0
 33 34  2  0  0  0
 33 35  1  0  0  0
 35 36  1  0  0  0
 35 37  1  0  0  0
 37 38  1  0  0  0
 38 39  1  0  0  0
 39 40  2  0  0  0
 39 41  1  0  0  0
 41 42  1  0  0  0
 41 43  1  0  0  0
 10  1  1  0  0  0
 10  5  1  0  0  0
 21 13  1  0  0  0
 20 16  1  0  0  0
 29 23  1  0  0  0
 11 12  1  0  0  0
M  END
> <minimizedAffinity>
-8.93459

> <CNNscore>
0.4170978665

> <CNNaffinity>
7.5619630814

> <CNN_VS>
3.1540787220

> <CNNaffinity_variance>
0.1709859520

$$$$
[H]c1nc(N([H])c2c([H])c([H])c3c(c([H])nn3C([H])([H])c3c([H])c([H])c([H])c(F)c3[H])c2[H])c2c(O[C@@]([H])(C(=O)N(C([H])([H])[H])C([H])([H])C([H])([H])C(=O)N(C([H])([H])[H])C([H])([H])[H])C([H])([H])[H])c([H])c([H])c([H])c2n1


 43 47  0  0  0  0  0  0  0  0999 V2000
    0.8028  -51.5784  -24.3885 C   0  0  0  0  0  0  0  0  0  0  0  0
    0.6062  -51.2756  -25.7147 C   0  0  0  0  0  0  0  0  0  0  0  0
   -0.1573  -52.0299  -26.5654 C   0  0  0  0  0  0  0  0  0  0  0  0
   -0.7781  -53.1605  -26.1033 C   0  0  0  0  0  0  0  0  0  0  0  0
   -0.5885  -53.4836  -24.7562 C   0  0  0  0  0  0  0  0  0  0  0  0
   -1.2348  -54.6016  -24.3151 N   0  0  0  0  0  0  0  0  0  0  0  0
   -1.1120  -54.9572  -23.0316 C   0  0  0  0  0  0  0  0  0  0  0  0
   -0.3763  -54.2446  -22.1916 N   0  0  0  0  0  0  0  0  0  0  0  0
    0.2949  -53.1186  -22.5708 C   0  0  0  0  0  0  0  0  0  0  0  0
    0.1794  -52.7312  -23.8926 C   0  0  0  0  0  0  0  0  0  0  0  0
    1.1386  -52.4812  -21.6473 N   0  0  0  0  0  0  0  0  0  0  0  0
    2.0850  -52.1760  -21.8338 H   0  0  0  0  0  0  0  0  0  0  0  0
    0.6856  -52.2554  -20.2908 C   0  0  0  0  0  0  0  0  0  0  0  0
   -0.3058  -52.9281  -19.6687 C   0  0  0  0  0  0  0  0  0  0  0  0
   -0.6483  -52.6571  -18.3510 C   0  0  0  0  0  0  0  0  0  0  0  0
    0.0268  -51.6836  -17.6481 C   0  0  0  0  0  0  0  0  0  0  0  0
   -0.0958  -51.2179  -16.3742 N   0  0  0  0  0  0  0  0  0  0  0  0
    0.8054  -50.2740  -16.2171 N   0  0  0  0  0  0  0  0  0  0  0  0
    1.5202  -50.0876  -17.3182 C   0  0  0  0  0  0  0  0  0  0  0  0
    1.0377  -50.9836  -18.2546 C   0  0  0  0  0  0  0  0  0  0  0  0
    1.3520  -51.2728  -19.5505 C   0  0  0  0  0  0  0  0  0  0  0  0
   -1.0224  -51.6590  -15.3768 C   0  0  0  0  0  0  0  0  0  0  0  0
   -2.2702  -50.8643  -15.3054 C   0  0  0  0  0  0  0  0  0  0  0  0
   -3.5233  -51.4719  -15.3846 C   0  0  0  0  0  0  0  0  0  0  0  0
   -4.6664  -50.6876  -15.3108 C   0  0  0  0  0  0  0  0  0  0  0  0
   -4.6011  -49.3172  -15.1605 C   0  0  0  0  0  0  0  0  0  0  0  0
   -3.3614  -48.7130  -15.0818 C   0  0  0  0  0  0  0  0  0  0  0  0
   -3.2817  -47.3589  -14.9337 F   0  0  0  0  0  0  0  0  0  0  0  0
   -2.2086  -49.5040  -15.1562 C   0  0  0  0  0  0  0  0  0  0  0  0
    1.5663  -50.7890  -23.5888 O   0  0  0  0  0  0  0  0  0  0  0  0
    3.9223  -50.7746  -23.8438 C   0  0  0  0  0  0  0  0  0  0  0  0
    2.6549  -49.9725  -23.8688 C   0  0  0  0  0  0  0  0  0  0  0  0
    2.6728  -48.7069  -23.1545 C   0  0  0  0  0  0  0  0  0  0  0  0
    2.0941  -48.7235  -22.0084 O   0  0  0  0  0  0  0  0  0  0  0  0
    3.2431  -47.4743  -23.5677 N   0  0  0  0  0  0  0  0  0  0  0  0
    3.8891  -47.3065  -24.8498 C   0  0  0  0  0  0  0  0  0  0  0  0
    3.2212  -46.3654  -22.6399 C   0  0  0  0  0  0  0  0  0  0  0  0
    4.4377  -46.0768  -21.8786 C   0  0  0  0  0  0  0  0  0  0  0  0
    5.1850  -47.1509  -21.2404 C   0  0  0  0  0  0  0  0  0  0  0  0
    6.1642  -47.7537  -21.7270 O   0  0  0  0  0  0  0  0  0  0  0  0
    4.8066  -47.6130  -19.9130 N   0  0  0  0  0  0  0  0  0  0  0  0
    5.5406  -48.6605  -19.2889 C   0  0  0  0  0  0  0  0  0  0  0  0
    3.6767  -47.0055  -19.2322 C   0  0  0  0  0  0  0  0  0  0  0  0
 31 32  1  0  0  0
 32 30  1  0  0  0
 30  1  1  0  0  0
  1  2  2  0  0  0
  2  3  1  0  0  0
  3  4  2  0  0  0
  4  5  1  0  0  0
  5  6  2  0  0  0
  6  7  1  0  0  0
  7  8  2  0  0  0
  8  9  1  0  0  0
  9 11  1  0  0  0
 11 13  1  0  0  0
 13 14  2  0  0  0
 14 15  1  0  0  0
 15 16  2  0  0  0
 16 17  1  0  0  0
 17 22  1  0  0  0
 22 23  1  0  0  0
 23 24  2  0  0  0
 24 25  1  0  0  0
 25 26  2  0  0  0
 26 27  1  0  0  0
 27 28  1  0  0  0
 27 29  2  0  0  0
 17 18  1  0  0  0
 18 19  2  0  0  0
 19 20  1  0  0  0
 20 21  2  0  0  0
  9 10  2  0  0  0
 32 33  1  0  0  0
 33 34  2  0  0  0
 33 35  1  0  0  0
 35 36  1  0  0  0
 35 37  1  0  0  0
 37 38  1  0  0  0
 38 39  1  0  0  0
 39 40  2  0  0  0
 39 41  1  0  0  0
 41 42  1  0  0  0
 41 43  1  0  0  0
 10  1  1  0  0  0
 10  5  1  0  0  0
 21 13  1  0  0  0
 20 16  1  0  0  0
 29 23  1  0  0  0
 11 12  1  0  0  0
M  END
> <minimizedAffinity>
-8.38684

> <CNNscore>
0.4025418460

> <CNNaffinity>
7.4745788574

> <CNN_VS>
3.0088307858

> <CNNaffinity_variance>
0.0820970386

$$$$
[H]c1nc(N([H])[H])c(-c2nc3c([H])c([H])c([H])c([H])c3o2)c(N([H])c2c([H])c([H])c(OC([H])([H])c3c([H])c([H])c([H])c([H])c3[H])c(F)c2[H])n1


 35 39  0  0  0  0  0  0  0  0999 V2000
   -1.5295  -55.6180  -23.7822 N   0  0  0  0  0  0  0  0  0  0  0  0
   -1.3467  -54.6525  -22.7670 C   0  0  0  0  0  0  0  0  0  0  0  0
   -1.9298  -54.7285  -21.5634 N   0  0  0  0  0  0  0  0  0  0  0  0
   -1.7462  -53.8034  -20.6098 C   0  0  0  0  0  0  0  0  0  0  0  0
   -0.9440  -52.7858  -20.9150 N   0  0  0  0  0  0  0  0  0  0  0  0
   -0.3080  -52.6246  -22.1116 C   0  0  0  0  0  0  0  0  0  0  0  0
   -0.5019  -53.5676  -23.0698 C   0  0  0  0  0  0  0  0  0  0  0  0
   -0.9414  -56.4658  -23.7813 H   0  0  0  0  0  0  0  0  0  0  0  0
   -2.2756  -55.4089  -24.4989 H   0  0  0  0  0  0  0  0  0  0  0  0
    0.1053  -53.5111  -24.3763 C   0  0  0  0  0  0  0  0  0  0  0  0
   -0.4838  -53.8503  -25.5579 N   0  0  0  0  0  0  0  0  0  0  0  0
    0.3721  -53.6720  -26.5494 C   0  0  0  0  0  0  0  0  0  0  0  0
    0.3757  -53.8308  -27.9280 C   0  0  0  0  0  0  0  0  0  0  0  0
    1.4696  -53.5441  -28.6904 C   0  0  0  0  0  0  0  0  0  0  0  0
    2.6351  -53.0776  -28.1161 C   0  0  0  0  0  0  0  0  0  0  0  0
    2.6567  -52.9116  -26.7508 C   0  0  0  0  0  0  0  0  0  0  0  0
    1.5473  -53.2022  -25.9764 C   0  0  0  0  0  0  0  0  0  0  0  0
    1.2964  -53.1417  -24.7139 O   0  0  0  0  0  0  0  0  0  0  0  0
    0.5473  -51.5221  -22.2766 N   0  0  0  0  0  0  0  0  0  0  0  0
    0.7233  -51.0593  -23.2021 H   0  0  0  0  0  0  0  0  0  0  0  0
    1.2533  -50.9441  -21.1838 C   0  0  0  0  0  0  0  0  0  0  0  0
    2.1440  -51.7657  -20.5071 C   0  0  0  0  0  0  0  0  0  0  0  0
    2.9309  -51.3504  -19.4439 C   0  0  0  0  0  0  0  0  0  0  0  0
    2.8145  -50.0452  -19.0431 C   0  0  0  0  0  0  0  0  0  0  0  0
    1.9284  -49.1714  -19.6946 C   0  0  0  0  0  0  0  0  0  0  0  0
    1.8758  -47.9107  -19.2404 F   0  0  0  0  0  0  0  0  0  0  0  0
    1.1798  -49.6572  -20.7444 C   0  0  0  0  0  0  0  0  0  0  0  0
    3.5710  -49.5777  -17.9956 O   0  0  0  0  0  0  0  0  0  0  0  0
    3.3836  -49.7802  -16.6449 C   0  0  0  0  0  0  0  0  0  0  0  0
    1.9666  -49.6600  -16.2590 C   0  0  0  0  0  0  0  0  0  0  0  0
    1.1845  -50.8127  -16.2088 C   0  0  0  0  0  0  0  0  0  0  0  0
   -0.1432  -50.6997  -15.8313 C   0  0  0  0  0  0  0  0  0  0  0  0
   -0.6323  -49.4485  -15.5214 C   0  0  0  0  0  0  0  0  0  0  0  0
    0.1349  -48.3087  -15.5693 C   0  0  0  0  0  0  0  0  0  0  0  0
    1.4529  -48.4245  -15.9446 C   0  0  0  0  0  0  0  0  0  0  0  0
  1  2  1  0  0  0
  2  3  2  0  0  0
  3  4  1  0  0  0
  4  5  2  0  0  0
  5  6  1  0  0  0
  6 19  1  0  0  0
 19 21  1  0  0  0
 21 22  2  0  0  0
 22 23  1  0  0  0
 23 24  2  0  0  0
 24 28  1  0  0  0
 28 29  1  0  0  0
 29 30  1  0  0  0
 30 31  2  0  0  0
 31 32  1  0  0  0
 32 33  2  0  0  0
 33 34  1  0  0  0
 34 35  2  0  0  0
 24 25  1  0  0  0
 25 26  1  0  0  0
 25 27  2  0  0  0
  6  7  2  0  0  0
  7 10  1  0  0  0
 10 11  2  0  0  0
 11 12  1  0  0  0
 12 13  2  0  0  0
 13 14  1  0  0  0
 14 15  2  0  0  0
 15 16  1  0  0  0
 16 17  2  0  0  0
 17 18  1  0  0  0
  7  2  1  0  0  0
 18 10  1  0  0  0
 27 21  1  0  0  0
 17 12  1  0  0  0
 35 30  1  0  0  0
  1  8  1  0  0  0
  1  9  1  0  0  0
 19 20  1  0  0  0
M  END
> <minimizedAffinity>
-8.38138

> <CNNscore>
0.7761101127

> <CNNaffinity>
7.3197412491

> <CNN_VS>
5.6809253693

> <CNNaffinity_variance>
0.1867827028

$$$$
[H]c1nc(N([H])[H])c(-c2nc3c([H])c([H])c([H])c([H])c3o2)c(N([H])c2c([H])c([H])c(OC([H])([H])c3c([H])c([H])c([H])c([H])c3[H])c(F)c2[H])n1


 35 39  0  0  0  0  0  0  0  0999 V2000
   -1.7708  -55.5216  -23.7069 N   0  0  0  0  0  0  0  0  0  0  0  0
   -1.1803  -54.6384  -22.7756 C   0  0  0  0  0  0  0  0  0  0  0  0
   -1.2592  -54.8050  -21.4487 N   0  0  0  0  0  0  0  0  0  0  0  0
   -0.6929  -53.9572  -20.5773 C   0  0  0  0  0  0  0  0  0  0  0  0
   -0.0356  -52.9224  -21.0959 N   0  0  0  0  0  0  0  0  0  0  0  0
    0.0978  -52.6715  -22.4306 C   0  0  0  0  0  0  0  0  0  0  0  0
   -0.4804  -53.5368  -23.3037 C   0  0  0  0  0  0  0  0  0  0  0  0
   -1.2562  -56.3694  -23.9918 H   0  0  0  0  0  0  0  0  0  0  0  0
   -2.7273  -55.2546  -24.0645 H   0  0  0  0  0  0  0  0  0  0  0  0
   -0.4193  -53.3817  -24.7358 C   0  0  0  0  0  0  0  0  0  0  0  0
    0.6424  -53.6788  -25.5376 N   0  0  0  0  0  0  0  0  0  0  0  0
    0.3393  -53.4092  -26.7957 C   0  0  0  0  0  0  0  0  0  0  0  0
    0.9670  -53.4904  -28.0307 C   0  0  0  0  0  0  0  0  0  0  0  0
    0.3486  -53.1156  -29.1870 C   0  0  0  0  0  0  0  0  0  0  0  0
   -0.9449  -52.6333  -29.1785 C   0  0  0  0  0  0  0  0  0  0  0  0
   -1.5889  -52.5433  -27.9664 C   0  0  0  0  0  0  0  0  0  0  0  0
   -0.9622  -52.9233  -26.7926 C   0  0  0  0  0  0  0  0  0  0  0  0
   -1.3181  -52.9441  -25.5543 O   0  0  0  0  0  0  0  0  0  0  0  0
    0.8608  -51.5631  -22.8348 N   0  0  0  0  0  0  0  0  0  0  0  0
    0.9446  -51.2509  -23.8334 H   0  0  0  0  0  0  0  0  0  0  0  0
    1.5922  -50.7706  -21.9053 C   0  0  0  0  0  0  0  0  0  0  0  0
    1.0323  -49.5540  -21.5408 C   0  0  0  0  0  0  0  0  0  0  0  0
    1.5991  -48.6804  -20.6255 C   0  0  0  0  0  0  0  0  0  0  0  0
    2.7867  -49.0500  -20.0504 C   0  0  0  0  0  0  0  0  0  0  0  0
    3.3953  -50.2713  -20.3838 C   0  0  0  0  0  0  0  0  0  0  0  0
    4.5556  -50.5570  -19.7751 F   0  0  0  0  0  0  0  0  0  0  0  0
    2.7710  -51.0875  -21.3018 C   0  0  0  0  0  0  0  0  0  0  0  0
    3.3935  -48.2242  -19.1351 O   0  0  0  0  0  0  0  0  0  0  0  0
    2.9310  -47.8285  -17.8981 C   0  0  0  0  0  0  0  0  0  0  0  0
    2.4285  -48.9649  -17.1060 C   0  0  0  0  0  0  0  0  0  0  0  0
    3.3480  -49.8294  -16.5143 C   0  0  0  0  0  0  0  0  0  0  0  0
    2.8739  -50.8882  -15.7578 C   0  0  0  0  0  0  0  0  0  0  0  0
    1.5102  -51.0393  -15.6239 C   0  0  0  0  0  0  0  0  0  0  0  0
    0.5993  -50.1894  -16.2054 C   0  0  0  0  0  0  0  0  0  0  0  0
    1.0734  -49.1391  -16.9560 C   0  0  0  0  0  0  0  0  0  0  0  0
  1  2  1  0  0  0
  2  3  2  0  0  0
  3  4  1  0  0  0
  4  5  2  0  0  0
  5  6  1  0  0  0
  6 19  1  0  0  0
 19 21  1  0  0  0
 21 22  2  0  0  0
 22 23  1  0  0  0
 23 24  2  0  0  0
 24 28  1  0  0  0
 28 29  1  0  0  0
 29 30  1  0  0  0
 30 31  2  0  0  0
 31 32  1  0  0  0
 32 33  2  0  0  0
 33 34  1  0  0  0
 34 35  2  0  0  0
 24 25  1  0  0  0
 25 26  1  0  0  0
 25 27  2  0  0  0
  6  7  2  0  0  0
  7 10  1  0  0  0
 10 11  2  0  0  0
 11 12  1  0  0  0
 12 13  2  0  0  0
 13 14  1  0  0  0
 14 15  2  0  0  0
 15 16  1  0  0  0
 16 17  2  0  0  0
 17 18  1  0  0  0
  7  2  1  0  0  0
 18 10  1  0  0  0
 27 21  1  0  0  0
 17 12  1  0  0  0
 35 30  1  0  0  0
  1  8  1  0  0  0
  1  9  1  0  0  0
 19 20  1  0  0  0
M  END
> <minimizedAffinity>
-8.96771

> <CNNscore>
0.7725506425

> <CNNaffinity>
7.4186716080

> <CNN_VS>
5.7312994003

> <CNNaffinity_variance>
0.2000394315

$$$$
[H]c1nc(N([H])[H])c(-c2nc3c([H])c([H])c([H])c([H])c3o2)c(N([H])c2c([H])c([H])c(OC([H])([H])c3c([H])c([H])c([H])c([H])c3[H])c(F)c2[H])n1


 35 39  0  0  0  0  0  0  0  0999 V2000
   -1.5809  -55.5369  -23.6808 N   0  0  0  0  0  0  0  0  0  0  0  0
   -1.3501  -54.5725  -22.6744 C   0  0  0  0  0  0  0  0  0  0  0  0
   -1.8975  -54.6353  -21.4534 N   0  0  0  0  0  0  0  0  0  0  0  0
   -1.6685  -53.7114  -20.5085 C   0  0  0  0  0  0  0  0  0  0  0  0
   -0.8581  -52.7091  -20.8409 N   0  0  0  0  0  0  0  0  0  0  0  0
   -0.2562  -52.5619  -22.0567 C   0  0  0  0  0  0  0  0  0  0  0  0
   -0.4959  -53.5036  -23.0059 C   0  0  0  0  0  0  0  0  0  0  0  0
   -1.0083  -56.3951  -23.6955 H   0  0  0  0  0  0  0  0  0  0  0  0
   -2.3448  -55.3162  -24.3750 H   0  0  0  0  0  0  0  0  0  0  0  0
    0.0721  -53.4608  -24.3305 C   0  0  0  0  0  0  0  0  0  0  0  0
    1.3400  -53.0801  -24.6555 N   0  0  0  0  0  0  0  0  0  0  0  0
    1.5091  -53.1664  -25.9637 C   0  0  0  0  0  0  0  0  0  0  0  0
    2.5305  -52.9298  -26.8729 C   0  0  0  0  0  0  0  0  0  0  0  0
    2.3717  -53.1271  -28.2130 C   0  0  0  0  0  0  0  0  0  0  0  0
    1.1728  -53.5765  -28.7292 C   0  0  0  0  0  0  0  0  0  0  0  0
    0.1445  -53.8183  -27.8482 C   0  0  0  0  0  0  0  0  0  0  0  0
    0.3047  -53.6184  -26.4883 C   0  0  0  0  0  0  0  0  0  0  0  0
   -0.4666  -53.7606  -25.4659 O   0  0  0  0  0  0  0  0  0  0  0  0
    0.6131  -51.4753  -22.2509 N   0  0  0  0  0  0  0  0  0  0  0  0
    0.8283  -51.0671  -23.1937 H   0  0  0  0  0  0  0  0  0  0  0  0
    1.2808  -50.8393  -21.1662 C   0  0  0  0  0  0  0  0  0  0  0  0
    0.8825  -49.5467  -20.8550 C   0  0  0  0  0  0  0  0  0  0  0  0
    1.4079  -48.8013  -19.8108 C   0  0  0  0  0  0  0  0  0  0  0  0
    2.3815  -49.3858  -19.0439 C   0  0  0  0  0  0  0  0  0  0  0  0
    2.8203  -50.6922  -19.3157 C   0  0  0  0  0  0  0  0  0  0  0  0
    3.7756  -51.1898  -18.5169 F   0  0  0  0  0  0  0  0  0  0  0  0
    2.2497  -51.3709  -20.3704 C   0  0  0  0  0  0  0  0  0  0  0  0
    2.9373  -48.6946  -17.9945 O   0  0  0  0  0  0  0  0  0  0  0  0
    2.3812  -48.4076  -16.7661 C   0  0  0  0  0  0  0  0  0  0  0  0
    2.3286  -49.5930  -15.8924 C   0  0  0  0  0  0  0  0  0  0  0  0
    3.4838  -49.9792  -15.2148 C   0  0  0  0  0  0  0  0  0  0  0  0
    3.4285  -51.0847  -14.3823 C   0  0  0  0  0  0  0  0  0  0  0  0
    2.2297  -51.7548  -14.2614 C   0  0  0  0  0  0  0  0  0  0  0  0
    1.0876  -51.3778  -14.9274 C   0  0  0  0  0  0  0  0  0  0  0  0
    1.1461  -50.2797  -15.7532 C   0  0  0  0  0  0  0  0  0  0  0  0
  1  2  1  0  0  0
  2  3  2  0  0  0
  3  4  1  0  0  0
  4  5  2  0  0  0
  5  6  1  0  0  0
  6 19  1  0  0  0
 19 21  1  0  0  0
 21 22  2  0  0  0
 22 23  1  0  0  0
 23 24  2  0  0  0
 24 28  1  0  0  0
 28 29  1  0  0  0
 29 30  1  0  0  0
 30 31  2  0  0  0
 31 32  1  0  0  0
 32 33  2  0  0  0
 33 34  1  0  0  0
 34 35  2  0  0  0
 24 25  1  0  0  0
 25 26  1  0  0  0
 25 27  2  0  0  0
  6  7  2  0  0  0
  7 10  1  0  0  0
 10 11  2  0  0  0
 11 12  1  0  0  0
 12 13  2  0  0  0
 13 14  1  0  0  0
 14 15  2  0  0  0
 15 16  1  0  0  0
 16 17  2  0  0  0
 17 18  1  0  0  0
  7  2  1  0  0  0
 18 10  1  0  0  0
 27 21  1  0  0  0
 17 12  1  0  0  0
 35 30  1  0  0  0
  1  8  1  0  0  0
  1  9  1  0  0  0
 19 20  1  0  0  0
M  END
> <minimizedAffinity>
-8.53247

> <CNNscore>
0.7655693293

> <CNNaffinity>
7.2693033218

> <CNN_VS>
5.5651555061

> <CNNaffinity_variance>
0.2885151207

$$$$
[H]c1nc(N([H])[H])c(-c2nc3c([H])c([H])c([H])c([H])c3o2)c(N([H])c2c([H])c([H])c(OC([H])([H])c3c([H])c([H])c([H])c([H])c3[H])c(F)c2[H])n1


 35 39  0  0  0  0  0  0  0  0999 V2000
   -1.7027  -55.4842  -23.7409 N   0  0  0  0  0  0  0  0  0  0  0  0
   -1.1318  -54.5841  -22.8136 C   0  0  0  0  0  0  0  0  0  0  0  0
   -1.1975  -54.7523  -21.4862 N   0  0  0  0  0  0  0  0  0  0  0  0
   -0.6502  -53.8883  -20.6186 C   0  0  0  0  0  0  0  0  0  0  0  0
   -0.0259  -52.8353  -21.1416 N   0  0  0  0  0  0  0  0  0  0  0  0
    0.0917  -52.5814  -22.4773 C   0  0  0  0  0  0  0  0  0  0  0  0
   -0.4669  -53.4631  -23.3464 C   0  0  0  0  0  0  0  0  0  0  0  0
   -1.1659  -56.3171  -24.0289 H   0  0  0  0  0  0  0  0  0  0  0  0
   -2.6687  -55.2448  -24.0925 H   0  0  0  0  0  0  0  0  0  0  0  0
   -0.4194  -53.3070  -24.7790 C   0  0  0  0  0  0  0  0  0  0  0  0
    0.6405  -53.5878  -25.5890 N   0  0  0  0  0  0  0  0  0  0  0  0
    0.3235  -53.3228  -26.8447 C   0  0  0  0  0  0  0  0  0  0  0  0
    0.9428  -53.3942  -28.0845 C   0  0  0  0  0  0  0  0  0  0  0  0
    0.3097  -53.0289  -29.2359 C   0  0  0  0  0  0  0  0  0  0  0  0
   -0.9909  -52.5664  -29.2173 C   0  0  0  0  0  0  0  0  0  0  0  0
   -1.6267  -52.4864  -28.0002 C   0  0  0  0  0  0  0  0  0  0  0  0
   -0.9852  -52.8568  -26.8313 C   0  0  0  0  0  0  0  0  0  0  0  0
   -1.3311  -52.8832  -25.5903 O   0  0  0  0  0  0  0  0  0  0  0  0
    0.8202  -51.4518  -22.8865 N   0  0  0  0  0  0  0  0  0  0  0  0
    0.8404  -51.1032  -23.8764 H   0  0  0  0  0  0  0  0  0  0  0  0
    1.6012  -50.6861  -21.9751 C   0  0  0  0  0  0  0  0  0  0  0  0
    0.9525  -49.6618  -21.2995 C   0  0  0  0  0  0  0  0  0  0  0  0
    1.5591  -48.8456  -20.3572 C   0  0  0  0  0  0  0  0  0  0  0  0
    2.8825  -49.0717  -20.0830 C   0  0  0  0  0  0  0  0  0  0  0  0
    3.5856  -50.0962  -20.7382 C   0  0  0  0  0  0  0  0  0  0  0  0
    4.8769  -50.2509  -20.4113 F   0  0  0  0  0  0  0  0  0  0  0  0
    2.9141  -50.8669  -21.6622 C   0  0  0  0  0  0  0  0  0  0  0  0
    3.5351  -48.2945  -19.1567 O   0  0  0  0  0  0  0  0  0  0  0  0
    3.1033  -47.9058  -17.9065 C   0  0  0  0  0  0  0  0  0  0  0  0
    4.1769  -47.2683  -17.1241 C   0  0  0  0  0  0  0  0  0  0  0  0
    4.0249  -47.1557  -15.7431 C   0  0  0  0  0  0  0  0  0  0  0  0
    5.0416  -46.5697  -15.0076 C   0  0  0  0  0  0  0  0  0  0  0  0
    6.1611  -46.1232  -15.6768 C   0  0  0  0  0  0  0  0  0  0  0  0
    6.3159  -46.2319  -17.0386 C   0  0  0  0  0  0  0  0  0  0  0  0
    5.3043  -46.8143  -17.7658 C   0  0  0  0  0  0  0  0  0  0  0  0
  1  2  1  0  0  0
  2  3  2  0  0  0
  3  4  1  0  0  0
  4  5  2  0  0  0
  5  6  1  0  0  0
  6 19  1  0  0  0
 19 21  1  0  0  0
 21 22  2  0  0  0
 22 23  1  0  0  0
 23 24  2  0  0  0
 24 28  1  0  0  0
 28 29  1  0  0  0
 29 30  1  0  0  0
 30 31  2  0  0  0
 31 32  1  0  0  0
 32 33  2  0  0  0
 33 34  1  0  0  0
 34 35  2  0  0  0
 24 25  1  0  0  0
 25 26  1  0  0  0
 25 27  2  0  0  0
  6  7  2  0  0  0
  7 10  1  0  0  0
 10 11  2  0  0  0
 11 12  1  0  0  0
 12 13  2  0  0  0
 13 14  1  0  0  0
 14 15  2  0  0  0
 15 16  1  0  0  0
 16 17  2  0  0  0
 17 18  1  0  0  0
  7  2  1  0  0  0
 18 10  1  0  0  0
 27 21  1  0  0  0
 17 12  1  0  0  0
 35 30  1  0  0  0
  1  8  1  0  0  0
  1  9  1  0  0  0
 19 20  1  0  0  0
M  END
> <minimizedAffinity>
-8.43362

> <CNNscore>
0.6973994374

> <CNNaffinity>
7.1343641281

> <CNN_VS>
4.9755015373

> <CNNaffinity_variance>
0.3405376077

$$$$
[H]c1nc(N([H])[H])c(-c2nc3c([H])c([H])c([H])c([H])c3o2)c(N([H])c2c([H])c([H])c(OC([H])([H])c3c([H])c([H])c([H])c([H])c3[H])c(F)c2[H])n1


 35 39  0  0  0  0  0  0  0  0999 V2000
   -1.4102  -55.7360  -23.8322 N   0  0  0  0  0  0  0  0  0  0  0  0
   -1.0471  -54.7303  -22.9088 C   0  0  0  0  0  0  0  0  0  0  0  0
   -1.1680  -54.8690  -21.5819 N   0  0  0  0  0  0  0  0  0  0  0  0
   -0.8187  -53.9043  -20.7180 C   0  0  0  0  0  0  0  0  0  0  0  0
   -0.3369  -52.7805  -21.2443 N   0  0  0  0  0  0  0  0  0  0  0  0
   -0.1779  -52.5492  -22.5797 C   0  0  0  0  0  0  0  0  0  0  0  0
   -0.5355  -53.5332  -23.4451 C   0  0  0  0  0  0  0  0  0  0  0  0
   -0.7321  -56.4804  -24.0573 H   0  0  0  0  0  0  0  0  0  0  0  0
   -2.3782  -55.6640  -24.2470 H   0  0  0  0  0  0  0  0  0  0  0  0
   -0.4242  -53.4123  -24.8776 C   0  0  0  0  0  0  0  0  0  0  0  0
   -1.3348  -52.8391  -25.7146 N   0  0  0  0  0  0  0  0  0  0  0  0
   -0.8993  -52.9085  -26.9608 C   0  0  0  0  0  0  0  0  0  0  0  0
   -1.3478  -52.5214  -28.2157 C   0  0  0  0  0  0  0  0  0  0  0  0
   -0.6258  -52.7523  -29.3494 C   0  0  0  0  0  0  0  0  0  0  0  0
    0.5979  -53.3892  -29.2967 C   0  0  0  0  0  0  0  0  0  0  0  0
    1.0645  -53.7828  -28.0640 C   0  0  0  0  0  0  0  0  0  0  0  0
    0.3326  -53.5489  -26.9131 C   0  0  0  0  0  0  0  0  0  0  0  0
    0.5234  -53.8026  -25.6642 O   0  0  0  0  0  0  0  0  0  0  0  0
    0.3874  -51.3299  -22.9895 N   0  0  0  0  0  0  0  0  0  0  0  0
   -0.0722  -50.6793  -23.6730 H   0  0  0  0  0  0  0  0  0  0  0  0
    1.6480  -50.8810  -22.5034 C   0  0  0  0  0  0  0  0  0  0  0  0
    1.7485  -49.5385  -22.1657 C   0  0  0  0  0  0  0  0  0  0  0  0
    2.8927  -48.9502  -21.6491 C   0  0  0  0  0  0  0  0  0  0  0  0
    3.9880  -49.7527  -21.4646 C   0  0  0  0  0  0  0  0  0  0  0  0
    3.9392  -51.1184  -21.7894 C   0  0  0  0  0  0  0  0  0  0  0  0
    5.0542  -51.8327  -21.5776 F   0  0  0  0  0  0  0  0  0  0  0  0
    2.7656  -51.6312  -22.2978 C   0  0  0  0  0  0  0  0  0  0  0  0
    5.1491  -49.2241  -20.9542 O   0  0  0  0  0  0  0  0  0  0  0  0
    5.5875  -49.2199  -19.6472 C   0  0  0  0  0  0  0  0  0  0  0  0
    4.4728  -49.1063  -18.6902 C   0  0  0  0  0  0  0  0  0  0  0  0
    3.8998  -50.2725  -18.1857 C   0  0  0  0  0  0  0  0  0  0  0  0
    2.8621  -50.1636  -17.2749 C   0  0  0  0  0  0  0  0  0  0  0  0
    2.4421  -48.9029  -16.9076 C   0  0  0  0  0  0  0  0  0  0  0  0
    3.0040  -47.7498  -17.4022 C   0  0  0  0  0  0  0  0  0  0  0  0
    4.0341  -47.8616  -18.3064 C   0  0  0  0  0  0  0  0  0  0  0  0
  1  2  1  0  0  0
  2  3  2  0  0  0
  3  4  1  0  0  0
  4  5  2  0  0  0
  5  6  1  0  0  0
  6 19  1  0  0  0
 19 21  1  0  0  0
 21 22  2  0  0  0
 22 23  1  0  0  0
 23 24  2  0  0  0
 24 28  1  0  0  0
 28 29  1  0  0  0
 29 30  1  0  0  0
 30 31  2  0  0  0
 31 32  1  0  0  0
 32 33  2  0  0  0
 33 34  1  0  0  0
 34 35  2  0  0  0
 24 25  1  0  0  0
 25 26  1  0  0  0
 25 27  2  0  0  0
  6  7  2  0  0  0
  7 10  1  0  0  0
 10 11  2  0  0  0
 11 12  1  0  0  0
 12 13  2  0  0  0
 13 14  1  0  0  0
 14 15  2  0  0  0
 15 16  1  0  0  0
 16 17  2  0  0  0
 17 18  1  0  0  0
  7  2  1  0  0  0
 18 10  1  0  0  0
 27 21  1  0  0  0
 17 12  1  0  0  0
 35 30  1  0  0  0
  1  8  1  0  0  0
  1  9  1  0  0  0
 19 20  1  0  0  0
M  END
> <minimizedAffinity>
-8.65652

> <CNNscore>
0.6193655729

> <CNNaffinity>
7.2541184425

> <CNN_VS>
4.4929513931

> <CNNaffinity_variance>
0.2667142451

$$$$
[H]c1nc(N([H])[H])c(-c2nc3c([H])c([H])c([H])c([H])c3o2)c(N([H])c2c([H])c([H])c(OC([H])([H])c3c([H])c([H])c([H])c([H])c3[H])c(F)c2[H])n1


 35 39  0  0  0  0  0  0  0  0999 V2000
   -1.4137  -55.5401  -23.2920 N   0  0  0  0  0  0  0  0  0  0  0  0
   -1.2224  -54.5140  -22.3399 C   0  0  0  0  0  0  0  0  0  0  0  0
   -1.6756  -54.5820  -21.0811 N   0  0  0  0  0  0  0  0  0  0  0  0
   -1.4857  -53.5988  -20.1888 C   0  0  0  0  0  0  0  0  0  0  0  0
   -0.8145  -52.5310  -20.6143 N   0  0  0  0  0  0  0  0  0  0  0  0
   -0.3161  -52.3731  -21.8748 C   0  0  0  0  0  0  0  0  0  0  0  0
   -0.5149  -53.3752  -22.7700 C   0  0  0  0  0  0  0  0  0  0  0  0
   -0.7527  -56.3321  -23.3172 H   0  0  0  0  0  0  0  0  0  0  0  0
   -2.2425  -55.4326  -23.9368 H   0  0  0  0  0  0  0  0  0  0  0  0
   -0.0462  -53.3294  -24.1328 C   0  0  0  0  0  0  0  0  0  0  0  0
   -0.8035  -53.4892  -25.2550 N   0  0  0  0  0  0  0  0  0  0  0  0
   -0.0378  -53.3847  -26.3274 C   0  0  0  0  0  0  0  0  0  0  0  0
   -0.2042  -53.4490  -27.7036 C   0  0  0  0  0  0  0  0  0  0  0  0
    0.8368  -53.2916  -28.5704 C   0  0  0  0  0  0  0  0  0  0  0  0
    2.1173  -53.0586  -28.1102 C   0  0  0  0  0  0  0  0  0  0  0  0
    2.3084  -52.9904  -26.7497 C   0  0  0  0  0  0  0  0  0  0  0  0
    1.2527  -53.1500  -25.8694 C   0  0  0  0  0  0  0  0  0  0  0  0
    1.1483  -53.1349  -24.5851 O   0  0  0  0  0  0  0  0  0  0  0  0
    0.4137  -51.2092  -22.1698 N   0  0  0  0  0  0  0  0  0  0  0  0
    0.2503  -50.6249  -23.0263 H   0  0  0  0  0  0  0  0  0  0  0  0
    1.4485  -50.7306  -21.3173 C   0  0  0  0  0  0  0  0  0  0  0  0
    2.6299  -51.4586  -21.2945 C   0  0  0  0  0  0  0  0  0  0  0  0
    3.7431  -51.1110  -20.5447 C   0  0  0  0  0  0  0  0  0  0  0  0
    3.6618  -49.9762  -19.7810 C   0  0  0  0  0  0  0  0  0  0  0  0
    2.4894  -49.2027  -19.7687 C   0  0  0  0  0  0  0  0  0  0  0  0
    2.4933  -48.1073  -18.9951 F   0  0  0  0  0  0  0  0  0  0  0  0
    1.4242  -49.6118  -20.5412 C   0  0  0  0  0  0  0  0  0  0  0  0
    4.7351  -49.5824  -19.0188 O   0  0  0  0  0  0  0  0  0  0  0  0
    5.6251  -48.5567  -19.2560 C   0  0  0  0  0  0  0  0  0  0  0  0
    5.6328  -48.1473  -20.6715 C   0  0  0  0  0  0  0  0  0  0  0  0
    4.9999  -46.9581  -21.0297 C   0  0  0  0  0  0  0  0  0  0  0  0
    5.0212  -46.5674  -22.3582 C   0  0  0  0  0  0  0  0  0  0  0  0
    5.6692  -47.3748  -23.2686 C   0  0  0  0  0  0  0  0  0  0  0  0
    6.2949  -48.5484  -22.9203 C   0  0  0  0  0  0  0  0  0  0  0  0
    6.2719  -48.9334  -21.6002 C   0  0  0  0  0  0  0  0  0  0  0  0
  1  2  1  0  0  0
  2  3  2  0  0  0
  3  4  1  0  0  0
  4  5  2  0  0  0
  5  6  1  0  0  0
  6 19  1  0  0  0
 19 21  1  0  0  0
 21 22  2  0  0  0
 22 23  1  0  0  0
 23 24  2  0  0  0
 24 28  1  0  0  0
 28 29  1  0  0  0
 29 30  1  0  0  0
 30 31  2  0  0  0
 31 32  1  0  0  0
 32 33  2  0  0  0
 33 34  1  0  0  0
 34 35  2  0  0  0
 24 25  1  0  0  0
 25 26  1  0  0  0
 25 27  2  0  0  0
  6  7  2  0  0  0
  7 10  1  0  0  0
 10 11  2  0  0  0
 11 12  1  0  0  0
 12 13  2  0  0  0
 13 14  1  0  0  0
 14 15  2  0  0  0
 15 16  1  0  0  0
 16 17  2  0  0  0
 17 18  1  0  0  0
  7  2  1  0  0  0
 18 10  1  0  0  0
 27 21  1  0  0  0
 17 12  1  0  0  0
 35 30  1  0  0  0
  1  8  1  0  0  0
  1  9  1  0  0  0
 19 20  1  0  0  0
M  END
> <minimizedAffinity>
-7.90067

> <CNNscore>
0.5924101472

> <CNNaffinity>
7.1755728722

> <CNN_VS>
4.2508821487

> <CNNaffinity_variance>
0.3255830705

$$$$
[H]c1nc(N([H])[H])c(-c2nc3c([H])c([H])c([H])c([H])c3o2)c(N([H])c2c([H])c([H])c(OC([H])([H])c3c([H])c([H])c([H])c([H])c3[H])c(F)c2[H])n1


 35 39  0  0  0  0  0  0  0  0999 V2000
   -0.3198  -52.8293  -25.4368 N   0  0  0  0  0  0  0  0  0  0  0  0
   -0.5144  -53.5308  -24.2261 C   0  0  0  0  0  0  0  0  0  0  0  0
   -1.4795  -54.4429  -24.0490 N   0  0  0  0  0  0  0  0  0  0  0  0
   -1.6512  -55.1006  -22.8929 C   0  0  0  0  0  0  0  0  0  0  0  0
   -0.8057  -54.8039  -21.9085 N   0  0  0  0  0  0  0  0  0  0  0  0
    0.2055  -53.8917  -21.9962 C   0  0  0  0  0  0  0  0  0  0  0  0
    0.3695  -53.2314  -23.1718 C   0  0  0  0  0  0  0  0  0  0  0  0
    0.2415  -53.2644  -26.1854 H   0  0  0  0  0  0  0  0  0  0  0  0
   -0.7719  -51.8779  -25.5050 H   0  0  0  0  0  0  0  0  0  0  0  0
    1.3933  -52.2402  -23.3917 C   0  0  0  0  0  0  0  0  0  0  0  0
    1.3530  -50.9347  -23.0014 N   0  0  0  0  0  0  0  0  0  0  0  0
    2.4653  -50.3245  -23.3728 C   0  0  0  0  0  0  0  0  0  0  0  0
    3.0048  -49.0497  -23.2752 C   0  0  0  0  0  0  0  0  0  0  0  0
    4.2299  -48.7372  -23.7863 C   0  0  0  0  0  0  0  0  0  0  0  0
    4.9958  -49.6878  -24.4311 C   0  0  0  0  0  0  0  0  0  0  0  0
    4.4829  -50.9594  -24.5409 C   0  0  0  0  0  0  0  0  0  0  0  0
    3.2399  -51.2774  -24.0225 C   0  0  0  0  0  0  0  0  0  0  0  0
    2.5357  -52.3558  -23.9839 O   0  0  0  0  0  0  0  0  0  0  0  0
    1.0510  -53.7148  -20.8880 N   0  0  0  0  0  0  0  0  0  0  0  0
    1.9344  -54.2621  -20.7405 H   0  0  0  0  0  0  0  0  0  0  0  0
    0.7655  -52.7676  -19.8642 C   0  0  0  0  0  0  0  0  0  0  0  0
   -0.3527  -53.0104  -19.0786 C   0  0  0  0  0  0  0  0  0  0  0  0
   -0.7504  -52.2054  -18.0222 C   0  0  0  0  0  0  0  0  0  0  0  0
    0.0145  -51.1029  -17.7445 C   0  0  0  0  0  0  0  0  0  0  0  0
    1.1568  -50.8119  -18.5085 C   0  0  0  0  0  0  0  0  0  0  0  0
    1.8496  -49.7147  -18.1700 F   0  0  0  0  0  0  0  0  0  0  0  0
    1.4892  -51.6598  -19.5425 C   0  0  0  0  0  0  0  0  0  0  0  0
   -0.3311  -50.2700  -16.7079 O   0  0  0  0  0  0  0  0  0  0  0  0
   -0.8216  -50.6066  -15.4642 C   0  0  0  0  0  0  0  0  0  0  0  0
   -2.2518  -50.2798  -15.3267 C   0  0  0  0  0  0  0  0  0  0  0  0
   -2.6150  -48.9669  -15.0312 C   0  0  0  0  0  0  0  0  0  0  0  0
   -3.9604  -48.6586  -14.9172 C   0  0  0  0  0  0  0  0  0  0  0  0
   -4.8819  -49.6672  -15.1018 C   0  0  0  0  0  0  0  0  0  0  0  0
   -4.5288  -50.9635  -15.3935 C   0  0  0  0  0  0  0  0  0  0  0  0
   -3.1920  -51.2662  -15.5060 C   0  0  0  0  0  0  0  0  0  0  0  0
  1  2  1  0  0  0
  2  3  2  0  0  0
  3  4  1  0  0  0
  4  5  2  0  0  0
  5  6  1  0  0  0
  6 19  1  0  0  0
 19 21  1  0  0  0
 21 22  2  0  0  0
 22 23  1  0  0  0
 23 24  2  0  0  0
 24 28  1  0  0  0
 28 29  1  0  0  0
 29 30  1  0  0  0
 30 31  2  0  0  0
 31 32  1  0  0  0
 32 33  2  0  0  0
 33 34  1  0  0  0
 34 35  2  0  0  0
 24 25  1  0  0  0
 25 26  1  0  0  0
 25 27  2  0  0  0
  6  7  2  0  0  0
  7 10  1  0  0  0
 10 11  2  0  0  0
 11 12  1  0  0  0
 12 13  2  0  0  0
 13 14  1  0  0  0
 14 15  2  0  0  0
 15 16  1  0  0  0
 16 17  2  0  0  0
 17 18  1  0  0  0
  7  2  1  0  0  0
 18 10  1  0  0  0
 27 21  1  0  0  0
 17 12  1  0  0  0
 35 30  1  0  0  0
  1  8  1  0  0  0
  1  9  1  0  0  0
 19 20  1  0  0  0
M  END
> <minimizedAffinity>
-7.62719

> <CNNscore>
0.5117364526

> <CNNaffinity>
6.9817175865

> <CNN_VS>
3.5727994442

> <CNNaffinity_variance>
0.3354827762

$$$$
[H]c1nc(N([H])[H])c(-c2nc3c([H])c([H])c([H])c([H])c3o2)c(N([H])c2c([H])c([H])c(OC([H])([H])c3c([H])c([H])c([H])c([H])c3[H])c(F)c2[H])n1


 35 39  0  0  0  0  0  0  0  0999 V2000
   -1.5506  -55.6796  -23.7485 N   0  0  0  0  0  0  0  0  0  0  0  0
   -1.2234  -54.6666  -22.8197 C   0  0  0  0  0  0  0  0  0  0  0  0
   -1.3709  -54.8048  -21.4953 N   0  0  0  0  0  0  0  0  0  0  0  0
   -1.0556  -53.8332  -20.6262 C   0  0  0  0  0  0  0  0  0  0  0  0
   -0.5801  -52.7030  -21.1443 N   0  0  0  0  0  0  0  0  0  0  0  0
   -0.3957  -52.4716  -22.4765 C   0  0  0  0  0  0  0  0  0  0  0  0
   -0.7190  -53.4627  -23.3473 C   0  0  0  0  0  0  0  0  0  0  0  0
   -0.8562  -56.4137  -23.9573 H   0  0  0  0  0  0  0  0  0  0  0  0
   -2.5103  -55.6235  -24.1844 H   0  0  0  0  0  0  0  0  0  0  0  0
   -0.5785  -53.3427  -24.7773 C   0  0  0  0  0  0  0  0  0  0  0  0
   -1.4645  -52.7561  -25.6312 N   0  0  0  0  0  0  0  0  0  0  0  0
   -1.0062  -52.8311  -26.8688 C   0  0  0  0  0  0  0  0  0  0  0  0
   -1.4249  -52.4369  -28.1318 C   0  0  0  0  0  0  0  0  0  0  0  0
   -0.6847  -52.6776  -29.2516 C   0  0  0  0  0  0  0  0  0  0  0  0
    0.5286  -53.3320  -29.1759 C   0  0  0  0  0  0  0  0  0  0  0  0
    0.9657  -53.7329  -27.9349 C   0  0  0  0  0  0  0  0  0  0  0  0
    0.2152  -53.4892  -26.7981 C   0  0  0  0  0  0  0  0  0  0  0  0
    0.3784  -53.7462  -25.5459 O   0  0  0  0  0  0  0  0  0  0  0  0
    0.1593  -51.2444  -22.8766 N   0  0  0  0  0  0  0  0  0  0  0  0
   -0.4155  -50.4218  -23.1843 H   0  0  0  0  0  0  0  0  0  0  0  0
    1.5655  -51.0231  -22.8985 C   0  0  0  0  0  0  0  0  0  0  0  0
    2.0799  -50.1596  -21.9413 C   0  0  0  0  0  0  0  0  0  0  0  0
    3.4273  -49.8623  -21.8063 C   0  0  0  0  0  0  0  0  0  0  0  0
    4.2978  -50.4631  -22.6776 C   0  0  0  0  0  0  0  0  0  0  0  0
    3.8292  -51.3459  -23.6646 C   0  0  0  0  0  0  0  0  0  0  0  0
    4.7472  -51.8913  -24.4759 F   0  0  0  0  0  0  0  0  0  0  0  0
    2.4755  -51.5927  -23.7362 C   0  0  0  0  0  0  0  0  0  0  0  0
    5.6448  -50.2068  -22.5895 O   0  0  0  0  0  0  0  0  0  0  0  0
    6.2842  -48.9864  -22.5402 C   0  0  0  0  0  0  0  0  0  0  0  0
    6.0505  -48.1899  -23.7577 C   0  0  0  0  0  0  0  0  0  0  0  0
    5.5782  -46.8852  -23.6259 C   0  0  0  0  0  0  0  0  0  0  0  0
    5.3734  -46.1331  -24.7707 C   0  0  0  0  0  0  0  0  0  0  0  0
    5.6469  -46.7109  -25.9921 C   0  0  0  0  0  0  0  0  0  0  0  0
    6.1129  -47.9972  -26.1274 C   0  0  0  0  0  0  0  0  0  0  0  0
    6.3151  -48.7412  -24.9886 C   0  0  0  0  0  0  0  0  0  0  0  0
  1  2  1  0  0  0
  2  3  2  0  0  0
  3  4  1  0  0  0
  4  5  2  0  0  0
  5  6  1  0  0  0
  6 19  1  0  0  0
 19 21  1  0  0  0
 21 22  2  0  0  0
 22 23  1  0  0  0
 23 24  2  0  0  0
 24 28  1  0  0  0
 28 29  1  0  0  0
 29 30  1  0  0  0
 30 31  2  0  0  0
 31 32  1  0  0  0
 32 33  2  0  0  0
 33 34  1  0  0  0
 34 35  2  0  0  0
 24 25  1  0  0  0
 25 26  1  0  0  0
 25 27  2  0  0  0
  6  7  2  0  0  0
  7 10  1  0  0  0
 10 11  2  0  0  0
 11 12  1  0  0  0
 12 13  2  0  0  0
 13 14  1  0  0  0
 14 15  2  0  0  0
 15 16  1  0  0  0
 16 17  2  0  0  0
 17 18  1  0  0  0
  7  2  1  0  0  0
 18 10  1  0  0  0
 27 21  1  0  0  0
 17 12  1  0  0  0
 35 30  1  0  0  0
  1  8  1  0  0  0
  1  9  1  0  0  0
 19 20  1  0  0  0
M  END
> <minimizedAffinity>
-8.20823

> <CNNscore>
0.5101468563

> <CNNaffinity>
7.1205816269

> <CNN_VS>
3.6325423717

> <CNNaffinity_variance>
0.4136368632

$$$$
[H]c1nc(N([H])[H])c(-c2nc3c([H])c([H])c([H])c([H])c3o2)c(N([H])c2c([H])c([H])c(OC([H])([H])c3c([H])c([H])c([H])c([H])c3[H])c(F)c2[H])n1


 35 39  0  0  0  0  0  0  0  0999 V2000
   -0.3905  -52.2041  -25.0601 N   0  0  0  0  0  0  0  0  0  0  0  0
   -0.4852  -53.0908  -23.9642 C   0  0  0  0  0  0  0  0  0  0  0  0
   -1.1639  -54.2450  -24.0059 N   0  0  0  0  0  0  0  0  0  0  0  0
   -1.2443  -55.0763  -22.9565 C   0  0  0  0  0  0  0  0  0  0  0  0
   -0.6087  -54.6995  -21.8492 N   0  0  0  0  0  0  0  0  0  0  0  0
    0.1060  -53.5449  -21.7136 C   0  0  0  0  0  0  0  0  0  0  0  0
    0.1800  -52.7106  -22.7830 C   0  0  0  0  0  0  0  0  0  0  0  0
    0.3354  -52.3648  -25.7756 H   0  0  0  0  0  0  0  0  0  0  0  0
   -1.0858  -51.4102  -25.0820 H   0  0  0  0  0  0  0  0  0  0  0  0
    0.8961  -51.4593  -22.7679 C   0  0  0  0  0  0  0  0  0  0  0  0
    1.8687  -51.0728  -23.6415 N   0  0  0  0  0  0  0  0  0  0  0  0
    2.2994  -49.8645  -23.3220 C   0  0  0  0  0  0  0  0  0  0  0  0
    3.2369  -48.9612  -23.8026 C   0  0  0  0  0  0  0  0  0  0  0  0
    3.4436  -47.7469  -23.2173 C   0  0  0  0  0  0  0  0  0  0  0  0
    2.7199  -47.3591  -22.1074 C   0  0  0  0  0  0  0  0  0  0  0  0
    1.7843  -48.2372  -21.6118 C   0  0  0  0  0  0  0  0  0  0  0  0
    1.5738  -49.4696  -22.2050 C   0  0  0  0  0  0  0  0  0  0  0  0
    0.7860  -50.4589  -21.9579 O   0  0  0  0  0  0  0  0  0  0  0  0
    0.7644  -53.2993  -20.4970 N   0  0  0  0  0  0  0  0  0  0  0  0
    1.7976  -53.4258  -20.3619 H   0  0  0  0  0  0  0  0  0  0  0  0
    0.0674  -52.8573  -19.3370 C   0  0  0  0  0  0  0  0  0  0  0  0
    0.5518  -51.7178  -18.7098 C   0  0  0  0  0  0  0  0  0  0  0  0
   -0.0287  -51.1397  -17.5913 C   0  0  0  0  0  0  0  0  0  0  0  0
   -1.1502  -51.7384  -17.0801 C   0  0  0  0  0  0  0  0  0  0  0  0
   -1.6820  -52.8932  -17.6774 C   0  0  0  0  0  0  0  0  0  0  0  0
   -2.7816  -53.4157  -17.1151 F   0  0  0  0  0  0  0  0  0  0  0  0
   -1.0498  -53.4092  -18.7877 C   0  0  0  0  0  0  0  0  0  0  0  0
   -1.7686  -51.2082  -15.9735 O   0  0  0  0  0  0  0  0  0  0  0  0
   -1.1908  -50.6591  -14.8488 C   0  0  0  0  0  0  0  0  0  0  0  0
   -1.2304  -49.1862  -14.8697 C   0  0  0  0  0  0  0  0  0  0  0  0
   -0.0326  -48.4810  -14.7658 C   0  0  0  0  0  0  0  0  0  0  0  0
   -0.0704  -47.0970  -14.8008 C   0  0  0  0  0  0  0  0  0  0  0  0
   -1.2946  -46.4780  -14.9373 C   0  0  0  0  0  0  0  0  0  0  0  0
   -2.4787  -47.1690  -15.0403 C   0  0  0  0  0  0  0  0  0  0  0  0
   -2.4375  -48.5432  -15.0051 C   0  0  0  0  0  0  0  0  0  0  0  0
  1  2  1  0  0  0
  2  3  2  0  0  0
  3  4  1  0  0  0
  4  5  2  0  0  0
  5  6  1  0  0  0
  6 19  1  0  0  0
 19 21  1  0  0  0
 21 22  2  0  0  0
 22 23  1  0  0  0
 23 24  2  0  0  0
 24 28  1  0  0  0
 28 29  1  0  0  0
 29 30  1  0  0  0
 30 31  2  0  0  0
 31 32  1  0  0  0
 32 33  2  0  0  0
 33 34  1  0  0  0
 34 35  2  0  0  0
 24 25  1  0  0  0
 25 26  1  0  0  0
 25 27  2  0  0  0
  6  7  2  0  0  0
  7 10  1  0  0  0
 10 11  2  0  0  0
 11 12  1  0  0  0
 12 13  2  0  0  0
 13 14  1  0  0  0
 14 15  2  0  0  0
 15 16  1  0  0  0
 16 17  2  0  0  0
 17 18  1  0  0  0
  7  2  1  0  0  0
 18 10  1  0  0  0
 27 21  1  0  0  0
 17 12  1  0  0  0
 35 30  1  0  0  0
  1  8  1  0  0  0
  1  9  1  0  0  0
 19 20  1  0  0  0
M  END
> <minimizedAffinity>
-7.62657

> <CNNscore>
0.4883156121

> <CNNaffinity>
6.9127516747

> <CNN_VS>
3.3756046295

> <CNNaffinity_variance>
0.0575612970

$$$$
[H]c1nc(N([H])[H])c2c(-c3c([H])c([H])c4c(c3[H])C([H])([H])C(=O)N4C([H])([H])c3c([H])c([H])c([H])c(F)c3C([H])([H])[H])nn(C3([H])C([H])([H])C([H])([H])N(C([H])(C([H])([H])[H])C([H])([H])[H])C([H])([H])C3([H])[H])c2n1


 40 45  0  0  0  0  0  0  0  0999 V2000
    1.6403  -50.9956  -21.6990 N   0  0  0  0  0  0  0  0  0  0  0  0
    1.6346  -50.5918  -20.4559 N   0  0  0  0  0  0  0  0  0  0  0  0
    0.7669  -51.3480  -19.7001 C   0  0  0  0  0  0  0  0  0  0  0  0
    0.2206  -52.2631  -20.5433 C   0  0  0  0  0  0  0  0  0  0  0  0
   -0.6901  -53.2955  -20.3915 C   0  0  0  0  0  0  0  0  0  0  0  0
   -1.2611  -53.6017  -19.1298 N   0  0  0  0  0  0  0  0  0  0  0  0
   -0.9884  -54.0229  -21.4946 N   0  0  0  0  0  0  0  0  0  0  0  0
   -0.4261  -53.7579  -22.6853 C   0  0  0  0  0  0  0  0  0  0  0  0
    0.4600  -52.7648  -22.8561 N   0  0  0  0  0  0  0  0  0  0  0  0
    0.7850  -52.0179  -21.7876 C   0  0  0  0  0  0  0  0  0  0  0  0
   -2.2804  -53.4610  -18.9074 H   0  0  0  0  0  0  0  0  0  0  0  0
   -0.6080  -53.9857  -18.4046 H   0  0  0  0  0  0  0  0  0  0  0  0
    0.5551  -51.1632  -18.2742 C   0  0  0  0  0  0  0  0  0  0  0  0
    1.4730  -50.6690  -17.3900 C   0  0  0  0  0  0  0  0  0  0  0  0
    1.2105  -50.4902  -16.0361 C   0  0  0  0  0  0  0  0  0  0  0  0
   -0.0354  -50.8269  -15.5530 C   0  0  0  0  0  0  0  0  0  0  0  0
   -0.6099  -50.7655  -14.2320 N   0  0  0  0  0  0  0  0  0  0  0  0
   -1.9527  -51.2405  -14.2674 C   0  0  0  0  0  0  0  0  0  0  0  0
   -2.7023  -51.3024  -13.2604 O   0  0  0  0  0  0  0  0  0  0  0  0
   -2.2466  -51.6211  -15.6727 C   0  0  0  0  0  0  0  0  0  0  0  0
   -0.9895  -51.3284  -16.4068 C   0  0  0  0  0  0  0  0  0  0  0  0
   -0.6897  -51.4884  -17.7349 C   0  0  0  0  0  0  0  0  0  0  0  0
    0.0678  -50.2968  -13.0384 C   0  0  0  0  0  0  0  0  0  0  0  0
    1.4940  -50.6614  -13.0261 C   0  0  0  0  0  0  0  0  0  0  0  0
    2.4433  -49.6800  -13.1620 C   0  0  0  0  0  0  0  0  0  0  0  0
    3.7931  -49.9330  -13.1604 C   0  0  0  0  0  0  0  0  0  0  0  0
    4.2474  -51.2214  -13.0174 C   0  0  0  0  0  0  0  0  0  0  0  0
    3.3195  -52.2306  -12.8786 C   0  0  0  0  0  0  0  0  0  0  0  0
    3.7565  -53.5093  -12.7354 F   0  0  0  0  0  0  0  0  0  0  0  0
    1.9466  -51.9485  -12.8834 C   0  0  0  0  0  0  0  0  0  0  0  0
    0.9575  -53.0412  -12.7340 C   0  0  0  0  0  0  0  0  0  0  0  0
    3.4851  -49.2071  -24.6554 N   0  0  0  0  0  0  0  0  0  0  0  0
    3.6628  -50.6415  -24.8123 C   0  0  0  0  0  0  0  0  0  0  0  0
    3.2738  -51.3664  -23.5189 C   0  0  0  0  0  0  0  0  0  0  0  0
    2.4520  -50.3947  -22.7217 C   0  0  0  0  0  0  0  0  0  0  0  0
    3.3286  -49.2893  -22.2338 C   0  0  0  0  0  0  0  0  0  0  0  0
    4.1232  -48.7967  -23.4389 C   0  0  0  0  0  0  0  0  0  0  0  0
    5.5685  -48.4967  -25.7293 C   0  0  0  0  0  0  0  0  0  0  0  0
    4.0363  -48.5443  -25.7975 C   0  0  0  0  0  0  0  0  0  0  0  0
    3.7008  -49.2428  -27.0969 C   0  0  0  0  0  0  0  0  0  0  0  0
 38 39  1  0  0  0
 39 40  1  0  0  0
 39 32  1  0  0  0
 32 33  1  0  0  0
 33 34  1  0  0  0
 34 35  1  0  0  0
 35 36  1  0  0  0
 36 37  1  0  0  0
 35  1  1  0  0  0
  1  2  1  0  0  0
  2  3  2  0  0  0
  3 13  1  0  0  0
 13 14  2  0  0  0
 14 15  1  0  0  0
 15 16  2  0  0  0
 16 17  1  0  0  0
 17 23  1  0  0  0
 23 24  1  0  0  0
 24 25  2  0  0  0
 25 26  1  0  0  0
 26 27  2  0  0  0
 27 28  1  0  0  0
 28 29  1  0  0  0
 28 30  2  0  0  0
 30 31  1  0  0  0
 17 18  1  0  0  0
 18 19  2  0  0  0
 18 20  1  0  0  0
 20 21  1  0  0  0
 21 22  2  0  0  0
  3  4  1  0  0  0
  4  5  2  0  0  0
  5  6  1  0  0  0
  5  7  1  0  0  0
  7  8  2  0  0  0
  8  9  1  0  0  0
  9 10  2  0  0  0
 37 32  1  0  0  0
 10  1  1  0  0  0
 22 13  1  0  0  0
 10  4  1  0  0  0
 21 16  1  0  0  0
 30 24  1  0  0  0
  6 11  1  0  0  0
  6 12  1  0  0  0
M  END
> <minimizedAffinity>
-7.90530

> <CNNscore>
0.4188244343

> <CNNaffinity>
7.1760535240

> <CNN_VS>
3.0055065155

> <CNNaffinity_variance>
0.3217970729

$$$$
[H]c1nc(N([H])[H])c2c(-c3c([H])c([H])c4c(c3[H])C([H])([H])C(=O)N4C([H])([H])c3c([H])c([H])c([H])c(F)c3C([H])([H])[H])nn(C3([H])C([H])([H])C([H])([H])N(C([H])(C([H])([H])[H])C([H])([H])[H])C([H])([H])C3([H])[H])c2n1


 40 45  0  0  0  0  0  0  0  0999 V2000
    2.0279  -50.4049  -22.3246 N   0  0  0  0  0  0  0  0  0  0  0  0
    2.1186  -50.1043  -21.0558 N   0  0  0  0  0  0  0  0  0  0  0  0
    1.4565  -51.0331  -20.2846 C   0  0  0  0  0  0  0  0  0  0  0  0
    0.9387  -51.9482  -21.1457 C   0  0  0  0  0  0  0  0  0  0  0  0
    0.1981  -53.1085  -20.9936 C   0  0  0  0  0  0  0  0  0  0  0  0
   -0.1710  -53.5905  -19.7117 N   0  0  0  0  0  0  0  0  0  0  0  0
   -0.1318  -53.7828  -22.1212 N   0  0  0  0  0  0  0  0  0  0  0  0
    0.2427  -53.3483  -23.3357 C   0  0  0  0  0  0  0  0  0  0  0  0
    0.9620  -52.2287  -23.5077 N   0  0  0  0  0  0  0  0  0  0  0  0
    1.3115  -51.5286  -22.4154 C   0  0  0  0  0  0  0  0  0  0  0  0
   -1.1657  -53.6144  -19.3677 H   0  0  0  0  0  0  0  0  0  0  0  0
    0.6099  -53.9328  -19.1011 H   0  0  0  0  0  0  0  0  0  0  0  0
    1.3954  -50.9921  -18.8332 C   0  0  0  0  0  0  0  0  0  0  0  0
    2.4693  -51.0431  -17.9889 C   0  0  0  0  0  0  0  0  0  0  0  0
    2.3568  -50.9766  -16.6045 C   0  0  0  0  0  0  0  0  0  0  0  0
    1.1024  -50.8543  -16.0471 C   0  0  0  0  0  0  0  0  0  0  0  0
    0.6561  -50.7644  -14.6791 N   0  0  0  0  0  0  0  0  0  0  0  0
   -0.7637  -50.6518  -14.6413 C   0  0  0  0  0  0  0  0  0  0  0  0
   -1.4326  -50.5569  -13.5813 O   0  0  0  0  0  0  0  0  0  0  0  0
   -1.2430  -50.6705  -16.0471 C   0  0  0  0  0  0  0  0  0  0  0  0
   -0.0063  -50.8000  -16.8587 C   0  0  0  0  0  0  0  0  0  0  0  0
    0.1489  -50.8681  -18.2191 C   0  0  0  0  0  0  0  0  0  0  0  0
    1.5129  -50.7881  -13.5091 C   0  0  0  0  0  0  0  0  0  0  0  0
    2.4272  -49.6353  -13.4625 C   0  0  0  0  0  0  0  0  0  0  0  0
    1.9220  -48.3667  -13.5971 C   0  0  0  0  0  0  0  0  0  0  0  0
    2.7034  -47.2378  -13.5647 C   0  0  0  0  0  0  0  0  0  0  0  0
    4.0612  -47.3507  -13.3904 C   0  0  0  0  0  0  0  0  0  0  0  0
    4.6005  -48.6111  -13.2521 C   0  0  0  0  0  0  0  0  0  0  0  0
    5.9424  -48.7358  -13.0780 F   0  0  0  0  0  0  0  0  0  0  0  0
    3.7831  -49.7492  -13.2886 C   0  0  0  0  0  0  0  0  0  0  0  0
    4.3734  -51.0997  -13.1393 C   0  0  0  0  0  0  0  0  0  0  0  0
    3.2711  -48.2819  -25.3725 N   0  0  0  0  0  0  0  0  0  0  0  0
    4.0178  -49.5292  -25.3549 C   0  0  0  0  0  0  0  0  0  0  0  0
    3.8328  -50.2364  -24.0074 C   0  0  0  0  0  0  0  0  0  0  0  0
    2.6235  -49.6165  -23.3684 C   0  0  0  0  0  0  0  0  0  0  0  0
    2.9401  -48.2136  -22.9681 C   0  0  0  0  0  0  0  0  0  0  0  0
    3.5797  -47.5463  -24.1813 C   0  0  0  0  0  0  0  0  0  0  0  0
    4.4400  -46.3032  -26.2192 C   0  0  0  0  0  0  0  0  0  0  0  0
    3.6151  -47.5528  -26.5547 C   0  0  0  0  0  0  0  0  0  0  0  0
    4.4595  -48.3613  -27.5150 C   0  0  0  0  0  0  0  0  0  0  0  0
 38 39  1  0  0  0
 39 40  1  0  0  0
 39 32  1  0  0  0
 32 33  1  0  0  0
 33 34  1  0  0  0
 34 35  1  0  0  0
 35 36  1  0  0  0
 36 37  1  0  0  0
 35  1  1  0  0  0
  1  2  1  0  0  0
  2  3  2  0  0  0
  3 13  1  0  0  0
 13 14  2  0  0  0
 14 15  1  0  0  0
 15 16  2  0  0  0
 16 17  1  0  0  0
 17 23  1  0  0  0
 23 24  1  0  0  0
 24 25  2  0  0  0
 25 26  1  0  0  0
 26 27  2  0  0  0
 27 28  1  0  0  0
 28 29  1  0  0  0
 28 30  2  0  0  0
 30 31  1  0  0  0
 17 18  1  0  0  0
 18 19  2  0  0  0
 18 20  1  0  0  0
 20 21  1  0  0  0
 21 22  2  0  0  0
  3  4  1  0  0  0
  4  5  2  0  0  0
  5  6  1  0  0  0
  5  7  1  0  0  0
  7  8  2  0  0  0
  8  9  1  0  0  0
  9 10  2  0  0  0
 37 32  1  0  0  0
 10  1  1  0  0  0
 22 13  1  0  0  0
 10  4  1  0  0  0
 21 16  1  0  0  0
 30 24  1  0  0  0
  6 11  1  0  0  0
  6 12  1  0  0  0
M  END
> <minimizedAffinity>
-7.06003

> <CNNscore>
0.1834656745

> <CNNaffinity>
6.7982916832

> <CNN_VS>
1.2472531796

> <CNNaffinity_variance>
0.4771300256

$$$$
[H]c1nc(N([H])[H])c2c(-c3c([H])c([H])c4c(c3[H])C([H])([H])C(=O)N4C([H])([H])c3c([H])c([H])c([H])c(F)c3C([H])([H])[H])nn(C3([H])C([H])([H])C([H])([H])N(C([H])(C([H])([H])[H])C([H])([H])[H])C([H])([H])C3([H])[H])c2n1


 40 45  0  0  0  0  0  0  0  0999 V2000
    1.1256  -51.2306  -19.4514 N   0  0  0  0  0  0  0  0  0  0  0  0
    1.8862  -50.6039  -20.3099 N   0  0  0  0  0  0  0  0  0  0  0  0
    1.6066  -51.0071  -21.5965 C   0  0  0  0  0  0  0  0  0  0  0  0
    0.6150  -51.9316  -21.5022 C   0  0  0  0  0  0  0  0  0  0  0  0
   -0.0984  -52.6819  -22.4221 C   0  0  0  0  0  0  0  0  0  0  0  0
    0.1319  -52.5608  -23.8164 N   0  0  0  0  0  0  0  0  0  0  0  0
   -1.0500  -53.5139  -21.9352 N   0  0  0  0  0  0  0  0  0  0  0  0
   -1.2946  -53.6086  -20.6178 C   0  0  0  0  0  0  0  0  0  0  0  0
   -0.6181  -52.8906  -19.7083 N   0  0  0  0  0  0  0  0  0  0  0  0
    0.3351  -52.0519  -20.1478 C   0  0  0  0  0  0  0  0  0  0  0  0
    0.5502  -53.3294  -24.4019 H   0  0  0  0  0  0  0  0  0  0  0  0
   -0.1392  -51.6476  -24.2549 H   0  0  0  0  0  0  0  0  0  0  0  0
    2.2654  -50.4759  -22.7780 C   0  0  0  0  0  0  0  0  0  0  0  0
    1.9887  -50.8268  -24.0698 C   0  0  0  0  0  0  0  0  0  0  0  0
    2.6344  -50.2694  -25.1681 C   0  0  0  0  0  0  0  0  0  0  0  0
    3.6047  -49.3150  -24.9518 C   0  0  0  0  0  0  0  0  0  0  0  0
    4.4410  -48.5637  -25.8544 N   0  0  0  0  0  0  0  0  0  0  0  0
    5.2917  -47.6940  -25.1128 C   0  0  0  0  0  0  0  0  0  0  0  0
    6.1297  -46.9170  -25.6363 O   0  0  0  0  0  0  0  0  0  0  0  0
    4.9836  -47.9002  -23.6745 C   0  0  0  0  0  0  0  0  0  0  0  0
    3.9160  -48.9322  -23.6683 C   0  0  0  0  0  0  0  0  0  0  0  0
    3.2548  -49.5062  -22.6135 C   0  0  0  0  0  0  0  0  0  0  0  0
    4.4305  -48.6710  -27.3008 C   0  0  0  0  0  0  0  0  0  0  0  0
    3.6656  -47.5855  -27.9361 C   0  0  0  0  0  0  0  0  0  0  0  0
    2.7140  -46.9150  -27.2098 C   0  0  0  0  0  0  0  0  0  0  0  0
    1.9573  -45.8910  -27.7244 C   0  0  0  0  0  0  0  0  0  0  0  0
    2.1382  -45.4947  -29.0271 C   0  0  0  0  0  0  0  0  0  0  0  0
    3.0865  -46.1479  -29.7839 C   0  0  0  0  0  0  0  0  0  0  0  0
    3.2756  -45.7643  -31.0738 F   0  0  0  0  0  0  0  0  0  0  0  0
    3.8470  -47.1906  -29.2372 C   0  0  0  0  0  0  0  0  0  0  0  0
    4.8637  -47.8865  -30.0600 C   0  0  0  0  0  0  0  0  0  0  0  0
    1.1541  -51.0428  -15.5391 N   0  0  0  0  0  0  0  0  0  0  0  0
    0.1647  -50.0978  -16.0305 C   0  0  0  0  0  0  0  0  0  0  0  0
    0.3523  -49.8714  -17.5350 C   0  0  0  0  0  0  0  0  0  0  0  0
    1.1907  -51.0139  -18.0320 C   0  0  0  0  0  0  0  0  0  0  0  0
    2.5783  -50.8777  -17.4986 C   0  0  0  0  0  0  0  0  0  0  0  0
    2.4484  -50.6319  -15.9990 C   0  0  0  0  0  0  0  0  0  0  0  0
    0.8739  -52.5195  -13.6054 C   0  0  0  0  0  0  0  0  0  0  0  0
    1.0840  -51.0860  -14.1105 C   0  0  0  0  0  0  0  0  0  0  0  0
    2.3524  -50.5948  -13.4480 C   0  0  0  0  0  0  0  0  0  0  0  0
 38 39  1  0  0  0
 39 40  1  0  0  0
 39 32  1  0  0  0
 32 33  1  0  0  0
 33 34  1  0  0  0
 34 35  1  0  0  0
 35 36  1  0  0  0
 36 37  1  0  0  0
 35  1  1  0  0  0
  1  2  1  0  0  0
  2  3  2  0  0  0
  3 13  1  0  0  0
 13 14  2  0  0  0
 14 15  1  0  0  0
 15 16  2  0  0  0
 16 17  1  0  0  0
 17 23  1  0  0  0
 23 24  1  0  0  0
 24 25  2  0  0  0
 25 26  1  0  0  0
 26 27  2  0  0  0
 27 28  1  0  0  0
 28 29  1  0  0  0
 28 30  2  0  0  0
 30 31  1  0  0  0
 17 18  1  0  0  0
 18 19  2  0  0  0
 18 20  1  0  0  0
 20 21  1  0  0  0
 21 22  2  0  0  0
  3  4  1  0  0  0
  4  5  2  0  0  0
  5  6  1  0  0  0
  5  7  1  0  0  0
  7  8  2  0  0  0
  8  9  1  0  0  0
  9 10  2  0  0  0
 37 32  1  0  0  0
 10  1  1  0  0  0
 22 13  1  0  0  0
 10  4  1  0  0  0
 21 16  1  0  0  0
 30 24  1  0  0  0
  6 11  1  0  0  0
  6 12  1  0  0  0
M  END
> <minimizedAffinity>
-8.22065

> <CNNscore>
0.1478070170

> <CNNaffinity>
6.8761086464

> <CNN_VS>
1.0163371563

> <CNNaffinity_variance>
0.4051204324

$$$$
[H]c1nc(N([H])[H])c2c(-c3c([H])c([H])c4c(c3[H])C([H])([H])C(=O)N4C([H])([H])c3c([H])c([H])c([H])c(F)c3C([H])([H])[H])nn(C3([H])C([H])([H])C([H])([H])N(C([H])(C([H])([H])[H])C([H])([H])[H])C([H])([H])C3([H])[H])c2n1


 40 45  0  0  0  0  0  0  0  0999 V2000
    2.0056  -50.1555  -24.2581 N   0  0  0  0  0  0  0  0  0  0  0  0
    1.8606  -49.9595  -22.9740 N   0  0  0  0  0  0  0  0  0  0  0  0
    1.1221  -50.9728  -22.4050 C   0  0  0  0  0  0  0  0  0  0  0  0
    0.8070  -51.8300  -23.4114 C   0  0  0  0  0  0  0  0  0  0  0  0
    0.1096  -53.0245  -23.4816 C   0  0  0  0  0  0  0  0  0  0  0  0
   -0.4511  -53.6254  -22.3255 N   0  0  0  0  0  0  0  0  0  0  0  0
    0.0134  -53.6129  -24.6979 N   0  0  0  0  0  0  0  0  0  0  0  0
    0.5701  -53.0648  -25.7906 C   0  0  0  0  0  0  0  0  0  0  0  0
    1.2519  -51.9099  -25.7468 N   0  0  0  0  0  0  0  0  0  0  0  0
    1.3723  -51.2922  -24.5596 C   0  0  0  0  0  0  0  0  0  0  0  0
   -1.4878  -53.7133  -22.1651 H   0  0  0  0  0  0  0  0  0  0  0  0
    0.2286  -53.9899  -21.6149 H   0  0  0  0  0  0  0  0  0  0  0  0
    0.8092  -51.0562  -20.9883 C   0  0  0  0  0  0  0  0  0  0  0  0
    0.0981  -52.0570  -20.3871 C   0  0  0  0  0  0  0  0  0  0  0  0
   -0.1538  -52.1006  -19.0202 C   0  0  0  0  0  0  0  0  0  0  0  0
    0.3337  -51.0867  -18.2242 C   0  0  0  0  0  0  0  0  0  0  0  0
    0.2460  -50.8429  -16.8059 N   0  0  0  0  0  0  0  0  0  0  0  0
    0.9281  -49.6350  -16.4810 C   0  0  0  0  0  0  0  0  0  0  0  0
    1.0172  -49.1704  -15.3165 O   0  0  0  0  0  0  0  0  0  0  0  0
    1.4745  -49.0852  -17.7480 C   0  0  0  0  0  0  0  0  0  0  0  0
    1.0538  -50.0592  -18.7868 C   0  0  0  0  0  0  0  0  0  0  0  0
    1.2802  -50.0548  -20.1388 C   0  0  0  0  0  0  0  0  0  0  0  0
   -0.4345  -51.6898  -15.8450 C   0  0  0  0  0  0  0  0  0  0  0  0
   -1.8503  -51.3217  -15.6798 C   0  0  0  0  0  0  0  0  0  0  0  0
   -2.1803  -50.2357  -14.9089 C   0  0  0  0  0  0  0  0  0  0  0  0
   -3.4741  -49.8236  -14.7034 C   0  0  0  0  0  0  0  0  0  0  0  0
   -4.5114  -50.5112  -15.2847 C   0  0  0  0  0  0  0  0  0  0  0  0
   -4.2138  -51.6071  -16.0653 C   0  0  0  0  0  0  0  0  0  0  0  0
   -5.2313  -52.2950  -16.6467 F   0  0  0  0  0  0  0  0  0  0  0  0
   -2.8854  -52.0093  -16.2607 C   0  0  0  0  0  0  0  0  0  0  0  0
   -2.5767  -53.1893  -17.1015 C   0  0  0  0  0  0  0  0  0  0  0  0
    3.6058  -47.6110  -26.7696 N   0  0  0  0  0  0  0  0  0  0  0  0
    4.0567  -48.9456  -27.1284 C   0  0  0  0  0  0  0  0  0  0  0  0
    3.7561  -49.9282  -25.9908 C   0  0  0  0  0  0  0  0  0  0  0  0
    2.7328  -49.2614  -25.1171 C   0  0  0  0  0  0  0  0  0  0  0  0
    3.3641  -48.1108  -24.4059 C   0  0  0  0  0  0  0  0  0  0  0  0
    4.1026  -47.2955  -25.4622 C   0  0  0  0  0  0  0  0  0  0  0  0
    3.9608  -47.2713  -29.1690 C   0  0  0  0  0  0  0  0  0  0  0  0
    4.0708  -46.6842  -27.7556 C   0  0  0  0  0  0  0  0  0  0  0  0
    3.2689  -45.4014  -27.7762 C   0  0  0  0  0  0  0  0  0  0  0  0
 38 39  1  0  0  0
 39 40  1  0  0  0
 39 32  1  0  0  0
 32 33  1  0  0  0
 33 34  1  0  0  0
 34 35  1  0  0  0
 35 36  1  0  0  0
 36 37  1  0  0  0
 35  1  1  0  0  0
  1  2  1  0  0  0
  2  3  2  0  0  0
  3 13  1  0  0  0
 13 14  2  0  0  0
 14 15  1  0  0  0
 15 16  2  0  0  0
 16 17  1  0  0  0
 17 23  1  0  0  0
 23 24  1  0  0  0
 24 25  2  0  0  0
 25 26  1  0  0  0
 26 27  2  0  0  0
 27 28  1  0  0  0
 28 29  1  0  0  0
 28 30  2  0  0  0
 30 31  1  0  0  0
 17 18  1  0  0  0
 18 19  2  0  0  0
 18 20  1  0  0  0
 20 21  1  0  0  0
 21 22  2  0  0  0
  3  4  1  0  0  0
  4  5  2  0  0  0
  5  6  1  0  0  0
  5  7  1  0  0  0
  7  8  2  0  0  0
  8  9  1  0  0  0
  9 10  2  0  0  0
 37 32  1  0  0  0
 10  1  1  0  0  0
 22 13  1  0  0  0
 10  4  1  0  0  0
 21 16  1  0  0  0
 30 24  1  0  0  0
  6 11  1  0  0  0
  6 12  1  0  0  0
M  END
> <minimizedAffinity>
-8.93988

> <CNNscore>
0.1404680163

> <CNNaffinity>
7.0183320045

> <CNN_VS>
0.9858511686

> <CNNaffinity_variance>
0.4038107395

$$$$
[H]c1nc(N([H])[H])c2c(-c3c([H])c([H])c4c(c3[H])C([H])([H])C(=O)N4C([H])([H])c3c([H])c([H])c([H])c(F)c3C([H])([H])[H])nn(C3([H])C([H])([H])C([H])([H])N(C([H])(C([H])([H])[H])C([H])([H])[H])C([H])([H])C3([H])[H])c2n1


 40 45  0  0  0  0  0  0  0  0999 V2000
    3.7804  -47.6178  -20.6552 N   0  0  0  0  0  0  0  0  0  0  0  0
    3.2419  -48.7585  -20.9976 N   0  0  0  0  0  0  0  0  0  0  0  0
    2.9902  -48.7939  -22.3509 C   0  0  0  0  0  0  0  0  0  0  0  0
    3.4060  -47.6003  -22.8501 C   0  0  0  0  0  0  0  0  0  0  0  0
    3.4382  -47.0400  -24.1163 C   0  0  0  0  0  0  0  0  0  0  0  0
    2.9826  -47.7527  -25.2548 N   0  0  0  0  0  0  0  0  0  0  0  0
    3.9546  -45.7925  -24.2266 N   0  0  0  0  0  0  0  0  0  0  0  0
    4.4173  -45.1255  -23.1564 C   0  0  0  0  0  0  0  0  0  0  0  0
    4.3985  -45.6484  -21.9208 N   0  0  0  0  0  0  0  0  0  0  0  0
    3.8948  -46.8844  -21.7658 C   0  0  0  0  0  0  0  0  0  0  0  0
    2.1249  -47.4810  -25.8015 H   0  0  0  0  0  0  0  0  0  0  0  0
    3.5512  -48.5866  -25.5396 H   0  0  0  0  0  0  0  0  0  0  0  0
    2.4180  -49.9362  -23.0434 C   0  0  0  0  0  0  0  0  0  0  0  0
    2.7982  -50.3940  -24.2741 C   0  0  0  0  0  0  0  0  0  0  0  0
    2.2322  -51.5087  -24.8831 C   0  0  0  0  0  0  0  0  0  0  0  0
    1.2360  -52.1916  -24.2195 C   0  0  0  0  0  0  0  0  0  0  0  0
    0.4624  -53.3566  -24.5705 N   0  0  0  0  0  0  0  0  0  0  0  0
   -0.4542  -53.6606  -23.5228 C   0  0  0  0  0  0  0  0  0  0  0  0
   -1.2590  -54.6256  -23.5521 O   0  0  0  0  0  0  0  0  0  0  0  0
   -0.2555  -52.6448  -22.4576 C   0  0  0  0  0  0  0  0  0  0  0  0
    0.8215  -51.7659  -22.9794 C   0  0  0  0  0  0  0  0  0  0  0  0
    1.4065  -50.6624  -22.4143 C   0  0  0  0  0  0  0  0  0  0  0  0
    0.5861  -54.1114  -25.8028 C   0  0  0  0  0  0  0  0  0  0  0  0
   -0.1602  -53.4959  -26.9124 C   0  0  0  0  0  0  0  0  0  0  0  0
   -1.4041  -52.9662  -26.6780 C   0  0  0  0  0  0  0  0  0  0  0  0
   -2.1664  -52.3740  -27.6548 C   0  0  0  0  0  0  0  0  0  0  0  0
   -1.6881  -52.2919  -28.9399 C   0  0  0  0  0  0  0  0  0  0  0  0
   -0.4418  -52.8145  -29.2087 C   0  0  0  0  0  0  0  0  0  0  0  0
    0.0428  -52.7385  -30.4759 F   0  0  0  0  0  0  0  0  0  0  0  0
    0.3183  -53.4147  -28.1954 C   0  0  0  0  0  0  0  0  0  0  0  0
    1.6570  -53.9738  -28.4955 C   0  0  0  0  0  0  0  0  0  0  0  0
    4.6645  -46.3326  -17.0624 N   0  0  0  0  0  0  0  0  0  0  0  0
    5.9036  -46.6928  -17.7320 C   0  0  0  0  0  0  0  0  0  0  0  0
    5.6042  -47.5201  -18.9873 C   0  0  0  0  0  0  0  0  0  0  0  0
    4.1543  -47.2934  -19.3059 C   0  0  0  0  0  0  0  0  0  0  0  0
    3.3105  -47.9504  -18.2643 C   0  0  0  0  0  0  0  0  0  0  0  0
    3.8647  -47.5130  -16.9124 C   0  0  0  0  0  0  0  0  0  0  0  0
    4.1571  -46.3656  -14.6666 C   0  0  0  0  0  0  0  0  0  0  0  0
    4.9768  -45.7352  -15.8002 C   0  0  0  0  0  0  0  0  0  0  0  0
    6.4280  -45.9148  -15.4118 C   0  0  0  0  0  0  0  0  0  0  0  0
 38 39  1  0  0  0
 39 40  1  0  0  0
 39 32  1  0  0  0
 32 33  1  0  0  0
 33 34  1  0  0  0
 34 35  1  0  0  0
 35 36  1  0  0  0
 36 37  1  0  0  0
 35  1  1  0  0  0
  1  2  1  0  0  0
  2  3  2  0  0  0
  3 13  1  0  0  0
 13 14  2  0  0  0
 14 15  1  0  0  0
 15 16  2  0  0  0
 16 17  1  0  0  0
 17 23  1  0  0  0
 23 24  1  0  0  0
 24 25  2  0  0  0
 25 26  1  0  0  0
 26 27  2  0  0  0
 27 28  1  0  0  0
 28 29  1  0  0  0
 28 30  2  0  0  0
 30 31  1  0  0  0
 17 18  1  0  0  0
 18 19  2  0  0  0
 18 20  1  0  0  0
 20 21  1  0  0  0
 21 22  2  0  0  0
  3  4  1  0  0  0
  4  5  2  0  0  0
  5  6  1  0  0  0
  5  7  1  0  0  0
  7  8  2  0  0  0
  8  9  1  0  0  0
  9 10  2  0  0  0
 37 32  1  0  0  0
 10  1  1  0  0  0
 22 13  1  0  0  0
 10  4  1  0  0  0
 21 16  1  0  0  0
 30 24  1  0  0  0
  6 11  1  0  0  0
  6 12  1  0  0  0
M  END
> <minimizedAffinity>
-8.00687

> <CNNscore>
0.1186318845

> <CNNaffinity>
6.9704427719

> <CNN_VS>
0.8269167542

> <CNNaffinity_variance>
0.4996912479

$$$$
[H]c1nc(N([H])[H])c2c(-c3c([H])c([H])c4c(c3[H])C([H])([H])C(=O)N4C([H])([H])c3c([H])c([H])c([H])c(F)c3C([H])([H])[H])nn(C3([H])C([H])([H])C([H])([H])N(C([H])(C([H])([H])[H])C([H])([H])[H])C([H])([H])C3([H])[H])c2n1


 40 45  0  0  0  0  0  0  0  0999 V2000
    3.3884  -47.8521  -18.3235 N   0  0  0  0  0  0  0  0  0  0  0  0
    2.4183  -48.4612  -18.9529 N   0  0  0  0  0  0  0  0  0  0  0  0
    2.9154  -49.2826  -19.9399 C   0  0  0  0  0  0  0  0  0  0  0  0
    4.2681  -49.1588  -19.8973 C   0  0  0  0  0  0  0  0  0  0  0  0
    5.3139  -49.7258  -20.6063 C   0  0  0  0  0  0  0  0  0  0  0  0
    5.0848  -50.6794  -21.6310 N   0  0  0  0  0  0  0  0  0  0  0  0
    6.5692  -49.3552  -20.2573 N   0  0  0  0  0  0  0  0  0  0  0  0
    6.7935  -48.4770  -19.2660 C   0  0  0  0  0  0  0  0  0  0  0  0
    5.7968  -47.9164  -18.5639 N   0  0  0  0  0  0  0  0  0  0  0  0
    4.5351  -48.2562  -18.8768 C   0  0  0  0  0  0  0  0  0  0  0  0
    5.2776  -50.4916  -22.6488 H   0  0  0  0  0  0  0  0  0  0  0  0
    4.7041  -51.6077  -21.3256 H   0  0  0  0  0  0  0  0  0  0  0  0
    2.0904  -50.1152  -20.7991 C   0  0  0  0  0  0  0  0  0  0  0  0
    1.7112  -49.8114  -22.0768 C   0  0  0  0  0  0  0  0  0  0  0  0
    0.9383  -50.6562  -22.8658 C   0  0  0  0  0  0  0  0  0  0  0  0
    0.5285  -51.8624  -22.3401 C   0  0  0  0  0  0  0  0  0  0  0  0
   -0.2644  -52.9361  -22.8853 N   0  0  0  0  0  0  0  0  0  0  0  0
   -0.4019  -53.9734  -21.9182 C   0  0  0  0  0  0  0  0  0  0  0  0
   -1.0428  -55.0365  -22.1153 O   0  0  0  0  0  0  0  0  0  0  0  0
    0.3360  -53.5415  -20.7037 C   0  0  0  0  0  0  0  0  0  0  0  0
    0.8862  -52.2087  -21.0583 C   0  0  0  0  0  0  0  0  0  0  0  0
    1.6499  -51.3470  -20.3145 C   0  0  0  0  0  0  0  0  0  0  0  0
   -0.8437  -52.9659  -24.2147 C   0  0  0  0  0  0  0  0  0  0  0  0
    0.1809  -52.9423  -25.2714 C   0  0  0  0  0  0  0  0  0  0  0  0
    1.4919  -53.1843  -24.9466 C   0  0  0  0  0  0  0  0  0  0  0  0
    2.5088  -53.1821  -25.8695 C   0  0  0  0  0  0  0  0  0  0  0  0
    2.2326  -52.9288  -27.1910 C   0  0  0  0  0  0  0  0  0  0  0  0
    0.9255  -52.6819  -27.5504 C   0  0  0  0  0  0  0  0  0  0  0  0
    0.6394  -52.4310  -28.8550 F   0  0  0  0  0  0  0  0  0  0  0  0
   -0.0960  -52.6891  -26.5908 C   0  0  0  0  0  0  0  0  0  0  0  0
   -1.4980  -52.4219  -26.9881 C   0  0  0  0  0  0  0  0  0  0  0  0
    2.3887  -45.3306  -15.4978 N   0  0  0  0  0  0  0  0  0  0  0  0
    3.2998  -44.6542  -16.4065 C   0  0  0  0  0  0  0  0  0  0  0  0
    3.9922  -45.6750  -17.3168 C   0  0  0  0  0  0  0  0  0  0  0  0
    3.1732  -46.9314  -17.2410 C   0  0  0  0  0  0  0  0  0  0  0  0
    3.3225  -47.5381  -15.8853 C   0  0  0  0  0  0  0  0  0  0  0  0
    3.0850  -46.4191  -14.8766 C   0  0  0  0  0  0  0  0  0  0  0  0
    0.3977  -44.1574  -14.6865 C   0  0  0  0  0  0  0  0  0  0  0  0
    1.9075  -44.3863  -14.5364 C   0  0  0  0  0  0  0  0  0  0  0  0
    2.1173  -44.8459  -13.1103 C   0  0  0  0  0  0  0  0  0  0  0  0
 38 39  1  0  0  0
 39 40  1  0  0  0
 39 32  1  0  0  0
 32 33  1  0  0  0
 33 34  1  0  0  0
 34 35  1  0  0  0
 35 36  1  0  0  0
 36 37  1  0  0  0
 35  1  1  0  0  0
  1  2  1  0  0  0
  2  3  2  0  0  0
  3 13  1  0  0  0
 13 14  2  0  0  0
 14 15  1  0  0  0
 15 16  2  0  0  0
 16 17  1  0  0  0
 17 23  1  0  0  0
 23 24  1  0  0  0
 24 25  2  0  0  0
 25 26  1  0  0  0
 26 27  2  0  0  0
 27 28  1  0  0  0
 28 29  1  0  0  0
 28 30  2  0  0  0
 30 31  1  0  0  0
 17 18  1  0  0  0
 18 19  2  0  0  0
 18 20  1  0  0  0
 20 21  1  0  0  0
 21 22  2  0  0  0
  3  4  1  0  0  0
  4  5  2  0  0  0
  5  6  1  0  0  0
  5  7  1  0  0  0
  7  8  2  0  0  0
  8  9  1  0  0  0
  9 10  2  0  0  0
 37 32  1  0  0  0
 10  1  1  0  0  0
 22 13  1  0  0  0
 10  4  1  0  0  0
 21 16  1  0  0  0
 30 24  1  0  0  0
  6 11  1  0  0  0
  6 12  1  0  0  0
M  END
> <minimizedAffinity>
-7.77411

> <CNNscore>
0.1151343957

> <CNNaffinity>
6.7722253799

> <CNN_VS>
0.7797160745

> <CNNaffinity_variance>
0.4091129899

$$$$
[H]c1nc(N([H])[H])c2c(-c3c([H])c([H])c4c(c3[H])C([H])([H])C(=O)N4C([H])([H])c3c([H])c([H])c([H])c(F)c3C([H])([H])[H])nn(C3([H])C([H])([H])C([H])([H])N(C([H])(C([H])([H])[H])C([H])([H])[H])C([H])([H])C3([H])[H])c2n1


 40 45  0  0  0  0  0  0  0  0999 V2000
    5.3535  -48.0625  -18.8860 N   0  0  0  0  0  0  0  0  0  0  0  0
    4.1579  -48.4832  -19.2053 N   0  0  0  0  0  0  0  0  0  0  0  0
    4.2258  -49.4624  -20.1711 C   0  0  0  0  0  0  0  0  0  0  0  0
    5.5448  -49.6403  -20.4455 C   0  0  0  0  0  0  0  0  0  0  0  0
    6.2519  -50.4747  -21.2951 C   0  0  0  0  0  0  0  0  0  0  0  0
    5.5948  -51.4233  -22.1198 N   0  0  0  0  0  0  0  0  0  0  0  0
    7.6023  -50.3693  -21.2814 N   0  0  0  0  0  0  0  0  0  0  0  0
    8.2316  -49.4952  -20.4788 C   0  0  0  0  0  0  0  0  0  0  0  0
    7.5682  -48.6785  -19.6461 N   0  0  0  0  0  0  0  0  0  0  0  0
    6.2267  -48.7500  -19.6271 C   0  0  0  0  0  0  0  0  0  0  0  0
    5.5678  -51.3556  -23.1700 H   0  0  0  0  0  0  0  0  0  0  0  0
    5.1222  -52.2195  -21.6272 H   0  0  0  0  0  0  0  0  0  0  0  0
    3.0674  -50.1489  -20.7179 C   0  0  0  0  0  0  0  0  0  0  0  0
    2.4040  -49.8043  -21.8623 C   0  0  0  0  0  0  0  0  0  0  0  0
    1.3124  -50.5110  -22.3550 C   0  0  0  0  0  0  0  0  0  0  0  0
    0.8699  -51.6155  -21.6596 C   0  0  0  0  0  0  0  0  0  0  0  0
   -0.2109  -52.5396  -21.8977 N   0  0  0  0  0  0  0  0  0  0  0  0
   -0.2450  -53.5188  -20.8634 C   0  0  0  0  0  0  0  0  0  0  0  0
   -1.0834  -54.4537  -20.8089 O   0  0  0  0  0  0  0  0  0  0  0  0
    0.8629  -53.2049  -19.9252 C   0  0  0  0  0  0  0  0  0  0  0  0
    1.5070  -51.9980  -20.5027 C   0  0  0  0  0  0  0  0  0  0  0  0
    2.5801  -51.2738  -20.0519 C   0  0  0  0  0  0  0  0  0  0  0  0
   -1.1338  -52.4883  -23.0155 C   0  0  0  0  0  0  0  0  0  0  0  0
   -0.5121  -52.9316  -24.2741 C   0  0  0  0  0  0  0  0  0  0  0  0
    0.1017  -52.0108  -25.0853 C   0  0  0  0  0  0  0  0  0  0  0  0
    0.7058  -52.3391  -26.2741 C   0  0  0  0  0  0  0  0  0  0  0  0
    0.7129  -53.6450  -26.7000 C   0  0  0  0  0  0  0  0  0  0  0  0
    0.1048  -54.5946  -25.9082 C   0  0  0  0  0  0  0  0  0  0  0  0
    0.1061  -55.8902  -26.3182 F   0  0  0  0  0  0  0  0  0  0  0  0
   -0.5058  -54.2360  -24.6986 C   0  0  0  0  0  0  0  0  0  0  0  0
   -1.1572  -55.2651  -23.8551 C   0  0  0  0  0  0  0  0  0  0  0  0
    6.4251  -45.4186  -16.2021 N   0  0  0  0  0  0  0  0  0  0  0  0
    5.4922  -46.3434  -15.5793 C   0  0  0  0  0  0  0  0  0  0  0  0
    4.7766  -47.1734  -16.6512 C   0  0  0  0  0  0  0  0  0  0  0  0
    5.5963  -47.0428  -17.9026 C   0  0  0  0  0  0  0  0  0  0  0  0
    5.4802  -45.6498  -18.4267 C   0  0  0  0  0  0  0  0  0  0  0  0
    5.7436  -44.7163  -17.2498 C   0  0  0  0  0  0  0  0  0  0  0  0
    7.7343  -43.3820  -15.8323 C   0  0  0  0  0  0  0  0  0  0  0  0
    6.9307  -44.5277  -15.2030 C   0  0  0  0  0  0  0  0  0  0  0  0
    5.8324  -43.8697  -14.3969 C   0  0  0  0  0  0  0  0  0  0  0  0
 38 39  1  0  0  0
 39 40  1  0  0  0
 39 32  1  0  0  0
 32 33  1  0  0  0
 33 34  1  0  0  0
 34 35  1  0  0  0
 35 36  1  0  0  0
 36 37  1  0  0  0
 35  1  1  0  0  0
  1  2  1  0  0  0
  2  3  2  0  0  0
  3 13  1  0  0  0
 13 14  2  0  0  0
 14 15  1  0  0  0
 15 16  2  0  0  0
 16 17  1  0  0  0
 17 23  1  0  0  0
 23 24  1  0  0  0
 24 25  2  0  0  0
 25 26  1  0  0  0
 26 27  2  0  0  0
 27 28  1  0  0  0
 28 29  1  0  0  0
 28 30  2  0  0  0
 30 31  1  0  0  0
 17 18  1  0  0  0
 18 19  2  0  0  0
 18 20  1  0  0  0
 20 21  1  0  0  0
 21 22  2  0  0  0
  3  4  1  0  0  0
  4  5  2  0  0  0
  5  6  1  0  0  0
  5  7  1  0  0  0
  7  8  2  0  0  0
  8  9  1  0  0  0
  9 10  2  0  0  0
 37 32  1  0  0  0
 10  1  1  0  0  0
 22 13  1  0  0  0
 10  4  1  0  0  0
 21 16  1  0  0  0
 30 24  1  0  0  0
  6 11  1  0  0  0
  6 12  1  0  0  0
M  END
> <minimizedAffinity>
-8.03062

> <CNNscore>
0.1117865294

> <CNNaffinity>
6.6540307999

> <CNN_VS>
0.7438310385

> <CNNaffinity_variance>
0.2021973580

$$$$
[H]c1nc(N([H])[H])c2c(-c3c([H])c([H])c4c(c3[H])C([H])([H])C(=O)N4C([H])([H])c3c([H])c([H])c([H])c(F)c3C([H])([H])[H])nn(C3([H])C([H])([H])C([H])([H])N(C([H])(C([H])([H])[H])C([H])([H])[H])C([H])([H])C3([H])[H])c2n1


 40 45  0  0  0  0  0  0  0  0999 V2000
    5.0277  -48.4208  -20.8930 N   0  0  0  0  0  0  0  0  0  0  0  0
    4.0046  -49.0894  -21.3566 N   0  0  0  0  0  0  0  0  0  0  0  0
    4.4116  -50.0324  -22.2736 C   0  0  0  0  0  0  0  0  0  0  0  0
    5.7632  -49.9228  -22.3631 C   0  0  0  0  0  0  0  0  0  0  0  0
    6.7417  -50.5869  -23.0840 C   0  0  0  0  0  0  0  0  0  0  0  0
    6.4214  -51.6558  -23.9595 N   0  0  0  0  0  0  0  0  0  0  0  0
    8.0237  -50.1934  -22.8926 N   0  0  0  0  0  0  0  0  0  0  0  0
    8.3359  -49.2032  -22.0404 C   0  0  0  0  0  0  0  0  0  0  0  0
    7.4058  -48.5471  -21.3299 N   0  0  0  0  0  0  0  0  0  0  0  0
    6.1206  -48.9055  -21.4887 C   0  0  0  0  0  0  0  0  0  0  0  0
    6.5254  -51.5971  -25.0055 H   0  0  0  0  0  0  0  0  0  0  0  0
    6.0660  -52.5343  -23.5102 H   0  0  0  0  0  0  0  0  0  0  0  0
    3.5124  -50.9528  -22.9493 C   0  0  0  0  0  0  0  0  0  0  0  0
    3.6646  -51.4241  -24.2234 C   0  0  0  0  0  0  0  0  0  0  0  0
    2.7852  -52.3240  -24.8154 C   0  0  0  0  0  0  0  0  0  0  0  0
    1.7018  -52.7672  -24.0880 C   0  0  0  0  0  0  0  0  0  0  0  0
    0.6296  -53.6771  -24.4063 N   0  0  0  0  0  0  0  0  0  0  0  0
   -0.2494  -53.7956  -23.2913 C   0  0  0  0  0  0  0  0  0  0  0  0
   -1.2752  -54.5219  -23.2800 O   0  0  0  0  0  0  0  0  0  0  0  0
    0.2865  -52.9230  -22.2154 C   0  0  0  0  0  0  0  0  0  0  0  0
    1.5091  -52.3187  -22.8025 C   0  0  0  0  0  0  0  0  0  0  0  0
    2.4006  -51.4321  -22.2562 C   0  0  0  0  0  0  0  0  0  0  0  0
    0.4583  -54.3701  -25.6688 C   0  0  0  0  0  0  0  0  0  0  0  0
   -0.2858  -53.5653  -26.6516 C   0  0  0  0  0  0  0  0  0  0  0  0
   -1.4248  -52.9070  -26.2618 C   0  0  0  0  0  0  0  0  0  0  0  0
   -2.1771  -52.1355  -27.1132 C   0  0  0  0  0  0  0  0  0  0  0  0
   -1.7970  -51.9958  -28.4257 C   0  0  0  0  0  0  0  0  0  0  0  0
   -0.6573  -52.6442  -28.8493 C   0  0  0  0  0  0  0  0  0  0  0  0
   -0.2703  -52.5130  -30.1453 F   0  0  0  0  0  0  0  0  0  0  0  0
    0.0946  -53.4267  -27.9622 C   0  0  0  0  0  0  0  0  0  0  0  0
    1.3181  -54.1200  -28.4282 C   0  0  0  0  0  0  0  0  0  0  0  0
    4.9746  -45.3314  -18.4859 N   0  0  0  0  0  0  0  0  0  0  0  0
    5.6164  -46.4356  -17.7913 C   0  0  0  0  0  0  0  0  0  0  0  0
    5.3552  -47.7504  -18.5349 C   0  0  0  0  0  0  0  0  0  0  0  0
    4.9102  -47.3713  -19.9181 C   0  0  0  0  0  0  0  0  0  0  0  0
    3.5536  -46.7521  -19.8488 C   0  0  0  0  0  0  0  0  0  0  0  0
    3.6130  -45.6897  -18.7562 C   0  0  0  0  0  0  0  0  0  0  0  0
    3.7003  -43.4756  -17.5212 C   0  0  0  0  0  0  0  0  0  0  0  0
    5.0666  -44.1570  -17.6735 C   0  0  0  0  0  0  0  0  0  0  0  0
    5.5404  -44.4545  -16.2678 C   0  0  0  0  0  0  0  0  0  0  0  0
 38 39  1  0  0  0
 39 40  1  0  0  0
 39 32  1  0  0  0
 32 33  1  0  0  0
 33 34  1  0  0  0
 34 35  1  0  0  0
 35 36  1  0  0  0
 36 37  1  0  0  0
 35  1  1  0  0  0
  1  2  1  0  0  0
  2  3  2  0  0  0
  3 13  1  0  0  0
 13 14  2  0  0  0
 14 15  1  0  0  0
 15 16  2  0  0  0
 16 17  1  0  0  0
 17 23  1  0  0  0
 23 24  1  0  0  0
 24 25  2  0  0  0
 25 26  1  0  0  0
 26 27  2  0  0  0
 27 28  1  0  0  0
 28 29  1  0  0  0
 28 30  2  0  0  0
 30 31  1  0  0  0
 17 18  1  0  0  0
 18 19  2  0  0  0
 18 20  1  0  0  0
 20 21  1  0  0  0
 21 22  2  0  0  0
  3  4  1  0  0  0
  4  5  2  0  0  0
  5  6  1  0  0  0
  5  7  1  0  0  0
  7  8  2  0  0  0
  8  9  1  0  0  0
  9 10  2  0  0  0
 37 32  1  0  0  0
 10  1  1  0  0  0
 22 13  1  0  0  0
 10  4  1  0  0  0
 21 16  1  0  0  0
 30 24  1  0  0  0
  6 11  1  0  0  0
  6 12  1  0  0  0
M  END
> <minimizedAffinity>
-8.28160

> <CNNscore>
0.1071357056

> <CNNaffinity>
6.8824720383

> <CNN_VS>
0.7373585105

> <CNNaffinity_variance>
0.3049812019

$$$$
[H]c1nc(N([H])[H])c2c(-c3c([H])c([H])c4c(c3[H])C([H])([H])C(=O)N4C([H])([H])c3c([H])c([H])c([H])c(F)c3C([H])([H])[H])nn(C3([H])C([H])([H])C([H])([H])N(C([H])(C([H])([H])[H])C([H])([H])[H])C([H])([H])C3([H])[H])c2n1


 40 45  0  0  0  0  0  0  0  0999 V2000
    0.5293  -51.7724  -23.2774 N   0  0  0  0  0  0  0  0  0  0  0  0
    1.3587  -50.8120  -22.9641 N   0  0  0  0  0  0  0  0  0  0  0  0
    1.4199  -50.6447  -21.5988 C   0  0  0  0  0  0  0  0  0  0  0  0
    0.5756  -51.5639  -21.0611 C   0  0  0  0  0  0  0  0  0  0  0  0
    0.2141  -51.9055  -19.7685 C   0  0  0  0  0  0  0  0  0  0  0  0
    0.7749  -51.2492  -18.6432 N   0  0  0  0  0  0  0  0  0  0  0  0
   -0.6749  -52.9172  -19.6229 N   0  0  0  0  0  0  0  0  0  0  0  0
   -1.1847  -53.5639  -20.6841 C   0  0  0  0  0  0  0  0  0  0  0  0
   -0.8480  -53.2522  -21.9450 N   0  0  0  0  0  0  0  0  0  0  0  0
    0.0316  -52.2545  -22.1354 C   0  0  0  0  0  0  0  0  0  0  0  0
    0.2197  -50.6258  -18.0017 H   0  0  0  0  0  0  0  0  0  0  0  0
    1.7959  -51.4143  -18.4696 H   0  0  0  0  0  0  0  0  0  0  0  0
    2.2718  -49.6725  -20.9345 C   0  0  0  0  0  0  0  0  0  0  0  0
    1.8664  -48.4647  -20.4392 C   0  0  0  0  0  0  0  0  0  0  0  0
    2.7200  -47.5795  -19.7900 C   0  0  0  0  0  0  0  0  0  0  0  0
    4.0439  -47.9296  -19.6349 C   0  0  0  0  0  0  0  0  0  0  0  0
    5.1593  -47.2497  -19.0248 N   0  0  0  0  0  0  0  0  0  0  0  0
    6.3313  -48.0527  -19.1327 C   0  0  0  0  0  0  0  0  0  0  0  0
    7.4575  -47.7145  -18.6887 O   0  0  0  0  0  0  0  0  0  0  0  0
    5.9454  -49.2991  -19.8425 C   0  0  0  0  0  0  0  0  0  0  0  0
    4.4956  -49.1350  -20.1184 C   0  0  0  0  0  0  0  0  0  0  0  0
    3.6205  -49.9789  -20.7518 C   0  0  0  0  0  0  0  0  0  0  0  0
    5.1097  -45.9433  -18.3966 C   0  0  0  0  0  0  0  0  0  0  0  0
    4.3158  -45.9493  -17.1569 C   0  0  0  0  0  0  0  0  0  0  0  0
    4.6200  -46.8465  -16.1644 C   0  0  0  0  0  0  0  0  0  0  0  0
    3.9318  -46.9189  -14.9781 C   0  0  0  0  0  0  0  0  0  0  0  0
    2.8822  -46.0646  -14.7432 C   0  0  0  0  0  0  0  0  0  0  0  0
    2.5509  -45.1511  -15.7201 C   0  0  0  0  0  0  0  0  0  0  0  0
    1.5150  -44.2998  -15.4991 F   0  0  0  0  0  0  0  0  0  0  0  0
    3.2677  -45.0958  -16.9234 C   0  0  0  0  0  0  0  0  0  0  0  0
    2.9027  -44.1100  -17.9673 C   0  0  0  0  0  0  0  0  0  0  0  0
   -0.6183  -52.7988  -26.8790 N   0  0  0  0  0  0  0  0  0  0  0  0
   -0.0719  -53.9767  -26.2251 C   0  0  0  0  0  0  0  0  0  0  0  0
    0.7044  -53.5700  -24.9673 C   0  0  0  0  0  0  0  0  0  0  0  0
    0.2611  -52.1752  -24.6308 C   0  0  0  0  0  0  0  0  0  0  0  0
    0.7791  -51.2292  -25.6629 C   0  0  0  0  0  0  0  0  0  0  0  0
    0.4265  -51.8273  -27.0209 C   0  0  0  0  0  0  0  0  0  0  0  0
   -2.5442  -52.5496  -28.3714 C   0  0  0  0  0  0  0  0  0  0  0  0
   -1.1653  -53.1832  -28.1441 C   0  0  0  0  0  0  0  0  0  0  0  0
   -0.3086  -52.7408  -29.3100 C   0  0  0  0  0  0  0  0  0  0  0  0
 38 39  1  0  0  0
 39 40  1  0  0  0
 39 32  1  0  0  0
 32 33  1  0  0  0
 33 34  1  0  0  0
 34 35  1  0  0  0
 35 36  1  0  0  0
 36 37  1  0  0  0
 35  1  1  0  0  0
  1  2  1  0  0  0
  2  3  2  0  0  0
  3 13  1  0  0  0
 13 14  2  0  0  0
 14 15  1  0  0  0
 15 16  2  0  0  0
 16 17  1  0  0  0
 17 23  1  0  0  0
 23 24  1  0  0  0
 24 25  2  0  0  0
 25 26  1  0  0  0
 26 27  2  0  0  0
 27 28  1  0  0  0
 28 29  1  0  0  0
 28 30  2  0  0  0
 30 31  1  0  0  0
 17 18  1  0  0  0
 18 19  2  0  0  0
 18 20  1  0  0  0
 20 21  1  0  0  0
 21 22  2  0  0  0
  3  4  1  0  0  0
  4  5  2  0  0  0
  5  6  1  0  0  0
  5  7  1  0  0  0
  7  8  2  0  0  0
  8  9  1  0  0  0
  9 10  2  0  0  0
 37 32  1  0  0  0
 10  1  1  0  0  0
 22 13  1  0  0  0
 10  4  1  0  0  0
 21 16  1  0  0  0
 30 24  1  0  0  0
  6 11  1  0  0  0
  6 12  1  0  0  0
M  END
> <minimizedAffinity>
-8.04474

> <CNNscore>
0.1006853357

> <CNNaffinity>
6.8880438805

> <CNN_VS>
0.6935250163

> <CNNaffinity_variance>
0.3217893839

$$$$
[H]c1nc(N([H])c2c([H])c([H])c(-n3nc([H])c([H])c3[H])c([H])c2[H])nc(Oc2c([H])c([H])c(N([H])C(=O)O[C@]3([H])C([H])([H])N([H])[C@]([H])(C(=O)N4C([H])([H])C([H])([H])C([H])([H])C4([H])[H])C3([H])[H])c([H])c2F)c1[H]


 45 50  0  0  0  0  0  0  0  0999 V2000
    2.9327  -52.3524  -25.6901 F   0  0  0  0  0  0  0  0  0  0  0  0
    2.7846  -51.2674  -24.8697 C   0  0  0  0  0  0  0  0  0  0  0  0
    3.5685  -50.1684  -24.9471 C   0  0  0  0  0  0  0  0  0  0  0  0
    3.4049  -49.0794  -24.1065 C   0  0  0  0  0  0  0  0  0  0  0  0
    2.4102  -49.1557  -23.1855 C   0  0  0  0  0  0  0  0  0  0  0  0
    1.5906  -50.2799  -23.0890 C   0  0  0  0  0  0  0  0  0  0  0  0
    1.7410  -51.3777  -23.9210 C   0  0  0  0  0  0  0  0  0  0  0  0
    4.2321  -47.9544  -24.2333 N   0  0  0  0  0  0  0  0  0  0  0  0
    5.4410  -47.6786  -23.5785 C   0  0  0  0  0  0  0  0  0  0  0  0
    6.0218  -48.4103  -22.7437 O   0  0  0  0  0  0  0  0  0  0  0  0
    3.9001  -47.2044  -24.9188 H   0  0  0  0  0  0  0  0  0  0  0  0
    6.1383  -46.4718  -23.8329 O   0  0  0  0  0  0  0  0  0  0  0  0
    5.6979  -45.5420  -24.7663 C   0  0  0  0  0  0  0  0  0  0  0  0
    4.5278  -44.7640  -24.1504 C   0  0  0  0  0  0  0  0  0  0  0  0
    3.7353  -44.3112  -25.2466 N   0  0  0  0  0  0  0  0  0  0  0  0
    4.2267  -44.9319  -26.4702 C   0  0  0  0  0  0  0  0  0  0  0  0
    4.9477  -46.1821  -25.9448 C   0  0  0  0  0  0  0  0  0  0  0  0
    2.7209  -44.5542  -25.1290 H   0  0  0  0  0  0  0  0  0  0  0  0
    3.1319  -45.2574  -27.3950 C   0  0  0  0  0  0  0  0  0  0  0  0
    2.0565  -45.6563  -26.8363 O   0  0  0  0  0  0  0  0  0  0  0  0
    3.1230  -45.1835  -28.7866 N   0  0  0  0  0  0  0  0  0  0  0  0
    4.1664  -44.7485  -29.6700 C   0  0  0  0  0  0  0  0  0  0  0  0
    4.1893  -45.9078  -30.6805 C   0  0  0  0  0  0  0  0  0  0  0  0
    2.7221  -46.3473  -30.7341 C   0  0  0  0  0  0  0  0  0  0  0  0
    2.0244  -45.5484  -29.6578 C   0  0  0  0  0  0  0  0  0  0  0  0
    1.0109  -52.4630  -23.8876 O   0  0  0  0  0  0  0  0  0  0  0  0
    0.2231  -53.2664  -23.2246 C   0  0  0  0  0  0  0  0  0  0  0  0
   -0.6552  -54.1828  -23.7684 C   0  0  0  0  0  0  0  0  0  0  0  0
   -1.4237  -54.9654  -22.9381 C   0  0  0  0  0  0  0  0  0  0  0  0
   -1.3265  -54.8459  -21.6320 N   0  0  0  0  0  0  0  0  0  0  0  0
   -0.4689  -53.9500  -21.0454 C   0  0  0  0  0  0  0  0  0  0  0  0
    0.2489  -53.2196  -21.8424 N   0  0  0  0  0  0  0  0  0  0  0  0
   -0.4541  -53.9284  -19.6298 N   0  0  0  0  0  0  0  0  0  0  0  0
   -0.5178  -54.8772  -19.1293 H   0  0  0  0  0  0  0  0  0  0  0  0
   -0.3725  -52.8153  -18.7800 C   0  0  0  0  0  0  0  0  0  0  0  0
    0.4142  -51.7202  -19.1742 C   0  0  0  0  0  0  0  0  0  0  0  0
    0.5599  -50.5975  -18.3916 C   0  0  0  0  0  0  0  0  0  0  0  0
   -0.0567  -50.4900  -17.1841 C   0  0  0  0  0  0  0  0  0  0  0  0
   -0.8322  -51.5410  -16.7684 C   0  0  0  0  0  0  0  0  0  0  0  0
   -0.9839  -52.6915  -17.5658 C   0  0  0  0  0  0  0  0  0  0  0  0
    0.0832  -49.3349  -16.3634 N   0  0  0  0  0  0  0  0  0  0  0  0
    1.2306  -48.7634  -15.9921 C   0  0  0  0  0  0  0  0  0  0  0  0
    0.9657  -47.6643  -15.1962 C   0  0  0  0  0  0  0  0  0  0  0  0
   -0.4207  -47.6025  -15.1058 C   0  0  0  0  0  0  0  0  0  0  0  0
   -0.8870  -48.6187  -15.8183 N   0  0  0  0  0  0  0  0  0  0  0  0
  1  2  1  0  0  0
  2  3  2  0  0  0
  3  4  1  0  0  0
  4  8  1  0  0  0
  8  9  1  0  0  0
  9 10  2  0  0  0
  9 12  1  0  0  0
 12 13  1  0  0  0
 13 14  1  0  0  0
 14 15  1  0  0  0
 15 16  1  0  0  0
 16 17  1  0  0  0
 16 19  1  0  0  0
 19 20  2  0  0  0
 19 21  1  0  0  0
 21 22  1  0  0  0
 22 23  1  0  0  0
 23 24  1  0  0  0
 24 25  1  0  0  0
  4  5  2  0  0  0
  5  6  1  0  0  0
  6  7  2  0  0  0
  7 26  1  0  0  0
 26 27  1  0  0  0
 27 28  2  0  0  0
 28 29  1  0  0  0
 29 30  2  0  0  0
 30 31  1  0  0  0
 31 33  1  0  0  0
 33 35  1  0  0  0
 35 36  2  0  0  0
 36 37  1  0  0  0
 37 38  2  0  0  0
 38 39  1  0  0  0
 39 40  2  0  0  0
 38 41  1  0  0  0
 41 42  1  0  0  0
 42 43  2  0  0  0
 43 44  1  0  0  0
 44 45  2  0  0  0
 31 32  2  0  0  0
  7  2  1  0  0  0
 32 27  1  0  0  0
 17 13  1  0  0  0
 25 21  1  0  0  0
 40 35  1  0  0  0
 45 41  1  0  0  0
  8 11  1  0  0  0
 15 18  1  0  0  0
 33 34  1  0  0  0
M  END
> <minimizedAffinity>
-8.20148

> <CNNscore>
0.3966562748

> <CNNaffinity>
7.0987420082

> <CNN_VS>
2.8157606125

> <CNNaffinity_variance>
0.2843323946

$$$$
[H]c1nc(N([H])c2c([H])c([H])c(-n3nc([H])c([H])c3[H])c([H])c2[H])nc(Oc2c([H])c([H])c(N([H])C(=O)O[C@]3([H])C([H])([H])N([H])[C@]([H])(C(=O)N4C([H])([H])C([H])([H])C([H])([H])C4([H])[H])C3([H])[H])c([H])c2F)c1[H]


 45 50  0  0  0  0  0  0  0  0999 V2000
    2.3491  -51.1821  -21.9156 F   0  0  0  0  0  0  0  0  0  0  0  0
    2.4393  -50.7520  -23.2114 C   0  0  0  0  0  0  0  0  0  0  0  0
    3.0006  -49.5730  -23.5625 C   0  0  0  0  0  0  0  0  0  0  0  0
    3.0817  -49.1529  -24.8801 C   0  0  0  0  0  0  0  0  0  0  0  0
    2.5686  -49.9828  -25.8243 C   0  0  0  0  0  0  0  0  0  0  0  0
    1.9854  -51.2028  -25.4835 C   0  0  0  0  0  0  0  0  0  0  0  0
    1.8955  -51.6378  -24.1709 C   0  0  0  0  0  0  0  0  0  0  0  0
    3.6864  -47.9286  -25.1987 N   0  0  0  0  0  0  0  0  0  0  0  0
    4.9516  -47.6963  -25.7569 C   0  0  0  0  0  0  0  0  0  0  0  0
    5.7922  -48.5641  -26.0884 O   0  0  0  0  0  0  0  0  0  0  0  0
    3.1097  -47.0533  -24.9889 H   0  0  0  0  0  0  0  0  0  0  0  0
    5.3981  -46.3743  -26.0025 O   0  0  0  0  0  0  0  0  0  0  0  0
    5.2227  -45.7468  -27.2293 C   0  0  0  0  0  0  0  0  0  0  0  0
    4.2502  -44.5766  -27.0327 C   0  0  0  0  0  0  0  0  0  0  0  0
    3.6252  -44.3669  -28.2976 N   0  0  0  0  0  0  0  0  0  0  0  0
    3.9966  -45.4559  -29.1921 C   0  0  0  0  0  0  0  0  0  0  0  0
    4.3825  -46.5753  -28.2138 C   0  0  0  0  0  0  0  0  0  0  0  0
    2.5787  -44.3346  -28.2220 H   0  0  0  0  0  0  0  0  0  0  0  0
    2.8879  -45.8369  -30.0782 C   0  0  0  0  0  0  0  0  0  0  0  0
    1.7460  -45.9029  -29.5132 O   0  0  0  0  0  0  0  0  0  0  0  0
    2.9291  -46.1290  -31.4403 N   0  0  0  0  0  0  0  0  0  0  0  0
    4.0543  -46.1085  -32.3300 C   0  0  0  0  0  0  0  0  0  0  0  0
    3.9083  -47.4806  -33.0096 C   0  0  0  0  0  0  0  0  0  0  0  0
    2.3900  -47.6842  -33.0523 C   0  0  0  0  0  0  0  0  0  0  0  0
    1.8085  -46.5329  -32.2650 C   0  0  0  0  0  0  0  0  0  0  0  0
    1.3634  -52.7670  -23.7787 O   0  0  0  0  0  0  0  0  0  0  0  0
    0.4098  -53.4006  -23.1504 C   0  0  0  0  0  0  0  0  0  0  0  0
   -0.5880  -54.1591  -23.7304 C   0  0  0  0  0  0  0  0  0  0  0  0
   -1.5279  -54.7715  -22.9342 C   0  0  0  0  0  0  0  0  0  0  0  0
   -1.4815  -54.6389  -21.6266 N   0  0  0  0  0  0  0  0  0  0  0  0
   -0.5101  -53.8960  -21.0048 C   0  0  0  0  0  0  0  0  0  0  0  0
    0.3689  -53.3250  -21.7699 N   0  0  0  0  0  0  0  0  0  0  0  0
   -0.5681  -53.8423  -19.5912 N   0  0  0  0  0  0  0  0  0  0  0  0
   -0.7770  -54.7636  -19.0788 H   0  0  0  0  0  0  0  0  0  0  0  0
   -0.3927  -52.7279  -18.7575 C   0  0  0  0  0  0  0  0  0  0  0  0
   -1.0991  -52.6737  -17.5444 C   0  0  0  0  0  0  0  0  0  0  0  0
   -0.9957  -51.6092  -16.6781 C   0  0  0  0  0  0  0  0  0  0  0  0
   -0.1962  -50.5444  -16.9555 C   0  0  0  0  0  0  0  0  0  0  0  0
    0.5074  -50.5646  -18.1316 C   0  0  0  0  0  0  0  0  0  0  0  0
    0.4045  -51.6515  -19.0207 C   0  0  0  0  0  0  0  0  0  0  0  0
   -0.0777  -49.4362  -16.0693 N   0  0  0  0  0  0  0  0  0  0  0  0
    0.9952  -49.1164  -15.3429 C   0  0  0  0  0  0  0  0  0  0  0  0
    0.7330  -47.9776  -14.6039 C   0  0  0  0  0  0  0  0  0  0  0  0
   -0.5723  -47.6229  -14.9274 C   0  0  0  0  0  0  0  0  0  0  0  0
   -0.9990  -48.5251  -15.8001 N   0  0  0  0  0  0  0  0  0  0  0  0
  1  2  1  0  0  0
  2  3  2  0  0  0
  3  4  1  0  0  0
  4  8  1  0  0  0
  8  9  1  0  0  0
  9 10  2  0  0  0
  9 12  1  0  0  0
 12 13  1  0  0  0
 13 14  1  0  0  0
 14 15  1  0  0  0
 15 16  1  0  0  0
 16 17  1  0  0  0
 16 19  1  0  0  0
 19 20  2  0  0  0
 19 21  1  0  0  0
 21 22  1  0  0  0
 22 23  1  0  0  0
 23 24  1  0  0  0
 24 25  1  0  0  0
  4  5  2  0  0  0
  5  6  1  0  0  0
  6  7  2  0  0  0
  7 26  1  0  0  0
 26 27  1  0  0  0
 27 28  2  0  0  0
 28 29  1  0  0  0
 29 30  2  0  0  0
 30 31  1  0  0  0
 31 33  1  0  0  0
 33 35  1  0  0  0
 35 36  2  0  0  0
 36 37  1  0  0  0
 37 38  2  0  0  0
 38 39  1  0  0  0
 39 40  2  0  0  0
 38 41  1  0  0  0
 41 42  1  0  0  0
 42 43  2  0  0  0
 43 44  1  0  0  0
 44 45  2  0  0  0
 31 32  2  0  0  0
  7  2  1  0  0  0
 32 27  1  0  0  0
 17 13  1  0  0  0
 25 21  1  0  0  0
 40 35  1  0  0  0
 45 41  1  0  0  0
  8 11  1  0  0  0
 15 18  1  0  0  0
 33 34  1  0  0  0
M  END
> <minimizedAffinity>
-8.54615

> <CNNscore>
0.3664550781

> <CNNaffinity>
6.9067931175

> <CNN_VS>
2.5310294628

> <CNNaffinity_variance>
0.3003249764

$$$$
[H]c1nc(N([H])c2c([H])c([H])c(-n3nc([H])c([H])c3[H])c([H])c2[H])nc(Oc2c([H])c([H])c(N([H])C(=O)O[C@]3([H])C([H])([H])N([H])[C@]([H])(C(=O)N4C([H])([H])C([H])([H])C([H])([H])C4([H])[H])C3([H])[H])c([H])c2F)c1[H]


 45 50  0  0  0  0  0  0  0  0999 V2000
    3.3947  -52.0465  -19.7309 F   0  0  0  0  0  0  0  0  0  0  0  0
    3.3583  -50.7368  -20.1252 C   0  0  0  0  0  0  0  0  0  0  0  0
    4.1969  -50.2190  -21.0509 C   0  0  0  0  0  0  0  0  0  0  0  0
    4.1466  -48.8894  -21.4367 C   0  0  0  0  0  0  0  0  0  0  0  0
    3.2071  -48.1102  -20.8419 C   0  0  0  0  0  0  0  0  0  0  0  0
    2.3327  -48.6245  -19.8850 C   0  0  0  0  0  0  0  0  0  0  0  0
    2.3699  -49.9513  -19.4872 C   0  0  0  0  0  0  0  0  0  0  0  0
    5.0268  -48.3996  -22.4121 N   0  0  0  0  0  0  0  0  0  0  0  0
    6.3994  -48.1360  -22.2993 C   0  0  0  0  0  0  0  0  0  0  0  0
    7.1103  -48.3014  -21.2810 O   0  0  0  0  0  0  0  0  0  0  0  0
    4.5982  -48.1982  -23.3704 H   0  0  0  0  0  0  0  0  0  0  0  0
    7.1284  -47.6305  -23.4041 O   0  0  0  0  0  0  0  0  0  0  0  0
    7.1323  -48.2602  -24.6423 C   0  0  0  0  0  0  0  0  0  0  0  0
    7.6454  -49.6929  -24.4480 C   0  0  0  0  0  0  0  0  0  0  0  0
    8.2143  -50.0804  -25.6974 N   0  0  0  0  0  0  0  0  0  0  0  0
    8.2677  -48.9154  -26.5713 C   0  0  0  0  0  0  0  0  0  0  0  0
    8.2416  -47.7477  -25.5740 C   0  0  0  0  0  0  0  0  0  0  0  0
    9.1849  -50.4651  -25.5884 H   0  0  0  0  0  0  0  0  0  0  0  0
    9.4751  -48.9163  -27.4091 C   0  0  0  0  0  0  0  0  0  0  0  0
   10.5583  -49.1866  -26.7915 O   0  0  0  0  0  0  0  0  0  0  0  0
    9.5812  -48.6637  -28.7756 N   0  0  0  0  0  0  0  0  0  0  0  0
    8.5412  -48.3642  -29.7173 C   0  0  0  0  0  0  0  0  0  0  0  0
    9.1284  -47.1219  -30.4084 C   0  0  0  0  0  0  0  0  0  0  0  0
   10.6365  -47.3932  -30.3819 C   0  0  0  0  0  0  0  0  0  0  0  0
   10.8044  -48.6447  -29.5518 C   0  0  0  0  0  0  0  0  0  0  0  0
    1.5831  -50.5010  -18.5979 O   0  0  0  0  0  0  0  0  0  0  0  0
    0.5960  -51.3093  -18.3187 C   0  0  0  0  0  0  0  0  0  0  0  0
   -0.0551  -51.4160  -17.1055 C   0  0  0  0  0  0  0  0  0  0  0  0
   -1.0839  -52.3177  -16.9617 C   0  0  0  0  0  0  0  0  0  0  0  0
   -1.4501  -53.0771  -17.9711 N   0  0  0  0  0  0  0  0  0  0  0  0
   -0.8337  -53.0074  -19.1948 C   0  0  0  0  0  0  0  0  0  0  0  0
    0.1346  -52.1517  -19.3140 N   0  0  0  0  0  0  0  0  0  0  0  0
   -1.3306  -53.8726  -20.1992 N   0  0  0  0  0  0  0  0  0  0  0  0
   -1.9817  -54.6651  -19.8784 H   0  0  0  0  0  0  0  0  0  0  0  0
   -1.0773  -53.8366  -21.5784 C   0  0  0  0  0  0  0  0  0  0  0  0
   -0.6876  -52.6199  -22.1625 C   0  0  0  0  0  0  0  0  0  0  0  0
   -0.4363  -52.4960  -23.5100 C   0  0  0  0  0  0  0  0  0  0  0  0
   -0.5538  -53.5565  -24.3535 C   0  0  0  0  0  0  0  0  0  0  0  0
   -0.9326  -54.7594  -23.8166 C   0  0  0  0  0  0  0  0  0  0  0  0
   -1.1908  -54.8904  -22.4387 C   0  0  0  0  0  0  0  0  0  0  0  0
   -0.2963  -53.4449  -25.7494 N   0  0  0  0  0  0  0  0  0  0  0  0
    0.1093  -54.4252  -26.5591 C   0  0  0  0  0  0  0  0  0  0  0  0
    0.2535  -53.9362  -27.8444 C   0  0  0  0  0  0  0  0  0  0  0  0
   -0.0911  -52.5911  -27.7658 C   0  0  0  0  0  0  0  0  0  0  0  0
   -0.4075  -52.3601  -26.4992 N   0  0  0  0  0  0  0  0  0  0  0  0
  1  2  1  0  0  0
  2  3  2  0  0  0
  3  4  1  0  0  0
  4  8  1  0  0  0
  8  9  1  0  0  0
  9 10  2  0  0  0
  9 12  1  0  0  0
 12 13  1  0  0  0
 13 14  1  0  0  0
 14 15  1  0  0  0
 15 16  1  0  0  0
 16 17  1  0  0  0
 16 19  1  0  0  0
 19 20  2  0  0  0
 19 21  1  0  0  0
 21 22  1  0  0  0
 22 23  1  0  0  0
 23 24  1  0  0  0
 24 25  1  0  0  0
  4  5  2  0  0  0
  5  6  1  0  0  0
  6  7  2  0  0  0
  7 26  1  0  0  0
 26 27  1  0  0  0
 27 28  2  0  0  0
 28 29  1  0  0  0
 29 30  2  0  0  0
 30 31  1  0  0  0
 31 33  1  0  0  0
 33 35  1  0  0  0
 35 36  2  0  0  0
 36 37  1  0  0  0
 37 38  2  0  0  0
 38 39  1  0  0  0
 39 40  2  0  0  0
 38 41  1  0  0  0
 41 42  1  0  0  0
 42 43  2  0  0  0
 43 44  1  0  0  0
 44 45  2  0  0  0
 31 32  2  0  0  0
  7  2  1  0  0  0
 32 27  1  0  0  0
 17 13  1  0  0  0
 25 21  1  0  0  0
 40 35  1  0  0  0
 45 41  1  0  0  0
  8 11  1  0  0  0
 15 18  1  0  0  0
 33 34  1  0  0  0
M  END
> <minimizedAffinity>
-8.68720

> <CNNscore>
0.3082287312

> <CNNaffinity>
7.0129265785

> <CNN_VS>
2.1615855694

> <CNNaffinity_variance>
0.0816544816

$$$$
[H]c1nc(N([H])c2c([H])c([H])c(-n3nc([H])c([H])c3[H])c([H])c2[H])nc(Oc2c([H])c([H])c(N([H])C(=O)O[C@]3([H])C([H])([H])N([H])[C@]([H])(C(=O)N4C([H])([H])C([H])([H])C([H])([H])C4([H])[H])C3([H])[H])c([H])c2F)c1[H]


 45 50  0  0  0  0  0  0  0  0999 V2000
    3.4464  -53.0076  -24.9339 F   0  0  0  0  0  0  0  0  0  0  0  0
    3.2180  -51.7779  -24.3791 C   0  0  0  0  0  0  0  0  0  0  0  0
    4.0956  -50.7528  -24.4645 C   0  0  0  0  0  0  0  0  0  0  0  0
    3.8480  -49.5145  -23.8948 C   0  0  0  0  0  0  0  0  0  0  0  0
    2.6704  -49.3635  -23.2361 C   0  0  0  0  0  0  0  0  0  0  0  0
    1.7517  -50.4078  -23.1363 C   0  0  0  0  0  0  0  0  0  0  0  0
    1.9838  -51.6525  -23.6994 C   0  0  0  0  0  0  0  0  0  0  0  0
    4.7810  -48.4755  -24.0218 N   0  0  0  0  0  0  0  0  0  0  0  0
    4.7078  -47.3262  -24.8218 C   0  0  0  0  0  0  0  0  0  0  0  0
    3.7666  -47.0058  -25.5841 O   0  0  0  0  0  0  0  0  0  0  0  0
    5.6681  -48.5687  -23.4325 H   0  0  0  0  0  0  0  0  0  0  0  0
    5.7644  -46.3822  -24.8238 O   0  0  0  0  0  0  0  0  0  0  0  0
    5.8383  -45.3481  -23.8993 C   0  0  0  0  0  0  0  0  0  0  0  0
    6.8808  -45.7281  -22.8397 C   0  0  0  0  0  0  0  0  0  0  0  0
    6.5100  -45.0281  -21.6535 N   0  0  0  0  0  0  0  0  0  0  0  0
    5.2040  -44.4145  -21.8581 C   0  0  0  0  0  0  0  0  0  0  0  0
    4.6057  -45.2697  -22.9850 C   0  0  0  0  0  0  0  0  0  0  0  0
    6.4573  -45.6629  -20.8191 H   0  0  0  0  0  0  0  0  0  0  0  0
    4.3901  -44.4418  -20.6348 C   0  0  0  0  0  0  0  0  0  0  0  0
    3.7755  -43.3548  -20.3733 O   0  0  0  0  0  0  0  0  0  0  0  0
    4.2080  -45.4938  -19.7391 N   0  0  0  0  0  0  0  0  0  0  0  0
    4.7450  -46.8231  -19.7932 C   0  0  0  0  0  0  0  0  0  0  0  0
    5.3090  -46.9633  -18.3691 C   0  0  0  0  0  0  0  0  0  0  0  0
    4.3339  -46.1315  -17.5288 C   0  0  0  0  0  0  0  0  0  0  0  0
    3.4179  -45.4596  -18.5252 C   0  0  0  0  0  0  0  0  0  0  0  0
    1.1694  -52.6753  -23.6457 O   0  0  0  0  0  0  0  0  0  0  0  0
    0.2787  -53.3681  -22.9883 C   0  0  0  0  0  0  0  0  0  0  0  0
   -0.5786  -54.3113  -23.5199 C   0  0  0  0  0  0  0  0  0  0  0  0
   -1.4669  -54.9646  -22.6975 C   0  0  0  0  0  0  0  0  0  0  0  0
   -1.5041  -54.6965  -21.4105 N   0  0  0  0  0  0  0  0  0  0  0  0
   -0.6729  -53.7680  -20.8367 C   0  0  0  0  0  0  0  0  0  0  0  0
    0.1591  -53.1609  -21.6260 N   0  0  0  0  0  0  0  0  0  0  0  0
   -0.8082  -53.5814  -19.4398 N   0  0  0  0  0  0  0  0  0  0  0  0
   -1.2373  -54.3930  -18.8811 H   0  0  0  0  0  0  0  0  0  0  0  0
   -0.4571  -52.4580  -18.6766 C   0  0  0  0  0  0  0  0  0  0  0  0
   -0.9231  -52.3665  -17.3545 C   0  0  0  0  0  0  0  0  0  0  0  0
   -0.6377  -51.2907  -16.5450 C   0  0  0  0  0  0  0  0  0  0  0  0
    0.1178  -50.2504  -16.9886 C   0  0  0  0  0  0  0  0  0  0  0  0
    0.5888  -50.3071  -18.2745 C   0  0  0  0  0  0  0  0  0  0  0  0
    0.2991  -51.4058  -19.1061 C   0  0  0  0  0  0  0  0  0  0  0  0
    0.4228  -49.1309  -16.1633 N   0  0  0  0  0  0  0  0  0  0  0  0
    1.6034  -48.5156  -16.0707 C   0  0  0  0  0  0  0  0  0  0  0  0
    1.5141  -47.4731  -15.1667 C   0  0  0  0  0  0  0  0  0  0  0  0
    0.1997  -47.4928  -14.7129 C   0  0  0  0  0  0  0  0  0  0  0  0
   -0.3969  -48.4971  -15.3399 N   0  0  0  0  0  0  0  0  0  0  0  0
  1  2  1  0  0  0
  2  3  2  0  0  0
  3  4  1  0  0  0
  4  8  1  0  0  0
  8  9  1  0  0  0
  9 10  2  0  0  0
  9 12  1  0  0  0
 12 13  1  0  0  0
 13 14  1  0  0  0
 14 15  1  0  0  0
 15 16  1  0  0  0
 16 17  1  0  0  0
 16 19  1  0  0  0
 19 20  2  0  0  0
 19 21  1  0  0  0
 21 22  1  0  0  0
 22 23  1  0  0  0
 23 24  1  0  0  0
 24 25  1  0  0  0
  4  5  2  0  0  0
  5  6  1  0  0  0
  6  7  2  0  0  0
  7 26  1  0  0  0
 26 27  1  0  0  0
 27 28  2  0  0  0
 28 29  1  0  0  0
 29 30  2  0  0  0
 30 31  1  0  0  0
 31 33  1  0  0  0
 33 35  1  0  0  0
 35 36  2  0  0  0
 36 37  1  0  0  0
 37 38  2  0  0  0
 38 39  1  0  0  0
 39 40  2  0  0  0
 38 41  1  0  0  0
 41 42  1  0  0  0
 42 43  2  0  0  0
 43 44  1  0  0  0
 44 45  2  0  0  0
 31 32  2  0  0  0
  7  2  1  0  0  0
 32 27  1  0  0  0
 17 13  1  0  0  0
 25 21  1  0  0  0
 40 35  1  0  0  0
 45 41  1  0  0  0
  8 11  1  0  0  0
 15 18  1  0  0  0
 33 34  1  0  0  0
M  END
> <minimizedAffinity>
-7.41050

> <CNNscore>
0.2859360874

> <CNNaffinity>
6.9983644485

> <CNN_VS>
2.0010850430

> <CNNaffinity_variance>
0.3087381423

$$$$
[H]c1nc(N([H])c2c([H])c([H])c(-n3nc([H])c([H])c3[H])c([H])c2[H])nc(Oc2c([H])c([H])c(N([H])C(=O)O[C@]3([H])C([H])([H])N([H])[C@]([H])(C(=O)N4C([H])([H])C([H])([H])C([H])([H])C4([H])[H])C3([H])[H])c([H])c2F)c1[H]


 45 50  0  0  0  0  0  0  0  0999 V2000
    3.4194  -53.3255  -24.7622 F   0  0  0  0  0  0  0  0  0  0  0  0
    3.4524  -52.0807  -24.1951 C   0  0  0  0  0  0  0  0  0  0  0  0
    4.5351  -51.2723  -24.2469 C   0  0  0  0  0  0  0  0  0  0  0  0
    4.5510  -50.0150  -23.6653 C   0  0  0  0  0  0  0  0  0  0  0  0
    3.4194  -49.6155  -23.0301 C   0  0  0  0  0  0  0  0  0  0  0  0
    2.2921  -50.4338  -22.9651 C   0  0  0  0  0  0  0  0  0  0  0  0
    2.2595  -51.6939  -23.5406 C   0  0  0  0  0  0  0  0  0  0  0  0
    5.6917  -49.2049  -23.7573 N   0  0  0  0  0  0  0  0  0  0  0  0
    7.0370  -49.5656  -23.5952 C   0  0  0  0  0  0  0  0  0  0  0  0
    7.4774  -50.7102  -23.3389 O   0  0  0  0  0  0  0  0  0  0  0  0
    5.5167  -48.1740  -23.9797 H   0  0  0  0  0  0  0  0  0  0  0  0
    8.0622  -48.5956  -23.7191 O   0  0  0  0  0  0  0  0  0  0  0  0
    8.5386  -48.1717  -24.9531 C   0  0  0  0  0  0  0  0  0  0  0  0
    8.0557  -46.7337  -25.1834 C   0  0  0  0  0  0  0  0  0  0  0  0
    7.9997  -46.5587  -26.5979 N   0  0  0  0  0  0  0  0  0  0  0  0
    8.2155  -47.8489  -27.2404 C   0  0  0  0  0  0  0  0  0  0  0  0
    7.8231  -48.8420  -26.1365 C   0  0  0  0  0  0  0  0  0  0  0  0
    7.0747  -46.1754  -26.9132 H   0  0  0  0  0  0  0  0  0  0  0  0
    7.3980  -47.9989  -28.4523 C   0  0  0  0  0  0  0  0  0  0  0  0
    6.2186  -48.4434  -28.2541 O   0  0  0  0  0  0  0  0  0  0  0  0
    7.7463  -47.7178  -29.7721 N   0  0  0  0  0  0  0  0  0  0  0  0
    8.9778  -47.1881  -30.2831 C   0  0  0  0  0  0  0  0  0  0  0  0
    9.2695  -48.1838  -31.4186 C   0  0  0  0  0  0  0  0  0  0  0  0
    7.8692  -48.5649  -31.9111 C   0  0  0  0  0  0  0  0  0  0  0  0
    6.9116  -47.9145  -30.9399 C   0  0  0  0  0  0  0  0  0  0  0  0
    1.2399  -52.5137  -23.5190 O   0  0  0  0  0  0  0  0  0  0  0  0
    0.3739  -53.2108  -22.8338 C   0  0  0  0  0  0  0  0  0  0  0  0
   -0.5636  -54.0842  -23.3491 C   0  0  0  0  0  0  0  0  0  0  0  0
   -1.4125  -54.7523  -22.4975 C   0  0  0  0  0  0  0  0  0  0  0  0
   -1.3365  -54.5642  -21.1981 N   0  0  0  0  0  0  0  0  0  0  0  0
   -0.4223  -53.7071  -20.6395 C   0  0  0  0  0  0  0  0  0  0  0  0
    0.3711  -53.0849  -21.4563 N   0  0  0  0  0  0  0  0  0  0  0  0
   -0.4389  -53.6034  -19.2277 N   0  0  0  0  0  0  0  0  0  0  0  0
   -0.5493  -54.5185  -18.6751 H   0  0  0  0  0  0  0  0  0  0  0  0
   -0.3352  -52.4462  -18.4415 C   0  0  0  0  0  0  0  0  0  0  0  0
   -1.0693  -52.3733  -17.2461 C   0  0  0  0  0  0  0  0  0  0  0  0
   -1.0358  -51.2679  -16.4267 C   0  0  0  0  0  0  0  0  0  0  0  0
   -0.2824  -50.1786  -16.7360 C   0  0  0  0  0  0  0  0  0  0  0  0
    0.4466  -50.2162  -17.8961 C   0  0  0  0  0  0  0  0  0  0  0  0
    0.4151  -51.3448  -18.7373 C   0  0  0  0  0  0  0  0  0  0  0  0
   -0.2363  -49.0281  -15.8984 N   0  0  0  0  0  0  0  0  0  0  0  0
   -1.2854  -48.3651  -15.4078 C   0  0  0  0  0  0  0  0  0  0  0  0
   -0.8456  -47.3029  -14.6396 C   0  0  0  0  0  0  0  0  0  0  0  0
    0.5429  -47.3612  -14.6938 C   0  0  0  0  0  0  0  0  0  0  0  0
    0.8434  -48.4047  -15.4544 N   0  0  0  0  0  0  0  0  0  0  0  0
  1  2  1  0  0  0
  2  3  2  0  0  0
  3  4  1  0  0  0
  4  8  1  0  0  0
  8  9  1  0  0  0
  9 10  2  0  0  0
  9 12  1  0  0  0
 12 13  1  0  0  0
 13 14  1  0  0  0
 14 15  1  0  0  0
 15 16  1  0  0  0
 16 17  1  0  0  0
 16 19  1  0  0  0
 19 20  2  0  0  0
 19 21  1  0  0  0
 21 22  1  0  0  0
 22 23  1  0  0  0
 23 24  1  0  0  0
 24 25  1  0  0  0
  4  5  2  0  0  0
  5  6  1  0  0  0
  6  7  2  0  0  0
  7 26  1  0  0  0
 26 27  1  0  0  0
 27 28  2  0  0  0
 28 29  1  0  0  0
 29 30  2  0  0  0
 30 31  1  0  0  0
 31 33  1  0  0  0
 33 35  1  0  0  0
 35 36  2  0  0  0
 36 37  1  0  0  0
 37 38  2  0  0  0
 38 39  1  0  0  0
 39 40  2  0  0  0
 38 41  1  0  0  0
 41 42  1  0  0  0
 42 43  2  0  0  0
 43 44  1  0  0  0
 44 45  2  0  0  0
 31 32  2  0  0  0
  7  2  1  0  0  0
 32 27  1  0  0  0
 17 13  1  0  0  0
 25 21  1  0  0  0
 40 35  1  0  0  0
 45 41  1  0  0  0
  8 11  1  0  0  0
 15 18  1  0  0  0
 33 34  1  0  0  0
M  END
> <minimizedAffinity>
-7.75215

> <CNNscore>
0.2809320092

> <CNNaffinity>
6.6425466537

> <CNN_VS>
1.8661040068

> <CNNaffinity_variance>
0.2392705679

$$$$
[H]c1nc(N([H])c2c([H])c([H])c(-n3nc([H])c([H])c3[H])c([H])c2[H])nc(Oc2c([H])c([H])c(N([H])C(=O)O[C@]3([H])C([H])([H])N([H])[C@]([H])(C(=O)N4C([H])([H])C([H])([H])C([H])([H])C4([H])[H])C3([H])[H])c([H])c2F)c1[H]


 45 50  0  0  0  0  0  0  0  0999 V2000
    2.4745  -52.4590  -26.5308 F   0  0  0  0  0  0  0  0  0  0  0  0
    2.6472  -51.4810  -25.5896 C   0  0  0  0  0  0  0  0  0  0  0  0
    3.6198  -50.5447  -25.6650 C   0  0  0  0  0  0  0  0  0  0  0  0
    3.7807  -49.5625  -24.7013 C   0  0  0  0  0  0  0  0  0  0  0  0
    2.9103  -49.5730  -23.6593 C   0  0  0  0  0  0  0  0  0  0  0  0
    1.9004  -50.5298  -23.5625 C   0  0  0  0  0  0  0  0  0  0  0  0
    1.7259  -51.5192  -24.5168 C   0  0  0  0  0  0  0  0  0  0  0  0
    4.7946  -48.6024  -24.8289 N   0  0  0  0  0  0  0  0  0  0  0  0
    6.1799  -48.7991  -24.9203 C   0  0  0  0  0  0  0  0  0  0  0  0
    6.7801  -49.8989  -24.9119 O   0  0  0  0  0  0  0  0  0  0  0  0
    4.4728  -47.5835  -24.8600 H   0  0  0  0  0  0  0  0  0  0  0  0
    7.0577  -47.6932  -25.0375 O   0  0  0  0  0  0  0  0  0  0  0  0
    7.2432  -47.0156  -26.2358 C   0  0  0  0  0  0  0  0  0  0  0  0
    6.5312  -45.6605  -26.1337 C   0  0  0  0  0  0  0  0  0  0  0  0
    6.2007  -45.2874  -27.4701 N   0  0  0  0  0  0  0  0  0  0  0  0
    6.4768  -46.4124  -28.3545 C   0  0  0  0  0  0  0  0  0  0  0  0
    6.4295  -47.6111  -27.3955 C   0  0  0  0  0  0  0  0  0  0  0  0
    5.1901  -45.0211  -27.5687 H   0  0  0  0  0  0  0  0  0  0  0  0
    5.4860  -46.5135  -29.4351 C   0  0  0  0  0  0  0  0  0  0  0  0
    5.9699  -46.4675  -30.6147 O   0  0  0  0  0  0  0  0  0  0  0  0
    4.1033  -46.6535  -29.3318 N   0  0  0  0  0  0  0  0  0  0  0  0
    3.2967  -46.7599  -28.1501 C   0  0  0  0  0  0  0  0  0  0  0  0
    2.2134  -45.7089  -28.4461 C   0  0  0  0  0  0  0  0  0  0  0  0
    2.0672  -45.7842  -29.9698 C   0  0  0  0  0  0  0  0  0  0  0  0
    3.1630  -46.7163  -30.4323 C   0  0  0  0  0  0  0  0  0  0  0  0
    0.8031  -52.4464  -24.4910 O   0  0  0  0  0  0  0  0  0  0  0  0
    0.0933  -53.3056  -23.8102 C   0  0  0  0  0  0  0  0  0  0  0  0
   -0.6960  -54.3108  -24.3334 C   0  0  0  0  0  0  0  0  0  0  0  0
   -1.3885  -55.1440  -23.4857 C   0  0  0  0  0  0  0  0  0  0  0  0
   -1.3031  -54.9889  -22.1825 N   0  0  0  0  0  0  0  0  0  0  0  0
   -0.5325  -54.0052  -21.6161 C   0  0  0  0  0  0  0  0  0  0  0  0
    0.1144  -53.2280  -22.4293 N   0  0  0  0  0  0  0  0  0  0  0  0
   -0.5201  -53.9529  -20.2013 N   0  0  0  0  0  0  0  0  0  0  0  0
   -0.9757  -54.7756  -19.6812 H   0  0  0  0  0  0  0  0  0  0  0  0
    0.0105  -52.9513  -19.3748 C   0  0  0  0  0  0  0  0  0  0  0  0
    1.2928  -52.4515  -19.6566 C   0  0  0  0  0  0  0  0  0  0  0  0
    1.8915  -51.4810  -18.8859 C   0  0  0  0  0  0  0  0  0  0  0  0
    1.2656  -50.9511  -17.8009 C   0  0  0  0  0  0  0  0  0  0  0  0
    0.0127  -51.4165  -17.4970 C   0  0  0  0  0  0  0  0  0  0  0  0
   -0.6034  -52.4093  -18.2827 C   0  0  0  0  0  0  0  0  0  0  0  0
    1.8709  -49.9459  -16.9943 N   0  0  0  0  0  0  0  0  0  0  0  0
    3.0229  -50.0538  -16.3292 C   0  0  0  0  0  0  0  0  0  0  0  0
    3.2839  -48.8736  -15.6578 C   0  0  0  0  0  0  0  0  0  0  0  0
    2.2139  -48.0371  -15.9572 C   0  0  0  0  0  0  0  0  0  0  0  0
    1.4102  -48.7290  -16.7529 N   0  0  0  0  0  0  0  0  0  0  0  0
  1  2  1  0  0  0
  2  3  2  0  0  0
  3  4  1  0  0  0
  4  8  1  0  0  0
  8  9  1  0  0  0
  9 10  2  0  0  0
  9 12  1  0  0  0
 12 13  1  0  0  0
 13 14  1  0  0  0
 14 15  1  0  0  0
 15 16  1  0  0  0
 16 17  1  0  0  0
 16 19  1  0  0  0
 19 20  2  0  0  0
 19 21  1  0  0  0
 21 22  1  0  0  0
 22 23  1  0  0  0
 23 24  1  0  0  0
 24 25  1  0  0  0
  4  5  2  0  0  0
  5  6  1  0  0  0
  6  7  2  0  0  0
  7 26  1  0  0  0
 26 27  1  0  0  0
 27 28  2  0  0  0
 28 29  1  0  0  0
 29 30  2  0  0  0
 30 31  1  0  0  0
 31 33  1  0  0  0
 33 35  1  0  0  0
 35 36  2  0  0  0
 36 37  1  0  0  0
 37 38  2  0  0  0
 38 39  1  0  0  0
 39 40  2  0  0  0
 38 41  1  0  0  0
 41 42  1  0  0  0
 42 43  2  0  0  0
 43 44  1  0  0  0
 44 45  2  0  0  0
 31 32  2  0  0  0
  7  2  1  0  0  0
 32 27  1  0  0  0
 17 13  1  0  0  0
 25 21  1  0  0  0
 40 35  1  0  0  0
 45 41  1  0  0  0
  8 11  1  0  0  0
 15 18  1  0  0  0
 33 34  1  0  0  0
M  END
> <minimizedAffinity>
-7.53016

> <CNNscore>
0.2029711157

> <CNNaffinity>
6.8553171158

> <CNN_VS>
1.3914313316

> <CNNaffinity_variance>
0.2310353220

$$$$
[H]c1nc(N([H])c2c([H])c([H])c(-n3nc([H])c([H])c3[H])c([H])c2[H])nc(Oc2c([H])c([H])c(N([H])C(=O)O[C@]3([H])C([H])([H])N([H])[C@]([H])(C(=O)N4C([H])([H])C([H])([H])C([H])([H])C4([H])[H])C3([H])[H])c([H])c2F)c1[H]


 45 50  0  0  0  0  0  0  0  0999 V2000
   -0.8496  -55.8411  -23.2716 F   0  0  0  0  0  0  0  0  0  0  0  0
   -0.7561  -54.6144  -22.6727 C   0  0  0  0  0  0  0  0  0  0  0  0
   -0.9432  -54.4217  -21.3474 C   0  0  0  0  0  0  0  0  0  0  0  0
   -0.8462  -53.1715  -20.7584 C   0  0  0  0  0  0  0  0  0  0  0  0
   -0.5502  -52.1272  -21.5741 C   0  0  0  0  0  0  0  0  0  0  0  0
   -0.3536  -52.3044  -22.9433 C   0  0  0  0  0  0  0  0  0  0  0  0
   -0.4475  -53.5474  -23.5485 C   0  0  0  0  0  0  0  0  0  0  0  0
   -1.0335  -53.0214  -19.3770 N   0  0  0  0  0  0  0  0  0  0  0  0
   -0.2624  -52.2882  -18.4636 C   0  0  0  0  0  0  0  0  0  0  0  0
    0.7579  -51.6093  -18.7237 O   0  0  0  0  0  0  0  0  0  0  0  0
   -1.8746  -53.5331  -18.9605 H   0  0  0  0  0  0  0  0  0  0  0  0
   -0.6068  -52.2613  -17.0896 O   0  0  0  0  0  0  0  0  0  0  0  0
    0.0202  -51.4159  -16.1831 C   0  0  0  0  0  0  0  0  0  0  0  0
    0.0555  -52.1188  -14.8198 C   0  0  0  0  0  0  0  0  0  0  0  0
    0.1028  -51.0809  -13.8425 N   0  0  0  0  0  0  0  0  0  0  0  0
   -0.1086  -49.8005  -14.5056 C   0  0  0  0  0  0  0  0  0  0  0  0
   -0.8439  -50.2071  -15.7913 C   0  0  0  0  0  0  0  0  0  0  0  0
   -0.6299  -51.2016  -13.1006 H   0  0  0  0  0  0  0  0  0  0  0  0
   -0.8932  -48.8776  -13.6735 C   0  0  0  0  0  0  0  0  0  0  0  0
   -1.6927  -49.4400  -12.8535 O   0  0  0  0  0  0  0  0  0  0  0  0
   -0.8707  -47.4842  -13.6682 N   0  0  0  0  0  0  0  0  0  0  0  0
   -0.0615  -46.5957  -14.4518 C   0  0  0  0  0  0  0  0  0  0  0  0
   -1.1315  -45.6288  -14.9864 C   0  0  0  0  0  0  0  0  0  0  0  0
   -2.1513  -45.5770  -13.8436 C   0  0  0  0  0  0  0  0  0  0  0  0
   -1.6909  -46.6163  -12.8479 C   0  0  0  0  0  0  0  0  0  0  0  0
   -0.2760  -53.7874  -24.8233 O   0  0  0  0  0  0  0  0  0  0  0  0
    0.3016  -53.4854  -25.9550 C   0  0  0  0  0  0  0  0  0  0  0  0
   -0.0703  -53.9326  -27.2075 C   0  0  0  0  0  0  0  0  0  0  0  0
    0.6378  -53.5250  -28.3142 C   0  0  0  0  0  0  0  0  0  0  0  0
    1.6647  -52.7134  -28.1862 N   0  0  0  0  0  0  0  0  0  0  0  0
    2.0719  -52.2428  -26.9635 C   0  0  0  0  0  0  0  0  0  0  0  0
    1.3934  -52.6365  -25.9298 N   0  0  0  0  0  0  0  0  0  0  0  0
    3.1852  -51.3682  -26.9656 N   0  0  0  0  0  0  0  0  0  0  0  0
    3.9883  -51.6065  -27.6388 H   0  0  0  0  0  0  0  0  0  0  0  0
    3.3856  -50.2172  -26.1891 C   0  0  0  0  0  0  0  0  0  0  0  0
    3.3880  -48.9647  -26.8252 C   0  0  0  0  0  0  0  0  0  0  0  0
    3.5937  -47.7896  -26.1388 C   0  0  0  0  0  0  0  0  0  0  0  0
    3.8076  -47.7813  -24.7956 C   0  0  0  0  0  0  0  0  0  0  0  0
    3.8121  -48.9867  -24.1432 C   0  0  0  0  0  0  0  0  0  0  0  0
    3.6021  -50.1911  -24.8415 C   0  0  0  0  0  0  0  0  0  0  0  0
    4.0209  -46.5743  -24.0711 N   0  0  0  0  0  0  0  0  0  0  0  0
    5.1687  -45.8996  -23.9798 C   0  0  0  0  0  0  0  0  0  0  0  0
    4.9875  -44.7795  -23.1896 C   0  0  0  0  0  0  0  0  0  0  0  0
    3.6517  -44.8151  -22.8039 C   0  0  0  0  0  0  0  0  0  0  0  0
    3.1320  -45.9017  -23.3578 N   0  0  0  0  0  0  0  0  0  0  0  0
  1  2  1  0  0  0
  2  3  2  0  0  0
  3  4  1  0  0  0
  4  8  1  0  0  0
  8  9  1  0  0  0
  9 10  2  0  0  0
  9 12  1  0  0  0
 12 13  1  0  0  0
 13 14  1  0  0  0
 14 15  1  0  0  0
 15 16  1  0  0  0
 16 17  1  0  0  0
 16 19  1  0  0  0
 19 20  2  0  0  0
 19 21  1  0  0  0
 21 22  1  0  0  0
 22 23  1  0  0  0
 23 24  1  0  0  0
 24 25  1  0  0  0
  4  5  2  0  0  0
  5  6  1  0  0  0
  6  7  2  0  0  0
  7 26  1  0  0  0
 26 27  1  0  0  0
 27 28  2  0  0  0
 28 29  1  0  0  0
 29 30  2  0  0  0
 30 31  1  0  0  0
 31 33  1  0  0  0
 33 35  1  0  0  0
 35 36  2  0  0  0
 36 37  1  0  0  0
 37 38  2  0  0  0
 38 39  1  0  0  0
 39 40  2  0  0  0
 38 41  1  0  0  0
 41 42  1  0  0  0
 42 43  2  0  0  0
 43 44  1  0  0  0
 44 45  2  0  0  0
 31 32  2  0  0  0
  7  2  1  0  0  0
 32 27  1  0  0  0
 17 13  1  0  0  0
 25 21  1  0  0  0
 40 35  1  0  0  0
 45 41  1  0  0  0
  8 11  1  0  0  0
 15 18  1  0  0  0
 33 34  1  0  0  0
M  END
> <minimizedAffinity>
-8.16941

> <CNNscore>
0.2009080946

> <CNNaffinity>
6.7280464172

> <CNN_VS>
1.3517190218

> <CNNaffinity_variance>
0.0885034800

$$$$
[H]c1nc(N([H])c2c([H])c([H])c(-n3nc([H])c([H])c3[H])c([H])c2[H])nc(Oc2c([H])c([H])c(N([H])C(=O)O[C@]3([H])C([H])([H])N([H])[C@]([H])(C(=O)N4C([H])([H])C([H])([H])C([H])([H])C4([H])[H])C3([H])[H])c([H])c2F)c1[H]


 45 50  0  0  0  0  0  0  0  0999 V2000
    3.9414  -53.6051  -24.4656 F   0  0  0  0  0  0  0  0  0  0  0  0
    4.4726  -52.3445  -24.4374 C   0  0  0  0  0  0  0  0  0  0  0  0
    5.4766  -51.9829  -23.6069 C   0  0  0  0  0  0  0  0  0  0  0  0
    6.0011  -50.7007  -23.5911 C   0  0  0  0  0  0  0  0  0  0  0  0
    5.4619  -49.8035  -24.4558 C   0  0  0  0  0  0  0  0  0  0  0  0
    4.4261  -50.1560  -25.3205 C   0  0  0  0  0  0  0  0  0  0  0  0
    3.8895  -51.4333  -25.3487 C   0  0  0  0  0  0  0  0  0  0  0  0
    7.0528  -50.3748  -22.7229 N   0  0  0  0  0  0  0  0  0  0  0  0
    7.0019  -50.1110  -21.3466 C   0  0  0  0  0  0  0  0  0  0  0  0
    5.9808  -50.1258  -20.6208 O   0  0  0  0  0  0  0  0  0  0  0  0
    8.0242  -50.3182  -23.1653 H   0  0  0  0  0  0  0  0  0  0  0  0
    8.1817  -49.7879  -20.6317 O   0  0  0  0  0  0  0  0  0  0  0  0
    8.8487  -48.5819  -20.8053 C   0  0  0  0  0  0  0  0  0  0  0  0
   10.1953  -48.6714  -20.0756 C   0  0  0  0  0  0  0  0  0  0  0  0
   10.5497  -47.3318  -19.7369 N   0  0  0  0  0  0  0  0  0  0  0  0
    9.4190  -46.4588  -20.0257 C   0  0  0  0  0  0  0  0  0  0  0  0
    8.2301  -47.4308  -19.9967 C   0  0  0  0  0  0  0  0  0  0  0  0
   10.8015  -47.2331  -18.7226 H   0  0  0  0  0  0  0  0  0  0  0  0
    9.2932  -45.3820  -19.0336 C   0  0  0  0  0  0  0  0  0  0  0  0
    8.6628  -45.7005  -17.9711 O   0  0  0  0  0  0  0  0  0  0  0  0
    9.7721  -44.0754  -19.1084 N   0  0  0  0  0  0  0  0  0  0  0  0
   10.5298  -43.4547  -20.1566 C   0  0  0  0  0  0  0  0  0  0  0  0
    9.7247  -42.1610  -20.3658 C   0  0  0  0  0  0  0  0  0  0  0  0
    9.2043  -41.8476  -18.9588 C   0  0  0  0  0  0  0  0  0  0  0  0
    9.5928  -43.0380  -18.1130 C   0  0  0  0  0  0  0  0  0  0  0  0
    2.9201  -51.8337  -26.1310 O   0  0  0  0  0  0  0  0  0  0  0  0
    1.8439  -52.5521  -26.3079 C   0  0  0  0  0  0  0  0  0  0  0  0
    1.3658  -53.0253  -27.5140 C   0  0  0  0  0  0  0  0  0  0  0  0
    0.2126  -53.7746  -27.5427 C   0  0  0  0  0  0  0  0  0  0  0  0
   -0.4358  -54.0423  -26.4303 N   0  0  0  0  0  0  0  0  0  0  0  0
   -0.0003  -53.5944  -25.2088 C   0  0  0  0  0  0  0  0  0  0  0  0
    1.0890  -52.8892  -25.1989 N   0  0  0  0  0  0  0  0  0  0  0  0
   -0.7847  -53.9609  -24.0886 N   0  0  0  0  0  0  0  0  0  0  0  0
   -1.5621  -54.6837  -24.2562 H   0  0  0  0  0  0  0  0  0  0  0  0
   -0.6850  -53.4941  -22.7696 C   0  0  0  0  0  0  0  0  0  0  0  0
   -0.9261  -54.3907  -21.7153 C   0  0  0  0  0  0  0  0  0  0  0  0
   -0.8647  -54.0091  -20.3944 C   0  0  0  0  0  0  0  0  0  0  0  0
   -0.5646  -52.7310  -20.0389 C   0  0  0  0  0  0  0  0  0  0  0  0
   -0.3238  -51.8297  -21.0430 C   0  0  0  0  0  0  0  0  0  0  0  0
   -0.3856  -52.2158  -22.3956 C   0  0  0  0  0  0  0  0  0  0  0  0
   -0.4961  -52.3208  -18.6771 N   0  0  0  0  0  0  0  0  0  0  0  0
   -1.1829  -52.8430  -17.6590 C   0  0  0  0  0  0  0  0  0  0  0  0
   -0.8529  -52.1834  -16.4894 C   0  0  0  0  0  0  0  0  0  0  0  0
    0.0816  -51.2229  -16.8612 C   0  0  0  0  0  0  0  0  0  0  0  0
    0.2516  -51.3541  -18.1695 N   0  0  0  0  0  0  0  0  0  0  0  0
  1  2  1  0  0  0
  2  3  2  0  0  0
  3  4  1  0  0  0
  4  8  1  0  0  0
  8  9  1  0  0  0
  9 10  2  0  0  0
  9 12  1  0  0  0
 12 13  1  0  0  0
 13 14  1  0  0  0
 14 15  1  0  0  0
 15 16  1  0  0  0
 16 17  1  0  0  0
 16 19  1  0  0  0
 19 20  2  0  0  0
 19 21  1  0  0  0
 21 22  1  0  0  0
 22 23  1  0  0  0
 23 24  1  0  0  0
 24 25  1  0  0  0
  4  5  2  0  0  0
  5  6  1  0  0  0
  6  7  2  0  0  0
  7 26  1  0  0  0
 26 27  1  0  0  0
 27 28  2  0  0  0
 28 29  1  0  0  0
 29 30  2  0  0  0
 30 31  1  0  0  0
 31 33  1  0  0  0
 33 35  1  0  0  0
 35 36  2  0  0  0
 36 37  1  0  0  0
 37 38  2  0  0  0
 38 39  1  0  0  0
 39 40  2  0  0  0
 38 41  1  0  0  0
 41 42  1  0  0  0
 42 43  2  0  0  0
 43 44  1  0  0  0
 44 45  2  0  0  0
 31 32  2  0  0  0
  7  2  1  0  0  0
 32 27  1  0  0  0
 17 13  1  0  0  0
 25 21  1  0  0  0
 40 35  1  0  0  0
 45 41  1  0  0  0
  8 11  1  0  0  0
 15 18  1  0  0  0
 33 34  1  0  0  0
M  END
> <minimizedAffinity>
-7.42515

> <CNNscore>
0.1909627020

> <CNNaffinity>
6.7749872208

> <CNN_VS>
1.2937698364

> <CNNaffinity_variance>
0.1904778630

$$$$
[H]c1nc(N([H])c2c([H])c([H])c(-n3nc([H])c([H])c3[H])c([H])c2[H])nc(Oc2c([H])c([H])c(N([H])C(=O)O[C@]3([H])C([H])([H])N([H])[C@]([H])(C(=O)N4C([H])([H])C([H])([H])C([H])([H])C4([H])[H])C3([H])[H])c([H])c2F)c1[H]


 45 50  0  0  0  0  0  0  0  0999 V2000
    3.6296  -49.3801  -27.7233 F   0  0  0  0  0  0  0  0  0  0  0  0
    3.4511  -49.1863  -26.3806 C   0  0  0  0  0  0  0  0  0  0  0  0
    3.8850  -48.0846  -25.7277 C   0  0  0  0  0  0  0  0  0  0  0  0
    3.6967  -47.9061  -24.3668 C   0  0  0  0  0  0  0  0  0  0  0  0
    3.0480  -48.8947  -23.6995 C   0  0  0  0  0  0  0  0  0  0  0  0
    2.5925  -50.0389  -24.3539 C   0  0  0  0  0  0  0  0  0  0  0  0
    2.7731  -50.2336  -25.7139 C   0  0  0  0  0  0  0  0  0  0  0  0
    4.1507  -46.7399  -23.7345 N   0  0  0  0  0  0  0  0  0  0  0  0
    3.4299  -45.5806  -23.4139 C   0  0  0  0  0  0  0  0  0  0  0  0
    2.2141  -45.3727  -23.6336 O   0  0  0  0  0  0  0  0  0  0  0  0
    5.1836  -46.7287  -23.4592 H   0  0  0  0  0  0  0  0  0  0  0  0
    4.0690  -44.4893  -22.7752 O   0  0  0  0  0  0  0  0  0  0  0  0
    4.5385  -44.5637  -21.4700 C   0  0  0  0  0  0  0  0  0  0  0  0
    4.8500  -43.1393  -20.9924 C   0  0  0  0  0  0  0  0  0  0  0  0
    5.8531  -43.2715  -19.9870 N   0  0  0  0  0  0  0  0  0  0  0  0
    6.3190  -44.6523  -19.9661 C   0  0  0  0  0  0  0  0  0  0  0  0
    5.9560  -45.1491  -21.3733 C   0  0  0  0  0  0  0  0  0  0  0  0
    6.6742  -42.6412  -20.1614 H   0  0  0  0  0  0  0  0  0  0  0  0
    7.7600  -44.7382  -19.6905 C   0  0  0  0  0  0  0  0  0  0  0  0
    8.5146  -44.4214  -20.6691 O   0  0  0  0  0  0  0  0  0  0  0  0
    8.3946  -45.1159  -18.5086 N   0  0  0  0  0  0  0  0  0  0  0  0
    7.8082  -45.4918  -17.2544 C   0  0  0  0  0  0  0  0  0  0  0  0
    8.5675  -46.7971  -16.9620 C   0  0  0  0  0  0  0  0  0  0  0  0
    9.9484  -46.5370  -17.5737 C   0  0  0  0  0  0  0  0  0  0  0  0
    9.8243  -45.2161  -18.2971 C   0  0  0  0  0  0  0  0  0  0  0  0
    2.3735  -51.2787  -26.3921 O   0  0  0  0  0  0  0  0  0  0  0  0
    1.5604  -52.2931  -26.5162 C   0  0  0  0  0  0  0  0  0  0  0  0
    1.2390  -52.9444  -27.6908 C   0  0  0  0  0  0  0  0  0  0  0  0
    0.3625  -54.0042  -27.6641 C   0  0  0  0  0  0  0  0  0  0  0  0
   -0.1699  -54.3999  -26.5285 N   0  0  0  0  0  0  0  0  0  0  0  0
    0.1185  -53.7847  -25.3366 C   0  0  0  0  0  0  0  0  0  0  0  0
    0.9471  -52.7869  -25.3789 N   0  0  0  0  0  0  0  0  0  0  0  0
   -0.5141  -54.3149  -24.1863 N   0  0  0  0  0  0  0  0  0  0  0  0
   -1.1200  -55.1914  -24.3262 H   0  0  0  0  0  0  0  0  0  0  0  0
   -0.4597  -53.8371  -22.8685 C   0  0  0  0  0  0  0  0  0  0  0  0
   -1.4428  -54.2561  -21.9566 C   0  0  0  0  0  0  0  0  0  0  0  0
   -1.4703  -53.8216  -20.6510 C   0  0  0  0  0  0  0  0  0  0  0  0
   -0.5376  -52.9552  -20.1722 C   0  0  0  0  0  0  0  0  0  0  0  0
    0.4364  -52.5258  -21.0357 C   0  0  0  0  0  0  0  0  0  0  0  0
    0.4683  -52.9676  -22.3722 C   0  0  0  0  0  0  0  0  0  0  0  0
   -0.5517  -52.4973  -18.8241 N   0  0  0  0  0  0  0  0  0  0  0  0
    0.2050  -51.5247  -18.3118 C   0  0  0  0  0  0  0  0  0  0  0  0
   -0.0893  -51.3652  -16.9702 C   0  0  0  0  0  0  0  0  0  0  0  0
   -1.0767  -52.3057  -16.6970 C   0  0  0  0  0  0  0  0  0  0  0  0
   -1.3081  -52.9455  -17.8349 N   0  0  0  0  0  0  0  0  0  0  0  0
  1  2  1  0  0  0
  2  3  2  0  0  0
  3  4  1  0  0  0
  4  8  1  0  0  0
  8  9  1  0  0  0
  9 10  2  0  0  0
  9 12  1  0  0  0
 12 13  1  0  0  0
 13 14  1  0  0  0
 14 15  1  0  0  0
 15 16  1  0  0  0
 16 17  1  0  0  0
 16 19  1  0  0  0
 19 20  2  0  0  0
 19 21  1  0  0  0
 21 22  1  0  0  0
 22 23  1  0  0  0
 23 24  1  0  0  0
 24 25  1  0  0  0
  4  5  2  0  0  0
  5  6  1  0  0  0
  6  7  2  0  0  0
  7 26  1  0  0  0
 26 27  1  0  0  0
 27 28  2  0  0  0
 28 29  1  0  0  0
 29 30  2  0  0  0
 30 31  1  0  0  0
 31 33  1  0  0  0
 33 35  1  0  0  0
 35 36  2  0  0  0
 36 37  1  0  0  0
 37 38  2  0  0  0
 38 39  1  0  0  0
 39 40  2  0  0  0
 38 41  1  0  0  0
 41 42  1  0  0  0
 42 43  2  0  0  0
 43 44  1  0  0  0
 44 45  2  0  0  0
 31 32  2  0  0  0
  7  2  1  0  0  0
 32 27  1  0  0  0
 17 13  1  0  0  0
 25 21  1  0  0  0
 40 35  1  0  0  0
 45 41  1  0  0  0
  8 11  1  0  0  0
 15 18  1  0  0  0
 33 34  1  0  0  0
M  END
> <minimizedAffinity>
-7.68226

> <CNNscore>
0.1880855113

> <CNNaffinity>
6.7575669289

> <CNN_VS>
1.2710003853

> <CNNaffinity_variance>
0.1857098341

$$$$
[H]/C(C(=O)N([H])c1c(OC([H])([H])C([H])([H])OC([H])([H])[H])c([H])c2nc([H])nc(N([H])c3c([H])c([H])c(F)c([H])c3F)c2c1[H])=C(/[H])C([H])([H])N1C([H])([H])[C@]2([H])OC([H])([H])C([H])([H])O[C@]2([H])C1([H])[H]


 41 45  0  0  0  0  0  0  0  0999 V2000
   -0.4091  -52.6339  -19.7390 C   0  0  0  0  0  0  0  0  0  0  0  0
   -1.0928  -53.6792  -20.2596 C   0  0  0  0  0  0  0  0  0  0  0  0
   -1.0402  -53.9839  -21.6072 C   0  0  0  0  0  0  0  0  0  0  0  0
   -1.7506  -55.0410  -22.0637 N   0  0  0  0  0  0  0  0  0  0  0  0
   -1.7400  -55.3839  -23.3640 C   0  0  0  0  0  0  0  0  0  0  0  0
   -1.0056  -54.6491  -24.1992 N   0  0  0  0  0  0  0  0  0  0  0  0
   -0.2662  -53.5857  -23.8554 C   0  0  0  0  0  0  0  0  0  0  0  0
   -0.2950  -53.2510  -22.4955 C   0  0  0  0  0  0  0  0  0  0  0  0
    0.4139  -52.1714  -21.9633 C   0  0  0  0  0  0  0  0  0  0  0  0
    0.3750  -51.8529  -20.6339 C   0  0  0  0  0  0  0  0  0  0  0  0
    1.1030  -50.7875  -20.0707 N   0  0  0  0  0  0  0  0  0  0  0  0
    2.3725  -50.8520  -19.4992 C   0  0  0  0  0  0  0  0  0  0  0  0
    3.0573  -51.9073  -19.4167 O   0  0  0  0  0  0  0  0  0  0  0  0
    0.6411  -49.8053  -20.0682 H   0  0  0  0  0  0  0  0  0  0  0  0
    2.9989  -49.6525  -18.9429 C   0  0  0  0  0  0  0  0  0  0  0  0
    2.5088  -48.9740  -17.9577 C   0  0  0  0  0  0  0  0  0  0  0  0
    3.2162  -47.7711  -17.4628 C   0  0  0  0  0  0  0  0  0  0  0  0
    4.0662  -47.2965  -18.5393 N   0  0  0  0  0  0  0  0  0  0  0  0
    3.5991  -46.0850  -19.1325 C   0  0  0  0  0  0  0  0  0  0  0  0
    4.4341  -44.9628  -18.5132 C   0  0  0  0  0  0  0  0  0  0  0  0
    3.6080  -44.3858  -17.5428 O   0  0  0  0  0  0  0  0  0  0  0  0
    4.3259  -43.4474  -16.8348 C   0  0  0  0  0  0  0  0  0  0  0  0
    5.5099  -44.0580  -16.1577 C   0  0  0  0  0  0  0  0  0  0  0  0
    5.7430  -45.3611  -16.5286 O   0  0  0  0  0  0  0  0  0  0  0  0
    5.6257  -45.6058  -17.8886 C   0  0  0  0  0  0  0  0  0  0  0  0
    5.4214  -47.0666  -18.0950 C   0  0  0  0  0  0  0  0  0  0  0  0
    0.5232  -52.8367  -24.7448 N   0  0  0  0  0  0  0  0  0  0  0  0
    1.2472  -52.1723  -24.3352 H   0  0  0  0  0  0  0  0  0  0  0  0
    0.4396  -52.8889  -26.1542 C   0  0  0  0  0  0  0  0  0  0  0  0
    1.3244  -53.4556  -27.0244 C   0  0  0  0  0  0  0  0  0  0  0  0
    1.1053  -53.4589  -28.4152 C   0  0  0  0  0  0  0  0  0  0  0  0
   -0.0081  -52.8927  -28.9583 C   0  0  0  0  0  0  0  0  0  0  0  0
   -0.2667  -52.8701  -30.2862 F   0  0  0  0  0  0  0  0  0  0  0  0
   -0.9261  -52.3092  -28.1062 C   0  0  0  0  0  0  0  0  0  0  0  0
   -0.6964  -52.3146  -26.7485 C   0  0  0  0  0  0  0  0  0  0  0  0
   -1.6132  -51.7302  -25.9261 F   0  0  0  0  0  0  0  0  0  0  0  0
   -0.3930  -52.2513  -18.4441 O   0  0  0  0  0  0  0  0  0  0  0  0
   -0.9929  -52.6807  -17.2921 C   0  0  0  0  0  0  0  0  0  0  0  0
   -0.8192  -51.6841  -16.1786 C   0  0  0  0  0  0  0  0  0  0  0  0
    1.0399  -51.1222  -14.9029 C   0  0  0  0  0  0  0  0  0  0  0  0
    0.4459  -51.1018  -16.1432 O   0  0  0  0  0  0  0  0  0  0  0  0
 40 41  1  0  0  0
 41 39  1  0  0  0
 39 38  1  0  0  0
 38 37  1  0  0  0
 37  1  1  0  0  0
  1  2  2  0  0  0
  2  3  1  0  0  0
  3  4  2  0  0  0
  4  5  1  0  0  0
  5  6  2  0  0  0
  6  7  1  0  0  0
  7 27  1  0  0  0
 27 29  1  0  0  0
 29 30  2  0  0  0
 30 31  1  0  0  0
 31 32  2  0  0  0
 32 33  1  0  0  0
 32 34  1  0  0  0
 34 35  2  0  0  0
 35 36  1  0  0  0
  7  8  2  0  0  0
  8  9  1  0  0  0
  9 10  2  0  0  0
 10 11  1  0  0  0
 11 12  1  0  0  0
 12 13  2  0  0  0
 12 15  1  0  0  0
 15 16  2  0  0  0
 16 17  1  0  0  0
 17 18  1  0  0  0
 18 19  1  0  0  0
 19 20  1  0  0  0
 20 21  1  0  0  0
 21 22  1  0  0  0
 22 23  1  0  0  0
 23 24  1  0  0  0
 24 25  1  0  0  0
 25 26  1  0  0  0
 10  1  1  0  0  0
 26 18  1  0  0  0
  8  3  1  0  0  0
 25 20  1  0  0  0
 35 29  1  0  0  0
 27 28  1  0  0  0
 11 14  1  0  0  0
M  END
> <minimizedAffinity>
-7.93960

> <CNNscore>
0.9618257880

> <CNNaffinity>
7.5691895485

> <CNN_VS>
7.2802414894

> <CNNaffinity_variance>
0.0283665005

$$$$
[H]/C(C(=O)N([H])c1c(OC([H])([H])C([H])([H])OC([H])([H])[H])c([H])c2nc([H])nc(N([H])c3c([H])c([H])c(F)c([H])c3F)c2c1[H])=C(/[H])C([H])([H])N1C([H])([H])[C@]2([H])OC([H])([H])C([H])([H])O[C@]2([H])C1([H])[H]


 41 45  0  0  0  0  0  0  0  0999 V2000
   -0.3091  -52.7598  -19.6370 C   0  0  0  0  0  0  0  0  0  0  0  0
   -0.9834  -53.7940  -20.1908 C   0  0  0  0  0  0  0  0  0  0  0  0
   -0.9706  -54.0239  -21.5540 C   0  0  0  0  0  0  0  0  0  0  0  0
   -1.6691  -55.0742  -22.0436 N   0  0  0  0  0  0  0  0  0  0  0  0
   -1.6957  -55.3459  -23.3603 C   0  0  0  0  0  0  0  0  0  0  0  0
   -1.0106  -54.5468  -24.1784 N   0  0  0  0  0  0  0  0  0  0  0  0
   -0.2874  -53.4833  -23.8019 C   0  0  0  0  0  0  0  0  0  0  0  0
   -0.2767  -53.2236  -22.4255 C   0  0  0  0  0  0  0  0  0  0  0  0
    0.4222  -52.1549  -21.8591 C   0  0  0  0  0  0  0  0  0  0  0  0
    0.4222  -51.9100  -20.5137 C   0  0  0  0  0  0  0  0  0  0  0  0
    1.1418  -50.8567  -19.9178 N   0  0  0  0  0  0  0  0  0  0  0  0
    2.4557  -50.8983  -19.4550 C   0  0  0  0  0  0  0  0  0  0  0  0
    3.1953  -51.9173  -19.5192 O   0  0  0  0  0  0  0  0  0  0  0  0
    0.6346  -49.9052  -19.7931 H   0  0  0  0  0  0  0  0  0  0  0  0
    3.0671  -49.7167  -18.8463 C   0  0  0  0  0  0  0  0  0  0  0  0
    2.5890  -49.1108  -17.8092 C   0  0  0  0  0  0  0  0  0  0  0  0
    3.2793  -47.9199  -17.2638 C   0  0  0  0  0  0  0  0  0  0  0  0
    2.4333  -47.3706  -16.2202 N   0  0  0  0  0  0  0  0  0  0  0  0
    1.6814  -48.3646  -15.5242 C   0  0  0  0  0  0  0  0  0  0  0  0
    2.4371  -48.6293  -14.2207 C   0  0  0  0  0  0  0  0  0  0  0  0
    3.1347  -49.8221  -14.4388 O   0  0  0  0  0  0  0  0  0  0  0  0
    3.9552  -50.0720  -13.3610 C   0  0  0  0  0  0  0  0  0  0  0  0
    4.9414  -48.9684  -13.1541 C   0  0  0  0  0  0  0  0  0  0  0  0
    4.7071  -47.8675  -13.9435 O   0  0  0  0  0  0  0  0  0  0  0  0
    3.3761  -47.4873  -14.0267 C   0  0  0  0  0  0  0  0  0  0  0  0
    3.1968  -46.6379  -15.2368 C   0  0  0  0  0  0  0  0  0  0  0  0
    0.4502  -52.6656  -24.6751 N   0  0  0  0  0  0  0  0  0  0  0  0
    1.0715  -51.9118  -24.2516 H   0  0  0  0  0  0  0  0  0  0  0  0
    0.4399  -52.7574  -26.0849 C   0  0  0  0  0  0  0  0  0  0  0  0
    1.4210  -53.2435  -26.8989 C   0  0  0  0  0  0  0  0  0  0  0  0
    1.2700  -53.3009  -28.2975 C   0  0  0  0  0  0  0  0  0  0  0  0
    0.1294  -52.8710  -28.9052 C   0  0  0  0  0  0  0  0  0  0  0  0
   -0.0666  -52.9056  -30.2435 F   0  0  0  0  0  0  0  0  0  0  0  0
   -0.8855  -52.3722  -28.1113 C   0  0  0  0  0  0  0  0  0  0  0  0
   -0.7216  -52.3229  -26.7450 C   0  0  0  0  0  0  0  0  0  0  0  0
   -1.7340  -51.8237  -25.9806 F   0  0  0  0  0  0  0  0  0  0  0  0
   -0.2571  -52.4474  -18.3243 O   0  0  0  0  0  0  0  0  0  0  0  0
   -1.1064  -52.5663  -17.2585 C   0  0  0  0  0  0  0  0  0  0  0  0
   -0.8587  -51.4901  -16.2368 C   0  0  0  0  0  0  0  0  0  0  0  0
    0.4076  -52.1407  -14.4004 C   0  0  0  0  0  0  0  0  0  0  0  0
    0.4015  -51.5599  -15.6472 O   0  0  0  0  0  0  0  0  0  0  0  0
 40 41  1  0  0  0
 41 39  1  0  0  0
 39 38  1  0  0  0
 38 37  1  0  0  0
 37  1  1  0  0  0
  1  2  2  0  0  0
  2  3  1  0  0  0
  3  4  2  0  0  0
  4  5  1  0  0  0
  5  6  2  0  0  0
  6  7  1  0  0  0
  7 27  1  0  0  0
 27 29  1  0  0  0
 29 30  2  0  0  0
 30 31  1  0  0  0
 31 32  2  0  0  0
 32 33  1  0  0  0
 32 34  1  0  0  0
 34 35  2  0  0  0
 35 36  1  0  0  0
  7  8  2  0  0  0
  8  9  1  0  0  0
  9 10  2  0  0  0
 10 11  1  0  0  0
 11 12  1  0  0  0
 12 13  2  0  0  0
 12 15  1  0  0  0
 15 16  2  0  0  0
 16 17  1  0  0  0
 17 18  1  0  0  0
 18 19  1  0  0  0
 19 20  1  0  0  0
 20 21  1  0  0  0
 21 22  1  0  0  0
 22 23  1  0  0  0
 23 24  1  0  0  0
 24 25  1  0  0  0
 25 26  1  0  0  0
 10  1  1  0  0  0
 26 18  1  0  0  0
  8  3  1  0  0  0
 25 20  1  0  0  0
 35 29  1  0  0  0
 27 28  1  0  0  0
 11 14  1  0  0  0
M  END
> <minimizedAffinity>
-8.37114

> <CNNscore>
0.9542013407

> <CNNaffinity>
7.5564317703

> <CNN_VS>
7.2103571892

> <CNNaffinity_variance>
0.0088333236

$$$$
[H]/C(C(=O)N([H])c1c(OC([H])([H])C([H])([H])OC([H])([H])[H])c([H])c2nc([H])nc(N([H])c3c([H])c([H])c(F)c([H])c3F)c2c1[H])=C(/[H])C([H])([H])N1C([H])([H])[C@]2([H])OC([H])([H])C([H])([H])O[C@]2([H])C1([H])[H]


 41 45  0  0  0  0  0  0  0  0999 V2000
   -0.1731  -52.6315  -19.8085 C   0  0  0  0  0  0  0  0  0  0  0  0
   -0.7317  -53.7527  -20.3202 C   0  0  0  0  0  0  0  0  0  0  0  0
   -0.8201  -53.9641  -21.6837 C   0  0  0  0  0  0  0  0  0  0  0  0
   -1.3935  -55.1056  -22.1296 N   0  0  0  0  0  0  0  0  0  0  0  0
   -1.5094  -55.3649  -23.4440 C   0  0  0  0  0  0  0  0  0  0  0  0
   -1.0412  -54.4605  -24.3042 N   0  0  0  0  0  0  0  0  0  0  0  0
   -0.4567  -53.3010  -23.9729 C   0  0  0  0  0  0  0  0  0  0  0  0
   -0.3486  -53.0566  -22.5979 C   0  0  0  0  0  0  0  0  0  0  0  0
    0.2301  -51.8977  -22.0750 C   0  0  0  0  0  0  0  0  0  0  0  0
    0.3269  -51.6692  -20.7303 C   0  0  0  0  0  0  0  0  0  0  0  0
    0.9313  -50.5225  -20.1805 N   0  0  0  0  0  0  0  0  0  0  0  0
    2.2949  -50.3047  -19.9924 C   0  0  0  0  0  0  0  0  0  0  0  0
    3.1925  -51.1320  -20.3073 O   0  0  0  0  0  0  0  0  0  0  0  0
    0.2824  -49.7140  -19.8594 H   0  0  0  0  0  0  0  0  0  0  0  0
    2.7728  -49.0574  -19.3954 C   0  0  0  0  0  0  0  0  0  0  0  0
    2.6808  -48.7790  -18.1363 C   0  0  0  0  0  0  0  0  0  0  0  0
    3.1940  -47.4880  -17.6241 C   0  0  0  0  0  0  0  0  0  0  0  0
    3.6607  -47.7161  -16.2688 N   0  0  0  0  0  0  0  0  0  0  0  0
    3.7256  -46.5228  -15.4879 C   0  0  0  0  0  0  0  0  0  0  0  0
    2.4615  -46.5133  -14.6263 C   0  0  0  0  0  0  0  0  0  0  0  0
    1.5918  -45.6221  -15.2637 O   0  0  0  0  0  0  0  0  0  0  0  0
    0.3687  -45.6501  -14.6309 C   0  0  0  0  0  0  0  0  0  0  0  0
   -0.2346  -47.0168  -14.6621 C   0  0  0  0  0  0  0  0  0  0  0  0
    0.6205  -47.9839  -15.1347 O   0  0  0  0  0  0  0  0  0  0  0  0
    1.9156  -47.9007  -14.6457 C   0  0  0  0  0  0  0  0  0  0  0  0
    2.8202  -48.6525  -15.5593 C   0  0  0  0  0  0  0  0  0  0  0  0
    0.0548  -52.3696  -24.8925 N   0  0  0  0  0  0  0  0  0  0  0  0
    0.4374  -51.4504  -24.5152 H   0  0  0  0  0  0  0  0  0  0  0  0
    0.1071  -52.5482  -26.2930 C   0  0  0  0  0  0  0  0  0  0  0  0
    1.1674  -52.9636  -27.0445 C   0  0  0  0  0  0  0  0  0  0  0  0
    1.0757  -53.1242  -28.4402 C   0  0  0  0  0  0  0  0  0  0  0  0
   -0.0842  -52.8705  -29.1078 C   0  0  0  0  0  0  0  0  0  0  0  0
   -0.2254  -53.0102  -30.4462 F   0  0  0  0  0  0  0  0  0  0  0  0
   -1.1787  -52.4478  -28.3782 C   0  0  0  0  0  0  0  0  0  0  0  0
   -1.0720  -52.2957  -27.0138 C   0  0  0  0  0  0  0  0  0  0  0  0
   -2.1630  -51.8741  -26.3137 F   0  0  0  0  0  0  0  0  0  0  0  0
   -0.0390  -52.3280  -18.4995 O   0  0  0  0  0  0  0  0  0  0  0  0
   -0.8717  -52.2968  -17.4147 C   0  0  0  0  0  0  0  0  0  0  0  0
   -0.5693  -51.1224  -16.5244 C   0  0  0  0  0  0  0  0  0  0  0  0
    0.2457  -52.0206  -14.5424 C   0  0  0  0  0  0  0  0  0  0  0  0
    0.5300  -51.3214  -15.6922 O   0  0  0  0  0  0  0  0  0  0  0  0
 40 41  1  0  0  0
 41 39  1  0  0  0
 39 38  1  0  0  0
 38 37  1  0  0  0
 37  1  1  0  0  0
  1  2  2  0  0  0
  2  3  1  0  0  0
  3  4  2  0  0  0
  4  5  1  0  0  0
  5  6  2  0  0  0
  6  7  1  0  0  0
  7 27  1  0  0  0
 27 29  1  0  0  0
 29 30  2  0  0  0
 30 31  1  0  0  0
 31 32  2  0  0  0
 32 33  1  0  0  0
 32 34  1  0  0  0
 34 35  2  0  0  0
 35 36  1  0  0  0
  7  8  2  0  0  0
  8  9  1  0  0  0
  9 10  2  0  0  0
 10 11  1  0  0  0
 11 12  1  0  0  0
 12 13  2  0  0  0
 12 15  1  0  0  0
 15 16  2  0  0  0
 16 17  1  0  0  0
 17 18  1  0  0  0
 18 19  1  0  0  0
 19 20  1  0  0  0
 20 21  1  0  0  0
 21 22  1  0  0  0
 22 23  1  0  0  0
 23 24  1  0  0  0
 24 25  1  0  0  0
 25 26  1  0  0  0
 10  1  1  0  0  0
 26 18  1  0  0  0
  8  3  1  0  0  0
 25 20  1  0  0  0
 35 29  1  0  0  0
 27 28  1  0  0  0
 11 14  1  0  0  0
M  END
> <minimizedAffinity>
-8.02575

> <CNNscore>
0.9344726801

> <CNNaffinity>
7.5199065208

> <CNN_VS>
7.0271472931

> <CNNaffinity_variance>
0.0151857687

$$$$
[H]/C(C(=O)N([H])c1c(OC([H])([H])C([H])([H])OC([H])([H])[H])c([H])c2nc([H])nc(N([H])c3c([H])c([H])c(F)c([H])c3F)c2c1[H])=C(/[H])C([H])([H])N1C([H])([H])[C@]2([H])OC([H])([H])C([H])([H])O[C@]2([H])C1([H])[H]


 41 45  0  0  0  0  0  0  0  0999 V2000
    0.0627  -52.2546  -19.7931 C   0  0  0  0  0  0  0  0  0  0  0  0
   -0.4664  -53.4292  -20.2071 C   0  0  0  0  0  0  0  0  0  0  0  0
   -0.6393  -53.7164  -21.5484 C   0  0  0  0  0  0  0  0  0  0  0  0
   -1.1773  -54.9086  -21.8946 N   0  0  0  0  0  0  0  0  0  0  0  0
   -1.3716  -55.2425  -23.1827 C   0  0  0  0  0  0  0  0  0  0  0  0
   -1.0178  -54.3611  -24.1181 N   0  0  0  0  0  0  0  0  0  0  0  0
   -0.4780  -53.1564  -23.8877 C   0  0  0  0  0  0  0  0  0  0  0  0
   -0.2864  -52.8346  -22.5380 C   0  0  0  0  0  0  0  0  0  0  0  0
    0.2614  -51.6206  -22.1163 C   0  0  0  0  0  0  0  0  0  0  0  0
    0.4405  -51.3169  -20.7951 C   0  0  0  0  0  0  0  0  0  0  0  0
    1.0164  -50.1125  -20.3479 N   0  0  0  0  0  0  0  0  0  0  0  0
    2.3658  -49.7663  -20.3852 C   0  0  0  0  0  0  0  0  0  0  0  0
    3.2734  -50.5103  -20.8460 O   0  0  0  0  0  0  0  0  0  0  0  0
    0.3558  -49.3640  -19.9219 H   0  0  0  0  0  0  0  0  0  0  0  0
    2.8159  -48.4729  -19.8704 C   0  0  0  0  0  0  0  0  0  0  0  0
    4.0577  -48.1588  -19.6959 C   0  0  0  0  0  0  0  0  0  0  0  0
    4.4165  -46.8226  -19.1686 C   0  0  0  0  0  0  0  0  0  0  0  0
    5.2968  -46.1976  -20.1387 N   0  0  0  0  0  0  0  0  0  0  0  0
    6.2378  -45.3009  -19.5486 C   0  0  0  0  0  0  0  0  0  0  0  0
    7.5530  -46.0758  -19.4479 C   0  0  0  0  0  0  0  0  0  0  0  0
    7.6385  -46.4775  -18.1106 O   0  0  0  0  0  0  0  0  0  0  0  0
    8.7307  -47.3019  -17.9530 C   0  0  0  0  0  0  0  0  0  0  0  0
    8.6298  -48.5181  -18.8155 C   0  0  0  0  0  0  0  0  0  0  0  0
    7.5871  -48.4717  -19.7103 O   0  0  0  0  0  0  0  0  0  0  0  0
    7.4305  -47.2534  -20.3542 C   0  0  0  0  0  0  0  0  0  0  0  0
    6.0453  -47.1741  -20.8956 C   0  0  0  0  0  0  0  0  0  0  0  0
   -0.0869  -52.2488  -24.8868 N   0  0  0  0  0  0  0  0  0  0  0  0
    0.2726  -51.2935  -24.5838 H   0  0  0  0  0  0  0  0  0  0  0  0
   -0.1289  -52.4959  -26.2772 C   0  0  0  0  0  0  0  0  0  0  0  0
    0.8669  -52.9866  -27.0703 C   0  0  0  0  0  0  0  0  0  0  0  0
    0.6820  -53.2101  -28.4480 C   0  0  0  0  0  0  0  0  0  0  0  0
   -0.5079  -52.9451  -29.0554 C   0  0  0  0  0  0  0  0  0  0  0  0
   -0.7378  -53.1431  -30.3739 F   0  0  0  0  0  0  0  0  0  0  0  0
   -1.5391  -52.4468  -28.2823 C   0  0  0  0  0  0  0  0  0  0  0  0
   -1.3416  -52.2339  -26.9363 C   0  0  0  0  0  0  0  0  0  0  0  0
   -2.3711  -51.7383  -26.1928 F   0  0  0  0  0  0  0  0  0  0  0  0
    0.2722  -51.8759  -18.5140 O   0  0  0  0  0  0  0  0  0  0  0  0
   -0.4845  -51.8227  -17.3756 C   0  0  0  0  0  0  0  0  0  0  0  0
   -0.3828  -50.4766  -16.7116 C   0  0  0  0  0  0  0  0  0  0  0  0
    1.4452  -49.0561  -16.5125 C   0  0  0  0  0  0  0  0  0  0  0  0
    0.5002  -49.6063  -17.3468 O   0  0  0  0  0  0  0  0  0  0  0  0
 40 41  1  0  0  0
 41 39  1  0  0  0
 39 38  1  0  0  0
 38 37  1  0  0  0
 37  1  1  0  0  0
  1  2  2  0  0  0
  2  3  1  0  0  0
  3  4  2  0  0  0
  4  5  1  0  0  0
  5  6  2  0  0  0
  6  7  1  0  0  0
  7 27  1  0  0  0
 27 29  1  0  0  0
 29 30  2  0  0  0
 30 31  1  0  0  0
 31 32  2  0  0  0
 32 33  1  0  0  0
 32 34  1  0  0  0
 34 35  2  0  0  0
 35 36  1  0  0  0
  7  8  2  0  0  0
  8  9  1  0  0  0
  9 10  2  0  0  0
 10 11  1  0  0  0
 11 12  1  0  0  0
 12 13  2  0  0  0
 12 15  1  0  0  0
 15 16  2  0  0  0
 16 17  1  0  0  0
 17 18  1  0  0  0
 18 19  1  0  0  0
 19 20  1  0  0  0
 20 21  1  0  0  0
 21 22  1  0  0  0
 22 23  1  0  0  0
 23 24  1  0  0  0
 24 25  1  0  0  0
 25 26  1  0  0  0
 10  1  1  0  0  0
 26 18  1  0  0  0
  8  3  1  0  0  0
 25 20  1  0  0  0
 35 29  1  0  0  0
 27 28  1  0  0  0
 11 14  1  0  0  0
M  END
> <minimizedAffinity>
-7.95619

> <CNNscore>
0.9086531401

> <CNNaffinity>
7.4736685753

> <CNN_VS>
6.7909722328

> <CNNaffinity_variance>
0.0859919935

$$$$
[H]/C(C(=O)N([H])c1c(OC([H])([H])C([H])([H])OC([H])([H])[H])c([H])c2nc([H])nc(N([H])c3c([H])c([H])c(F)c([H])c3F)c2c1[H])=C(/[H])C([H])([H])N1C([H])([H])[C@]2([H])OC([H])([H])C([H])([H])O[C@]2([H])C1([H])[H]


 41 45  0  0  0  0  0  0  0  0999 V2000
   -0.1890  -52.6191  -19.5798 C   0  0  0  0  0  0  0  0  0  0  0  0
   -0.8467  -53.6930  -20.0748 C   0  0  0  0  0  0  0  0  0  0  0  0
   -0.9106  -53.9444  -21.4328 C   0  0  0  0  0  0  0  0  0  0  0  0
   -1.5875  -55.0344  -21.8619 N   0  0  0  0  0  0  0  0  0  0  0  0
   -1.6856  -55.3286  -23.1704 C   0  0  0  0  0  0  0  0  0  0  0  0
   -1.0940  -54.5115  -24.0419 N   0  0  0  0  0  0  0  0  0  0  0  0
   -0.4003  -53.4089  -23.7274 C   0  0  0  0  0  0  0  0  0  0  0  0
   -0.3137  -53.1265  -22.3582 C   0  0  0  0  0  0  0  0  0  0  0  0
    0.3678  -52.0167  -21.8526 C   0  0  0  0  0  0  0  0  0  0  0  0
    0.4425  -51.7500  -20.5135 C   0  0  0  0  0  0  0  0  0  0  0  0
    1.1472  -50.6542  -19.9797 N   0  0  0  0  0  0  0  0  0  0  0  0
    2.4549  -50.6554  -19.4980 C   0  0  0  0  0  0  0  0  0  0  0  0
    3.2018  -51.6710  -19.4845 O   0  0  0  0  0  0  0  0  0  0  0  0
    0.6323  -49.7003  -19.9253 H   0  0  0  0  0  0  0  0  0  0  0  0
    3.0505  -49.4314  -18.9614 C   0  0  0  0  0  0  0  0  0  0  0  0
    3.5355  -48.4839  -19.6950 C   0  0  0  0  0  0  0  0  0  0  0  0
    4.1189  -47.2805  -19.0595 C   0  0  0  0  0  0  0  0  0  0  0  0
    5.5128  -47.2143  -19.4586 N   0  0  0  0  0  0  0  0  0  0  0  0
    5.7237  -47.5644  -20.8263 C   0  0  0  0  0  0  0  0  0  0  0  0
    5.8569  -46.2423  -21.5844 C   0  0  0  0  0  0  0  0  0  0  0  0
    4.6151  -46.0466  -22.1982 O   0  0  0  0  0  0  0  0  0  0  0  0
    4.5951  -44.8066  -22.7976 C   0  0  0  0  0  0  0  0  0  0  0  0
    4.8188  -43.7128  -21.8042 C   0  0  0  0  0  0  0  0  0  0  0  0
    5.1819  -44.1679  -20.5588 O   0  0  0  0  0  0  0  0  0  0  0  0
    6.1235  -45.1860  -20.5663 C   0  0  0  0  0  0  0  0  0  0  0  0
    6.0692  -45.8963  -19.2583 C   0  0  0  0  0  0  0  0  0  0  0  0
    0.2392  -52.5716  -24.6575 N   0  0  0  0  0  0  0  0  0  0  0  0
    0.9078  -51.8300  -24.2880 H   0  0  0  0  0  0  0  0  0  0  0  0
    0.0709  -52.6285  -26.0591 C   0  0  0  0  0  0  0  0  0  0  0  0
   -1.0561  -52.3562  -26.7782 C   0  0  0  0  0  0  0  0  0  0  0  0
   -1.0800  -52.4282  -28.1841 C   0  0  0  0  0  0  0  0  0  0  0  0
    0.0291  -52.7751  -28.8946 C   0  0  0  0  0  0  0  0  0  0  0  0
    0.0596  -52.8577  -30.2448 F   0  0  0  0  0  0  0  0  0  0  0  0
    1.1887  -53.0578  -28.1986 C   0  0  0  0  0  0  0  0  0  0  0  0
    1.1950  -52.9827  -26.8237 C   0  0  0  0  0  0  0  0  0  0  0  0
    2.3487  -53.2692  -26.1565 F   0  0  0  0  0  0  0  0  0  0  0  0
   -0.0678  -52.2831  -18.2776 O   0  0  0  0  0  0  0  0  0  0  0  0
   -0.9185  -52.1912  -17.2102 C   0  0  0  0  0  0  0  0  0  0  0  0
   -0.7262  -50.8985  -16.4650 C   0  0  0  0  0  0  0  0  0  0  0  0
   -1.2471  -49.8481  -14.4589 C   0  0  0  0  0  0  0  0  0  0  0  0
   -1.6714  -50.6855  -15.4641 O   0  0  0  0  0  0  0  0  0  0  0  0
 40 41  1  0  0  0
 41 39  1  0  0  0
 39 38  1  0  0  0
 38 37  1  0  0  0
 37  1  1  0  0  0
  1  2  2  0  0  0
  2  3  1  0  0  0
  3  4  2  0  0  0
  4  5  1  0  0  0
  5  6  2  0  0  0
  6  7  1  0  0  0
  7 27  1  0  0  0
 27 29  1  0  0  0
 29 30  2  0  0  0
 30 31  1  0  0  0
 31 32  2  0  0  0
 32 33  1  0  0  0
 32 34  1  0  0  0
 34 35  2  0  0  0
 35 36  1  0  0  0
  7  8  2  0  0  0
  8  9  1  0  0  0
  9 10  2  0  0  0
 10 11  1  0  0  0
 11 12  1  0  0  0
 12 13  2  0  0  0
 12 15  1  0  0  0
 15 16  2  0  0  0
 16 17  1  0  0  0
 17 18  1  0  0  0
 18 19  1  0  0  0
 19 20  1  0  0  0
 20 21  1  0  0  0
 21 22  1  0  0  0
 22 23  1  0  0  0
 23 24  1  0  0  0
 24 25  1  0  0  0
 25 26  1  0  0  0
 10  1  1  0  0  0
 26 18  1  0  0  0
  8  3  1  0  0  0
 25 20  1  0  0  0
 35 29  1  0  0  0
 27 28  1  0  0  0
 11 14  1  0  0  0
M  END
> <minimizedAffinity>
-7.78336

> <CNNscore>
0.8734160662

> <CNNaffinity>
7.5778684616

> <CNN_VS>
6.6186318398

> <CNNaffinity_variance>
0.0755247325

$$$$
[H]/C(C(=O)N([H])c1c(OC([H])([H])C([H])([H])OC([H])([H])[H])c([H])c2nc([H])nc(N([H])c3c([H])c([H])c(F)c([H])c3F)c2c1[H])=C(/[H])C([H])([H])N1C([H])([H])[C@]2([H])OC([H])([H])C([H])([H])O[C@]2([H])C1([H])[H]


 41 45  0  0  0  0  0  0  0  0999 V2000
   -0.5284  -52.9467  -19.6124 C   0  0  0  0  0  0  0  0  0  0  0  0
   -0.9805  -53.9923  -20.3427 C   0  0  0  0  0  0  0  0  0  0  0  0
   -0.8975  -54.0056  -21.7227 C   0  0  0  0  0  0  0  0  0  0  0  0
   -1.3715  -55.0811  -22.3930 N   0  0  0  0  0  0  0  0  0  0  0  0
   -1.3199  -55.1494  -23.7350 C   0  0  0  0  0  0  0  0  0  0  0  0
   -0.7854  -54.1213  -24.3941 N   0  0  0  0  0  0  0  0  0  0  0  0
   -0.2874  -53.0112  -23.8325 C   0  0  0  0  0  0  0  0  0  0  0  0
   -0.3535  -52.9666  -22.4340 C   0  0  0  0  0  0  0  0  0  0  0  0
    0.1160  -51.8848  -21.6850 C   0  0  0  0  0  0  0  0  0  0  0  0
    0.0429  -51.8518  -20.3199 C   0  0  0  0  0  0  0  0  0  0  0  0
    0.5351  -50.7856  -19.5431 N   0  0  0  0  0  0  0  0  0  0  0  0
    1.7780  -50.7111  -18.9173 C   0  0  0  0  0  0  0  0  0  0  0  0
    2.6531  -51.6169  -18.9743 O   0  0  0  0  0  0  0  0  0  0  0  0
   -0.1093  -49.9238  -19.4018 H   0  0  0  0  0  0  0  0  0  0  0  0
    2.1446  -49.5332  -18.1306 C   0  0  0  0  0  0  0  0  0  0  0  0
    1.9013  -49.4056  -16.8673 C   0  0  0  0  0  0  0  0  0  0  0  0
    2.3111  -48.1739  -16.1552 C   0  0  0  0  0  0  0  0  0  0  0  0
    2.0553  -48.3865  -14.7424 N   0  0  0  0  0  0  0  0  0  0  0  0
    2.0223  -47.1750  -13.9881 C   0  0  0  0  0  0  0  0  0  0  0  0
    0.5425  -46.8370  -13.7976 C   0  0  0  0  0  0  0  0  0  0  0  0
    0.2721  -45.8380  -14.7388 O   0  0  0  0  0  0  0  0  0  0  0  0
   -1.0776  -45.5629  -14.7341 C   0  0  0  0  0  0  0  0  0  0  0  0
   -1.8860  -46.7736  -15.0713 C   0  0  0  0  0  0  0  0  0  0  0  0
   -1.1455  -47.9306  -15.1262 O   0  0  0  0  0  0  0  0  0  0  0  0
   -0.2261  -48.0788  -14.0987 C   0  0  0  0  0  0  0  0  0  0  0  0
    0.8029  -49.0705  -14.5180 C   0  0  0  0  0  0  0  0  0  0  0  0
    0.2962  -51.9469  -24.5408 N   0  0  0  0  0  0  0  0  0  0  0  0
   -0.3347  -51.3457  -25.1524 H   0  0  0  0  0  0  0  0  0  0  0  0
    1.6653  -51.5995  -24.5120 C   0  0  0  0  0  0  0  0  0  0  0  0
    2.2272  -50.4509  -24.0360 C   0  0  0  0  0  0  0  0  0  0  0  0
    3.6195  -50.2418  -24.0448 C   0  0  0  0  0  0  0  0  0  0  0  0
    4.4743  -51.1837  -24.5320 C   0  0  0  0  0  0  0  0  0  0  0  0
    5.8185  -51.0331  -24.5621 F   0  0  0  0  0  0  0  0  0  0  0  0
    3.9397  -52.3597  -25.0224 C   0  0  0  0  0  0  0  0  0  0  0  0
    2.5758  -52.5481  -25.0066 C   0  0  0  0  0  0  0  0  0  0  0  0
    2.0691  -53.7141  -25.4986 F   0  0  0  0  0  0  0  0  0  0  0  0
   -0.5628  -52.8335  -18.2673 O   0  0  0  0  0  0  0  0  0  0  0  0
   -1.5460  -52.7653  -17.3186 C   0  0  0  0  0  0  0  0  0  0  0  0
   -1.1652  -51.8347  -16.1996 C   0  0  0  0  0  0  0  0  0  0  0  0
   -2.6796  -51.1444  -14.5780 C   0  0  0  0  0  0  0  0  0  0  0  0
   -2.1778  -50.9468  -15.8433 O   0  0  0  0  0  0  0  0  0  0  0  0
 40 41  1  0  0  0
 41 39  1  0  0  0
 39 38  1  0  0  0
 38 37  1  0  0  0
 37  1  1  0  0  0
  1  2  2  0  0  0
  2  3  1  0  0  0
  3  4  2  0  0  0
  4  5  1  0  0  0
  5  6  2  0  0  0
  6  7  1  0  0  0
  7 27  1  0  0  0
 27 29  1  0  0  0
 29 30  2  0  0  0
 30 31  1  0  0  0
 31 32  2  0  0  0
 32 33  1  0  0  0
 32 34  1  0  0  0
 34 35  2  0  0  0
 35 36  1  0  0  0
  7  8  2  0  0  0
  8  9  1  0  0  0
  9 10  2  0  0  0
 10 11  1  0  0  0
 11 12  1  0  0  0
 12 13  2  0  0  0
 12 15  1  0  0  0
 15 16  2  0  0  0
 16 17  1  0  0  0
 17 18  1  0  0  0
 18 19  1  0  0  0
 19 20  1  0  0  0
 20 21  1  0  0  0
 21 22  1  0  0  0
 22 23  1  0  0  0
 23 24  1  0  0  0
 24 25  1  0  0  0
 25 26  1  0  0  0
 10  1  1  0  0  0
 26 18  1  0  0  0
  8  3  1  0  0  0
 25 20  1  0  0  0
 35 29  1  0  0  0
 27 28  1  0  0  0
 11 14  1  0  0  0
M  END
> <minimizedAffinity>
-7.52318

> <CNNscore>
0.7022050619

> <CNNaffinity>
7.1616106033

> <CNN_VS>
5.0289192200

> <CNNaffinity_variance>
0.0428203084

$$$$
[H]/C(C(=O)N([H])c1c(OC([H])([H])C([H])([H])OC([H])([H])[H])c([H])c2nc([H])nc(N([H])c3c([H])c([H])c(F)c([H])c3F)c2c1[H])=C(/[H])C([H])([H])N1C([H])([H])[C@]2([H])OC([H])([H])C([H])([H])O[C@]2([H])C1([H])[H]


 41 45  0  0  0  0  0  0  0  0999 V2000
   -0.8222  -52.8948  -18.8053 C   0  0  0  0  0  0  0  0  0  0  0  0
   -1.4077  -53.7968  -19.6265 C   0  0  0  0  0  0  0  0  0  0  0  0
   -1.1012  -53.8608  -20.9732 C   0  0  0  0  0  0  0  0  0  0  0  0
   -1.7255  -54.7846  -21.7397 N   0  0  0  0  0  0  0  0  0  0  0  0
   -1.4698  -54.8923  -23.0555 C   0  0  0  0  0  0  0  0  0  0  0  0
   -0.5781  -54.0582  -23.5904 N   0  0  0  0  0  0  0  0  0  0  0  0
    0.0964  -53.1097  -22.9261 C   0  0  0  0  0  0  0  0  0  0  0  0
   -0.1887  -53.0197  -21.5576 C   0  0  0  0  0  0  0  0  0  0  0  0
    0.4197  -52.0871  -20.7142 C   0  0  0  0  0  0  0  0  0  0  0  0
    0.1304  -52.0070  -19.3800 C   0  0  0  0  0  0  0  0  0  0  0  0
    0.7515  -51.0948  -18.5057 N   0  0  0  0  0  0  0  0  0  0  0  0
    1.1458  -49.7909  -18.7997 C   0  0  0  0  0  0  0  0  0  0  0  0
    0.9852  -49.2405  -19.9225 O   0  0  0  0  0  0  0  0  0  0  0  0
    0.9570  -51.4258  -17.4927 H   0  0  0  0  0  0  0  0  0  0  0  0
    1.7926  -48.9626  -17.7817 C   0  0  0  0  0  0  0  0  0  0  0  0
    1.3531  -48.8312  -16.5731 C   0  0  0  0  0  0  0  0  0  0  0  0
    2.0771  -47.9689  -15.6117 C   0  0  0  0  0  0  0  0  0  0  0  0
    3.4787  -48.3415  -15.6680 N   0  0  0  0  0  0  0  0  0  0  0  0
    4.2960  -47.3616  -16.3081 C   0  0  0  0  0  0  0  0  0  0  0  0
    4.9629  -46.5683  -15.1829 C   0  0  0  0  0  0  0  0  0  0  0  0
    4.2318  -45.3791  -15.0917 O   0  0  0  0  0  0  0  0  0  0  0  0
    4.6774  -44.6539  -14.0086 C   0  0  0  0  0  0  0  0  0  0  0  0
    4.5172  -45.4166  -12.7336 C   0  0  0  0  0  0  0  0  0  0  0  0
    4.1464  -46.7271  -12.9205 O   0  0  0  0  0  0  0  0  0  0  0  0
    4.8222  -47.3803  -13.9403 C   0  0  0  0  0  0  0  0  0  0  0  0
    4.0290  -48.5716  -14.3523 C   0  0  0  0  0  0  0  0  0  0  0  0
    1.0526  -52.2548  -23.5003 N   0  0  0  0  0  0  0  0  0  0  0  0
    1.4595  -51.4790  -22.8953 H   0  0  0  0  0  0  0  0  0  0  0  0
    1.5283  -52.3356  -24.8282 C   0  0  0  0  0  0  0  0  0  0  0  0
    0.8495  -52.0573  -25.9786 C   0  0  0  0  0  0  0  0  0  0  0  0
    1.4559  -52.1559  -27.2454 C   0  0  0  0  0  0  0  0  0  0  0  0
    2.7568  -52.5360  -27.3805 C   0  0  0  0  0  0  0  0  0  0  0  0
    3.3866  -52.6451  -28.5730 F   0  0  0  0  0  0  0  0  0  0  0  0
    3.4748  -52.8258  -26.2361 C   0  0  0  0  0  0  0  0  0  0  0  0
    2.8666  -52.7245  -25.0049 C   0  0  0  0  0  0  0  0  0  0  0  0
    3.5922  -53.0185  -23.8889 F   0  0  0  0  0  0  0  0  0  0  0  0
   -1.0501  -52.7482  -17.4824 O   0  0  0  0  0  0  0  0  0  0  0  0
   -2.1354  -52.4451  -16.7068 C   0  0  0  0  0  0  0  0  0  0  0  0
   -1.8775  -51.2352  -15.8509 C   0  0  0  0  0  0  0  0  0  0  0  0
   -4.1977  -51.2473  -15.7251 C   0  0  0  0  0  0  0  0  0  0  0  0
   -3.0205  -50.7378  -15.2288 O   0  0  0  0  0  0  0  0  0  0  0  0
 40 41  1  0  0  0
 41 39  1  0  0  0
 39 38  1  0  0  0
 38 37  1  0  0  0
 37  1  1  0  0  0
  1  2  2  0  0  0
  2  3  1  0  0  0
  3  4  2  0  0  0
  4  5  1  0  0  0
  5  6  2  0  0  0
  6  7  1  0  0  0
  7 27  1  0  0  0
 27 29  1  0  0  0
 29 30  2  0  0  0
 30 31  1  0  0  0
 31 32  2  0  0  0
 32 33  1  0  0  0
 32 34  1  0  0  0
 34 35  2  0  0  0
 35 36  1  0  0  0
  7  8  2  0  0  0
  8  9  1  0  0  0
  9 10  2  0  0  0
 10 11  1  0  0  0
 11 12  1  0  0  0
 12 13  2  0  0  0
 12 15  1  0  0  0
 15 16  2  0  0  0
 16 17  1  0  0  0
 17 18  1  0  0  0
 18 19  1  0  0  0
 19 20  1  0  0  0
 20 21  1  0  0  0
 21 22  1  0  0  0
 22 23  1  0  0  0
 23 24  1  0  0  0
 24 25  1  0  0  0
 25 26  1  0  0  0
 10  1  1  0  0  0
 26 18  1  0  0  0
  8  3  1  0  0  0
 25 20  1  0  0  0
 35 29  1  0  0  0
 27 28  1  0  0  0
 11 14  1  0  0  0
M  END
> <minimizedAffinity>
-7.20267

> <CNNscore>
0.6634228826

> <CNNaffinity>
7.0507507324

> <CNN_VS>
4.6776294708

> <CNNaffinity_variance>
0.1075305343

$$$$
[H]/C(C(=O)N([H])c1c(OC([H])([H])C([H])([H])OC([H])([H])[H])c([H])c2nc([H])nc(N([H])c3c([H])c([H])c(F)c([H])c3F)c2c1[H])=C(/[H])C([H])([H])N1C([H])([H])[C@]2([H])OC([H])([H])C([H])([H])O[C@]2([H])C1([H])[H]


 41 45  0  0  0  0  0  0  0  0999 V2000
   -0.4069  -52.9863  -19.4410 C   0  0  0  0  0  0  0  0  0  0  0  0
   -0.9445  -53.9581  -20.2139 C   0  0  0  0  0  0  0  0  0  0  0  0
   -0.8029  -53.9552  -21.5892 C   0  0  0  0  0  0  0  0  0  0  0  0
   -1.3683  -54.9552  -22.3039 N   0  0  0  0  0  0  0  0  0  0  0  0
   -1.2659  -55.0040  -23.6439 C   0  0  0  0  0  0  0  0  0  0  0  0
   -0.5875  -54.0331  -24.2557 N   0  0  0  0  0  0  0  0  0  0  0  0
    0.0105  -52.9995  -23.6476 C   0  0  0  0  0  0  0  0  0  0  0  0
   -0.1114  -52.9736  -22.2525 C   0  0  0  0  0  0  0  0  0  0  0  0
    0.4468  -51.9683  -21.4592 C   0  0  0  0  0  0  0  0  0  0  0  0
    0.3179  -51.9524  -20.0979 C   0  0  0  0  0  0  0  0  0  0  0  0
    0.8955  -50.9658  -19.2762 N   0  0  0  0  0  0  0  0  0  0  0  0
    2.2147  -50.9168  -18.8296 C   0  0  0  0  0  0  0  0  0  0  0  0
    3.0911  -51.7755  -19.1195 O   0  0  0  0  0  0  0  0  0  0  0  0
    0.2606  -50.1516  -18.9416 H   0  0  0  0  0  0  0  0  0  0  0  0
    2.6673  -49.8252  -17.9668 C   0  0  0  0  0  0  0  0  0  0  0  0
    2.6340  -48.5779  -18.3048 C   0  0  0  0  0  0  0  0  0  0  0  0
    3.1150  -47.5423  -17.3622 C   0  0  0  0  0  0  0  0  0  0  0  0
    3.3806  -46.3436  -18.1363 N   0  0  0  0  0  0  0  0  0  0  0  0
    4.3835  -45.5098  -17.5560 C   0  0  0  0  0  0  0  0  0  0  0  0
    5.6747  -45.8090  -18.3200 C   0  0  0  0  0  0  0  0  0  0  0  0
    6.4053  -46.6594  -17.4833 O   0  0  0  0  0  0  0  0  0  0  0  0
    7.5310  -47.0933  -18.1480 C   0  0  0  0  0  0  0  0  0  0  0  0
    7.1798  -47.8330  -19.3980 C   0  0  0  0  0  0  0  0  0  0  0  0
    5.8453  -47.7632  -19.7208 O   0  0  0  0  0  0  0  0  0  0  0  0
    5.2802  -46.5048  -19.5784 C   0  0  0  0  0  0  0  0  0  0  0  0
    3.8013  -46.6535  -19.4831 C   0  0  0  0  0  0  0  0  0  0  0  0
    0.7440  -51.9975  -24.3057 N   0  0  0  0  0  0  0  0  0  0  0  0
    0.2048  -51.2331  -24.8140 H   0  0  0  0  0  0  0  0  0  0  0  0
    2.1536  -51.9139  -24.3523 C   0  0  0  0  0  0  0  0  0  0  0  0
    3.0340  -52.8609  -24.7877 C   0  0  0  0  0  0  0  0  0  0  0  0
    4.4239  -52.6366  -24.8039 C   0  0  0  0  0  0  0  0  0  0  0  0
    4.9558  -51.4555  -24.3830 C   0  0  0  0  0  0  0  0  0  0  0  0
    6.2823  -51.1890  -24.3795 F   0  0  0  0  0  0  0  0  0  0  0  0
    4.0933  -50.4734  -23.9351 C   0  0  0  0  0  0  0  0  0  0  0  0
    2.7366  -50.7090  -23.9257 C   0  0  0  0  0  0  0  0  0  0  0  0
    1.9037  -49.7278  -23.4764 F   0  0  0  0  0  0  0  0  0  0  0  0
   -0.4872  -52.8950  -18.0961 O   0  0  0  0  0  0  0  0  0  0  0  0
   -1.4621  -52.5586  -17.1973 C   0  0  0  0  0  0  0  0  0  0  0  0
   -0.9706  -51.5325  -16.2130 C   0  0  0  0  0  0  0  0  0  0  0  0
   -0.4663  -49.2843  -15.9122 C   0  0  0  0  0  0  0  0  0  0  0  0
   -0.6067  -50.3237  -16.8020 O   0  0  0  0  0  0  0  0  0  0  0  0
 40 41  1  0  0  0
 41 39  1  0  0  0
 39 38  1  0  0  0
 38 37  1  0  0  0
 37  1  1  0  0  0
  1  2  2  0  0  0
  2  3  1  0  0  0
  3  4  2  0  0  0
  4  5  1  0  0  0
  5  6  2  0  0  0
  6  7  1  0  0  0
  7 27  1  0  0  0
 27 29  1  0  0  0
 29 30  2  0  0  0
 30 31  1  0  0  0
 31 32  2  0  0  0
 32 33  1  0  0  0
 32 34  1  0  0  0
 34 35  2  0  0  0
 35 36  1  0  0  0
  7  8  2  0  0  0
  8  9  1  0  0  0
  9 10  2  0  0  0
 10 11  1  0  0  0
 11 12  1  0  0  0
 12 13  2  0  0  0
 12 15  1  0  0  0
 15 16  2  0  0  0
 16 17  1  0  0  0
 17 18  1  0  0  0
 18 19  1  0  0  0
 19 20  1  0  0  0
 20 21  1  0  0  0
 21 22  1  0  0  0
 22 23  1  0  0  0
 23 24  1  0  0  0
 24 25  1  0  0  0
 25 26  1  0  0  0
 10  1  1  0  0  0
 26 18  1  0  0  0
  8  3  1  0  0  0
 25 20  1  0  0  0
 35 29  1  0  0  0
 27 28  1  0  0  0
 11 14  1  0  0  0
M  END
> <minimizedAffinity>
-7.18745

> <CNNscore>
0.6276712418

> <CNNaffinity>
7.0673575401

> <CNN_VS>
4.4359769821

> <CNNaffinity_variance>
0.1030409113

$$$$
[H]/C(C(=O)N([H])c1c(OC([H])([H])C([H])([H])OC([H])([H])[H])c([H])c2nc([H])nc(N([H])c3c([H])c([H])c(F)c([H])c3F)c2c1[H])=C(/[H])C([H])([H])N1C([H])([H])[C@]2([H])OC([H])([H])C([H])([H])O[C@]2([H])C1([H])[H]


 41 45  0  0  0  0  0  0  0  0999 V2000
   -0.4888  -52.8933  -19.4471 C   0  0  0  0  0  0  0  0  0  0  0  0
   -0.9680  -53.7691  -20.3605 C   0  0  0  0  0  0  0  0  0  0  0  0
   -0.6504  -53.6672  -21.7022 C   0  0  0  0  0  0  0  0  0  0  0  0
   -1.1659  -54.5740  -22.5639 N   0  0  0  0  0  0  0  0  0  0  0  0
   -0.8943  -54.5240  -23.8799 C   0  0  0  0  0  0  0  0  0  0  0  0
   -0.0974  -53.5493  -24.3181 N   0  0  0  0  0  0  0  0  0  0  0  0
    0.4656  -52.6024  -23.5550 C   0  0  0  0  0  0  0  0  0  0  0  0
    0.1664  -52.6784  -22.1887 C   0  0  0  0  0  0  0  0  0  0  0  0
    0.6649  -51.7720  -21.2499 C   0  0  0  0  0  0  0  0  0  0  0  0
    0.3628  -51.8550  -19.9188 C   0  0  0  0  0  0  0  0  0  0  0  0
    0.8759  -50.9704  -18.9510 N   0  0  0  0  0  0  0  0  0  0  0  0
    2.1816  -50.9281  -18.4655 C   0  0  0  0  0  0  0  0  0  0  0  0
    3.1031  -51.6984  -18.8487 O   0  0  0  0  0  0  0  0  0  0  0  0
    0.1966  -50.2401  -18.5232 H   0  0  0  0  0  0  0  0  0  0  0  0
    2.5640  -49.9510  -17.4458 C   0  0  0  0  0  0  0  0  0  0  0  0
    2.0322  -48.7779  -17.3359 C   0  0  0  0  0  0  0  0  0  0  0  0
    2.4860  -47.8562  -16.2697 C   0  0  0  0  0  0  0  0  0  0  0  0
    3.2750  -46.8165  -16.9046 N   0  0  0  0  0  0  0  0  0  0  0  0
    3.0221  -45.5154  -16.3743 C   0  0  0  0  0  0  0  0  0  0  0  0
    4.1628  -45.2298  -15.3957 C   0  0  0  0  0  0  0  0  0  0  0  0
    3.6216  -45.4609  -14.1266 O   0  0  0  0  0  0  0  0  0  0  0  0
    4.6190  -45.3588  -13.1820 C   0  0  0  0  0  0  0  0  0  0  0  0
    5.7110  -46.3489  -13.4273 C   0  0  0  0  0  0  0  0  0  0  0  0
    5.5926  -47.0113  -14.6262 O   0  0  0  0  0  0  0  0  0  0  0  0
    5.2479  -46.2057  -15.7011 C   0  0  0  0  0  0  0  0  0  0  0  0
    4.6927  -47.0653  -16.7833 C   0  0  0  0  0  0  0  0  0  0  0  0
    1.3245  -51.5963  -24.0294 N   0  0  0  0  0  0  0  0  0  0  0  0
    0.8886  -50.7393  -24.4867 H   0  0  0  0  0  0  0  0  0  0  0  0
    2.7349  -51.6221  -23.9514 C   0  0  0  0  0  0  0  0  0  0  0  0
    3.5721  -52.6494  -24.2755 C   0  0  0  0  0  0  0  0  0  0  0  0
    4.9715  -52.5323  -24.1735 C   0  0  0  0  0  0  0  0  0  0  0  0
    5.5566  -51.3798  -23.7440 C   0  0  0  0  0  0  0  0  0  0  0  0
    6.8946  -51.2151  -23.6293 F   0  0  0  0  0  0  0  0  0  0  0  0
    4.7387  -50.3184  -23.4069 C   0  0  0  0  0  0  0  0  0  0  0  0
    3.3721  -50.4495  -23.5123 C   0  0  0  0  0  0  0  0  0  0  0  0
    2.5835  -49.3912  -23.1712 F   0  0  0  0  0  0  0  0  0  0  0  0
   -0.7372  -52.9027  -18.1198 O   0  0  0  0  0  0  0  0  0  0  0  0
   -1.8589  -52.8970  -17.3368 C   0  0  0  0  0  0  0  0  0  0  0  0
   -1.8033  -51.8025  -16.3063 C   0  0  0  0  0  0  0  0  0  0  0  0
   -3.9126  -51.1783  -15.5577 C   0  0  0  0  0  0  0  0  0  0  0  0
   -2.7777  -51.9171  -15.3173 O   0  0  0  0  0  0  0  0  0  0  0  0
 40 41  1  0  0  0
 41 39  1  0  0  0
 39 38  1  0  0  0
 38 37  1  0  0  0
 37  1  1  0  0  0
  1  2  2  0  0  0
  2  3  1  0  0  0
  3  4  2  0  0  0
  4  5  1  0  0  0
  5  6  2  0  0  0
  6  7  1  0  0  0
  7 27  1  0  0  0
 27 29  1  0  0  0
 29 30  2  0  0  0
 30 31  1  0  0  0
 31 32  2  0  0  0
 32 33  1  0  0  0
 32 34  1  0  0  0
 34 35  2  0  0  0
 35 36  1  0  0  0
  7  8  2  0  0  0
  8  9  1  0  0  0
  9 10  2  0  0  0
 10 11  1  0  0  0
 11 12  1  0  0  0
 12 13  2  0  0  0
 12 15  1  0  0  0
 15 16  2  0  0  0
 16 17  1  0  0  0
 17 18  1  0  0  0
 18 19  1  0  0  0
 19 20  1  0  0  0
 20 21  1  0  0  0
 21 22  1  0  0  0
 22 23  1  0  0  0
 23 24  1  0  0  0
 24 25  1  0  0  0
 25 26  1  0  0  0
 10  1  1  0  0  0
 26 18  1  0  0  0
  8  3  1  0  0  0
 25 20  1  0  0  0
 35 29  1  0  0  0
 27 28  1  0  0  0
 11 14  1  0  0  0
M  END
> <minimizedAffinity>
-6.90964

> <CNNscore>
0.5926805735

> <CNNaffinity>
7.1484413147

> <CNN_VS>
4.2367424965

> <CNNaffinity_variance>
0.0880393833

$$$$
[H]/C(C(=O)N([H])c1c(N2C([H])([H])C([H])([H])N(C([H])([H])[H])C([H])(C(=O)N([H])C([H])([H])C([H])([H])[H])C2([H])[H])c([H])c2nc([H])nc(N([H])c3c([H])c([H])c(OC([H])([H])c4c([H])c([H])c([H])c(F)c4[H])c(Cl)c3[H])c2c1[H])=C(/[H])C([H])([H])N(C([H])([H])[H])C([H])([H])[H]


 51 55  0  0  0  0  0  0  0  0999 V2000
    0.1537  -52.1645  -20.3452 C   0  0  0  0  0  0  0  0  0  0  0  0
   -0.6915  -53.2125  -20.5902 C   0  0  0  0  0  0  0  0  0  0  0  0
   -0.8097  -53.8200  -21.8375 C   0  0  0  0  0  0  0  0  0  0  0  0
   -1.6699  -54.8357  -21.9908 N   0  0  0  0  0  0  0  0  0  0  0  0
   -1.7734  -55.3997  -23.1976 C   0  0  0  0  0  0  0  0  0  0  0  0
   -1.0425  -54.9641  -24.2175 N   0  0  0  0  0  0  0  0  0  0  0  0
   -0.1606  -53.9576  -24.1542 C   0  0  0  0  0  0  0  0  0  0  0  0
   -0.0502  -53.3626  -22.8892 C   0  0  0  0  0  0  0  0  0  0  0  0
    0.8199  -52.3025  -22.6818 C   0  0  0  0  0  0  0  0  0  0  0  0
    0.9317  -51.6992  -21.4272 C   0  0  0  0  0  0  0  0  0  0  0  0
    1.2701  -50.0952  -17.5317 C   0  0  0  0  0  0  0  0  0  0  0  0
    0.6378  -50.1557  -18.8893 C   0  0  0  0  0  0  0  0  0  0  0  0
    0.1921  -51.5457  -19.0738 N   0  0  0  0  0  0  0  0  0  0  0  0
   -0.1971  -52.2211  -17.8594 C   0  0  0  0  0  0  0  0  0  0  0  0
   -0.6474  -51.2394  -16.8060 C   0  0  0  0  0  0  0  0  0  0  0  0
    0.3019  -50.1973  -16.5002 N   0  0  0  0  0  0  0  0  0  0  0  0
   -0.4341  -49.0048  -16.2008 C   0  0  0  0  0  0  0  0  0  0  0  0
    3.0467  -48.9432  -16.1984 N   0  0  0  0  0  0  0  0  0  0  0  0
    2.2699  -49.0010  -17.3865 C   0  0  0  0  0  0  0  0  0  0  0  0
    2.4727  -48.1168  -18.2546 O   0  0  0  0  0  0  0  0  0  0  0  0
    2.9624  -49.6277  -15.4078 H   0  0  0  0  0  0  0  0  0  0  0  0
    3.7944  -47.1904  -14.6986 C   0  0  0  0  0  0  0  0  0  0  0  0
    4.0168  -47.8935  -16.0280 C   0  0  0  0  0  0  0  0  0  0  0  0
    1.8569  -50.6781  -21.2221 N   0  0  0  0  0  0  0  0  0  0  0  0
    3.2424  -50.7544  -21.2253 C   0  0  0  0  0  0  0  0  0  0  0  0
    3.9141  -51.7651  -21.4301 O   0  0  0  0  0  0  0  0  0  0  0  0
    1.4492  -49.7143  -21.0228 H   0  0  0  0  0  0  0  0  0  0  0  0
    4.0443  -49.5116  -20.9567 C   0  0  0  0  0  0  0  0  0  0  0  0
    5.3250  -49.4512  -21.1832 C   0  0  0  0  0  0  0  0  0  0  0  0
    6.1356  -48.2311  -20.9221 C   0  0  0  0  0  0  0  0  0  0  0  0
    7.4156  -48.4007  -21.5483 N   0  0  0  0  0  0  0  0  0  0  0  0
    7.6980  -49.7944  -21.7357 C   0  0  0  0  0  0  0  0  0  0  0  0
    7.4215  -47.7511  -22.8433 C   0  0  0  0  0  0  0  0  0  0  0  0
    0.6144  -53.5651  -25.2431 N   0  0  0  0  0  0  0  0  0  0  0  0
    0.4913  -54.1079  -26.1480 H   0  0  0  0  0  0  0  0  0  0  0  0
    1.5478  -52.5203  -25.2616 C   0  0  0  0  0  0  0  0  0  0  0  0
    1.2813  -51.2123  -25.6233 C   0  0  0  0  0  0  0  0  0  0  0  0
    2.2525  -50.2379  -25.6229 C   0  0  0  0  0  0  0  0  0  0  0  0
    3.5450  -50.5734  -25.2461 C   0  0  0  0  0  0  0  0  0  0  0  0
    3.8224  -51.8681  -24.8859 C   0  0  0  0  0  0  0  0  0  0  0  0
    5.4570  -52.3315  -24.3978 Cl  0  0  0  0  0  0  0  0  0  0  0  0
    2.8402  -52.8147  -24.8961 C   0  0  0  0  0  0  0  0  0  0  0  0
    4.5018  -49.5891  -25.2504 O   0  0  0  0  0  0  0  0  0  0  0  0
    4.5360  -48.3970  -25.9600 C   0  0  0  0  0  0  0  0  0  0  0  0
    3.8133  -47.3126  -25.2473 C   0  0  0  0  0  0  0  0  0  0  0  0
    3.0805  -46.4040  -25.9794 C   0  0  0  0  0  0  0  0  0  0  0  0
    2.4042  -45.3870  -25.3693 C   0  0  0  0  0  0  0  0  0  0  0  0
    2.4647  -45.2768  -23.9754 C   0  0  0  0  0  0  0  0  0  0  0  0
    3.1816  -46.1629  -23.2455 C   0  0  0  0  0  0  0  0  0  0  0  0
    3.2622  -46.0876  -21.8735 F   0  0  0  0  0  0  0  0  0  0  0  0
    3.8639  -47.1926  -23.8939 C   0  0  0  0  0  0  0  0  0  0  0  0
 22 23  1  0  0  0
 23 18  1  0  0  0
 18 19  1  0  0  0
 19 20  2  0  0  0
 19 11  1  0  0  0
 11 12  1  0  0  0
 12 13  1  0  0  0
 13 14  1  0  0  0
 14 15  1  0  0  0
 15 16  1  0  0  0
 16 17  1  0  0  0
 13  1  1  0  0  0
  1  2  2  0  0  0
  2  3  1  0  0  0
  3  4  2  0  0  0
  4  5  1  0  0  0
  5  6  2  0  0  0
  6  7  1  0  0  0
  7 34  1  0  0  0
 34 36  1  0  0  0
 36 37  2  0  0  0
 37 38  1  0  0  0
 38 39  2  0  0  0
 39 43  1  0  0  0
 43 44  1  0  0  0
 44 45  1  0  0  0
 45 46  2  0  0  0
 46 47  1  0  0  0
 47 48  2  0  0  0
 48 49  1  0  0  0
 49 50  1  0  0  0
 49 51  2  0  0  0
 39 40  1  0  0  0
 40 41  1  0  0  0
 40 42  2  0  0  0
  7  8  2  0  0  0
  8  9  1  0  0  0
  9 10  2  0  0  0
 10 24  1  0  0  0
 24 25  1  0  0  0
 25 26  2  0  0  0
 25 28  1  0  0  0
 28 29  2  0  0  0
 29 30  1  0  0  0
 30 31  1  0  0  0
 31 32  1  0  0  0
 31 33  1  0  0  0
 16 11  1  0  0  0
 10  1  1  0  0  0
  8  3  1  0  0  0
 42 36  1  0  0  0
 51 45  1  0  0  0
 18 21  1  0  0  0
 34 35  1  0  0  0
 24 27  1  0  0  0
M  END
> <minimizedAffinity>
-7.98557

> <CNNscore>
0.4571446478

> <CNNaffinity>
7.8426790237

> <CNN_VS>
3.5852386951

> <CNNaffinity_variance>
0.5166424513

$$$$
[H]/C(C(=O)N([H])c1c(N2C([H])([H])C([H])([H])N(C([H])([H])[H])C([H])(C(=O)N([H])C([H])([H])C([H])([H])[H])C2([H])[H])c([H])c2nc([H])nc(N([H])c3c([H])c([H])c(OC([H])([H])c4c([H])c([H])c([H])c(F)c4[H])c(Cl)c3[H])c2c1[H])=C(/[H])C([H])([H])N(C([H])([H])[H])C([H])([H])[H]


 51 55  0  0  0  0  0  0  0  0999 V2000
   -0.1664  -52.0989  -19.3950 C   0  0  0  0  0  0  0  0  0  0  0  0
   -0.7210  -53.2662  -19.8451 C   0  0  0  0  0  0  0  0  0  0  0  0
   -0.7576  -53.6229  -21.1906 C   0  0  0  0  0  0  0  0  0  0  0  0
   -1.3292  -54.7819  -21.5440 N   0  0  0  0  0  0  0  0  0  0  0  0
   -1.3603  -55.1017  -22.8410 C   0  0  0  0  0  0  0  0  0  0  0  0
   -0.8384  -54.2912  -23.7546 N   0  0  0  0  0  0  0  0  0  0  0  0
   -0.2494  -53.1170  -23.4912 C   0  0  0  0  0  0  0  0  0  0  0  0
   -0.2159  -52.7778  -22.1311 C   0  0  0  0  0  0  0  0  0  0  0  0
    0.3570  -51.5849  -21.7155 C   0  0  0  0  0  0  0  0  0  0  0  0
    0.3890  -51.2354  -20.3637 C   0  0  0  0  0  0  0  0  0  0  0  0
   -1.4684  -51.2518  -16.0737 C   0  0  0  0  0  0  0  0  0  0  0  0
   -1.2184  -52.3090  -17.1063 C   0  0  0  0  0  0  0  0  0  0  0  0
   -0.2080  -51.7580  -18.0229 N   0  0  0  0  0  0  0  0  0  0  0  0
    0.7283  -50.8459  -17.4114 C   0  0  0  0  0  0  0  0  0  0  0  0
    0.8714  -51.1155  -15.9339 C   0  0  0  0  0  0  0  0  0  0  0  0
   -0.3658  -51.1122  -15.1923 N   0  0  0  0  0  0  0  0  0  0  0  0
   -0.2581  -52.0911  -14.1513 C   0  0  0  0  0  0  0  0  0  0  0  0
   -3.5240  -52.5707  -15.5292 N   0  0  0  0  0  0  0  0  0  0  0  0
   -2.8105  -51.3458  -15.4350 C   0  0  0  0  0  0  0  0  0  0  0  0
   -3.3584  -50.4028  -14.8128 O   0  0  0  0  0  0  0  0  0  0  0  0
   -3.1643  -53.4232  -16.0239 H   0  0  0  0  0  0  0  0  0  0  0  0
   -5.4503  -54.0250  -15.2948 C   0  0  0  0  0  0  0  0  0  0  0  0
   -4.8258  -52.6888  -14.9265 C   0  0  0  0  0  0  0  0  0  0  0  0
    1.0252  -50.0639  -19.9591 N   0  0  0  0  0  0  0  0  0  0  0  0
    2.2113  -49.5185  -20.4291 C   0  0  0  0  0  0  0  0  0  0  0  0
    2.9209  -49.9818  -21.3216 O   0  0  0  0  0  0  0  0  0  0  0  0
    0.5470  -49.5215  -19.1767 H   0  0  0  0  0  0  0  0  0  0  0  0
    2.7211  -48.2416  -19.8213 C   0  0  0  0  0  0  0  0  0  0  0  0
    3.2265  -48.1987  -18.6222 C   0  0  0  0  0  0  0  0  0  0  0  0
    3.7344  -46.9446  -18.0033 C   0  0  0  0  0  0  0  0  0  0  0  0
    4.3448  -47.2792  -16.7484 N   0  0  0  0  0  0  0  0  0  0  0  0
    4.5292  -46.0996  -15.9536 C   0  0  0  0  0  0  0  0  0  0  0  0
    3.4978  -48.1997  -16.0175 C   0  0  0  0  0  0  0  0  0  0  0  0
    0.3218  -52.3215  -24.4819 N   0  0  0  0  0  0  0  0  0  0  0  0
   -0.3147  -51.9877  -25.2641 H   0  0  0  0  0  0  0  0  0  0  0  0
    1.6619  -51.9182  -24.5497 C   0  0  0  0  0  0  0  0  0  0  0  0
    2.7560  -52.7205  -24.2813 C   0  0  0  0  0  0  0  0  0  0  0  0
    4.0472  -52.2528  -24.3631 C   0  0  0  0  0  0  0  0  0  0  0  0
    4.2647  -50.9320  -24.7284 C   0  0  0  0  0  0  0  0  0  0  0  0
    3.1874  -50.1255  -24.9962 C   0  0  0  0  0  0  0  0  0  0  0  0
    3.4263  -48.4383  -25.4667 Cl  0  0  0  0  0  0  0  0  0  0  0  0
    1.9173  -50.6152  -24.9065 C   0  0  0  0  0  0  0  0  0  0  0  0
    5.5591  -50.4816  -24.8060 O   0  0  0  0  0  0  0  0  0  0  0  0
    6.5761  -50.5574  -23.8649 C   0  0  0  0  0  0  0  0  0  0  0  0
    6.4383  -49.5093  -22.8215 C   0  0  0  0  0  0  0  0  0  0  0  0
    6.2700  -48.1979  -23.2092 C   0  0  0  0  0  0  0  0  0  0  0  0
    6.1446  -47.1994  -22.2868 C   0  0  0  0  0  0  0  0  0  0  0  0
    6.1894  -47.5270  -20.9269 C   0  0  0  0  0  0  0  0  0  0  0  0
    6.3547  -48.8115  -20.5337 C   0  0  0  0  0  0  0  0  0  0  0  0
    6.4011  -49.1718  -19.2060 F   0  0  0  0  0  0  0  0  0  0  0  0
    6.4810  -49.8128  -21.4968 C   0  0  0  0  0  0  0  0  0  0  0  0
 22 23  1  0  0  0
 23 18  1  0  0  0
 18 19  1  0  0  0
 19 20  2  0  0  0
 19 11  1  0  0  0
 11 12  1  0  0  0
 12 13  1  0  0  0
 13 14  1  0  0  0
 14 15  1  0  0  0
 15 16  1  0  0  0
 16 17  1  0  0  0
 13  1  1  0  0  0
  1  2  2  0  0  0
  2  3  1  0  0  0
  3  4  2  0  0  0
  4  5  1  0  0  0
  5  6  2  0  0  0
  6  7  1  0  0  0
  7 34  1  0  0  0
 34 36  1  0  0  0
 36 37  2  0  0  0
 37 38  1  0  0  0
 38 39  2  0  0  0
 39 43  1  0  0  0
 43 44  1  0  0  0
 44 45  1  0  0  0
 45 46  2  0  0  0
 46 47  1  0  0  0
 47 48  2  0  0  0
 48 49  1  0  0  0
 49 50  1  0  0  0
 49 51  2  0  0  0
 39 40  1  0  0  0
 40 41  1  0  0  0
 40 42  2  0  0  0
  7  8  2  0  0  0
  8  9  1  0  0  0
  9 10  2  0  0  0
 10 24  1  0  0  0
 24 25  1  0  0  0
 25 26  2  0  0  0
 25 28  1  0  0  0
 28 29  2  0  0  0
 29 30  1  0  0  0
 30 31  1  0  0  0
 31 32  1  0  0  0
 31 33  1  0  0  0
 16 11  1  0  0  0
 10  1  1  0  0  0
  8  3  1  0  0  0
 42 36  1  0  0  0
 51 45  1  0  0  0
 18 21  1  0  0  0
 34 35  1  0  0  0
 24 27  1  0  0  0
M  END
> <minimizedAffinity>
-8.08230

> <CNNscore>
0.4533261955

> <CNNaffinity>
7.9224500656

> <CNN_VS>
3.5914540291

> <CNNaffinity_variance>
0.2247542590

$$$$
[H]/C(C(=O)N([H])c1c(N2C([H])([H])C([H])([H])N(C([H])([H])[H])C([H])(C(=O)N([H])C([H])([H])C([H])([H])[H])C2([H])[H])c([H])c2nc([H])nc(N([H])c3c([H])c([H])c(OC([H])([H])c4c([H])c([H])c([H])c(F)c4[H])c(Cl)c3[H])c2c1[H])=C(/[H])C([H])([H])N(C([H])([H])[H])C([H])([H])[H]


 51 55  0  0  0  0  0  0  0  0999 V2000
   -0.0559  -51.9472  -19.0508 C   0  0  0  0  0  0  0  0  0  0  0  0
   -0.6057  -53.1009  -19.5400 C   0  0  0  0  0  0  0  0  0  0  0  0
   -0.6135  -53.4265  -20.8937 C   0  0  0  0  0  0  0  0  0  0  0  0
   -1.1825  -54.5742  -21.2865 N   0  0  0  0  0  0  0  0  0  0  0  0
   -1.1858  -54.8640  -22.5908 C   0  0  0  0  0  0  0  0  0  0  0  0
   -0.6394  -54.0356  -23.4736 N   0  0  0  0  0  0  0  0  0  0  0  0
   -0.0510  -52.8709  -23.1702 C   0  0  0  0  0  0  0  0  0  0  0  0
   -0.0467  -52.5630  -21.8021 C   0  0  0  0  0  0  0  0  0  0  0  0
    0.5224  -51.3830  -21.3464 C   0  0  0  0  0  0  0  0  0  0  0  0
    0.5255  -51.0646  -19.9866 C   0  0  0  0  0  0  0  0  0  0  0  0
   -1.4290  -51.1946  -15.7354 C   0  0  0  0  0  0  0  0  0  0  0  0
   -1.1441  -52.2246  -16.7863 C   0  0  0  0  0  0  0  0  0  0  0  0
   -0.1269  -51.6375  -17.6724 N   0  0  0  0  0  0  0  0  0  0  0  0
    0.7838  -50.7245  -17.0245 C   0  0  0  0  0  0  0  0  0  0  0  0
    0.9054  -51.0247  -15.5510 C   0  0  0  0  0  0  0  0  0  0  0  0
   -0.3445  -51.0573  -14.8317 N   0  0  0  0  0  0  0  0  0  0  0  0
   -0.2392  -52.0572  -13.8106 C   0  0  0  0  0  0  0  0  0  0  0  0
   -3.4844  -52.5476  -15.2813 N   0  0  0  0  0  0  0  0  0  0  0  0
   -2.7804  -51.3239  -15.1229 C   0  0  0  0  0  0  0  0  0  0  0  0
   -3.3441  -50.4119  -14.4694 O   0  0  0  0  0  0  0  0  0  0  0  0
   -3.1116  -53.3759  -15.8065 H   0  0  0  0  0  0  0  0  0  0  0  0
   -5.4451  -53.9734  -15.2197 C   0  0  0  0  0  0  0  0  0  0  0  0
   -4.7948  -52.6993  -14.7051 C   0  0  0  0  0  0  0  0  0  0  0  0
    1.1579  -49.9061  -19.5409 N   0  0  0  0  0  0  0  0  0  0  0  0
    2.4042  -49.4108  -19.8971 C   0  0  0  0  0  0  0  0  0  0  0  0
    3.1841  -49.9170  -20.7034 O   0  0  0  0  0  0  0  0  0  0  0  0
    0.6219  -49.3310  -18.8220 H   0  0  0  0  0  0  0  0  0  0  0  0
    2.8940  -48.1382  -19.2643 C   0  0  0  0  0  0  0  0  0  0  0  0
    3.2668  -47.1114  -19.9725 C   0  0  0  0  0  0  0  0  0  0  0  0
    3.7559  -45.8445  -19.3643 C   0  0  0  0  0  0  0  0  0  0  0  0
    4.4608  -45.1060  -20.3728 N   0  0  0  0  0  0  0  0  0  0  0  0
    3.9350  -45.4099  -21.6722 C   0  0  0  0  0  0  0  0  0  0  0  0
    4.3132  -43.6841  -20.1369 C   0  0  0  0  0  0  0  0  0  0  0  0
    0.5463  -52.0560  -24.1291 N   0  0  0  0  0  0  0  0  0  0  0  0
   -0.0909  -51.6098  -24.8526 H   0  0  0  0  0  0  0  0  0  0  0  0
    1.9133  -51.7674  -24.2353 C   0  0  0  0  0  0  0  0  0  0  0  0
    2.9255  -52.7040  -24.3398 C   0  0  0  0  0  0  0  0  0  0  0  0
    4.2504  -52.3458  -24.4350 C   0  0  0  0  0  0  0  0  0  0  0  0
    4.5878  -51.0000  -24.4279 C   0  0  0  0  0  0  0  0  0  0  0  0
    3.5927  -50.0610  -24.3237 C   0  0  0  0  0  0  0  0  0  0  0  0
    3.9850  -48.3373  -24.3137 Cl  0  0  0  0  0  0  0  0  0  0  0  0
    2.2869  -50.4442  -24.2298 C   0  0  0  0  0  0  0  0  0  0  0  0
    5.9142  -50.6598  -24.5246 O   0  0  0  0  0  0  0  0  0  0  0  0
    6.9324  -50.8109  -23.5938 C   0  0  0  0  0  0  0  0  0  0  0  0
    6.9136  -49.7272  -22.5783 C   0  0  0  0  0  0  0  0  0  0  0  0
    7.3084  -48.4593  -22.9460 C   0  0  0  0  0  0  0  0  0  0  0  0
    7.3134  -47.4325  -22.0464 C   0  0  0  0  0  0  0  0  0  0  0  0
    6.9081  -47.6855  -20.7309 C   0  0  0  0  0  0  0  0  0  0  0  0
    6.5186  -48.9268  -20.3576 C   0  0  0  0  0  0  0  0  0  0  0  0
    6.1114  -49.2126  -19.0742 F   0  0  0  0  0  0  0  0  0  0  0  0
    6.5234  -49.9586  -21.2965 C   0  0  0  0  0  0  0  0  0  0  0  0
 22 23  1  0  0  0
 23 18  1  0  0  0
 18 19  1  0  0  0
 19 20  2  0  0  0
 19 11  1  0  0  0
 11 12  1  0  0  0
 12 13  1  0  0  0
 13 14  1  0  0  0
 14 15  1  0  0  0
 15 16  1  0  0  0
 16 17  1  0  0  0
 13  1  1  0  0  0
  1  2  2  0  0  0
  2  3  1  0  0  0
  3  4  2  0  0  0
  4  5  1  0  0  0
  5  6  2  0  0  0
  6  7  1  0  0  0
  7 34  1  0  0  0
 34 36  1  0  0  0
 36 37  2  0  0  0
 37 38  1  0  0  0
 38 39  2  0  0  0
 39 43  1  0  0  0
 43 44  1  0  0  0
 44 45  1  0  0  0
 45 46  2  0  0  0
 46 47  1  0  0  0
 47 48  2  0  0  0
 48 49  1  0  0  0
 49 50  1  0  0  0
 49 51  2  0  0  0
 39 40  1  0  0  0
 40 41  1  0  0  0
 40 42  2  0  0  0
  7  8  2  0  0  0
  8  9  1  0  0  0
  9 10  2  0  0  0
 10 24  1  0  0  0
 24 25  1  0  0  0
 25 26  2  0  0  0
 25 28  1  0  0  0
 28 29  2  0  0  0
 29 30  1  0  0  0
 30 31  1  0  0  0
 31 32  1  0  0  0
 31 33  1  0  0  0
 16 11  1  0  0  0
 10  1  1  0  0  0
  8  3  1  0  0  0
 42 36  1  0  0  0
 51 45  1  0  0  0
 18 21  1  0  0  0
 34 35  1  0  0  0
 24 27  1  0  0  0
M  END
> <minimizedAffinity>
-8.18112

> <CNNscore>
0.3054464757

> <CNNaffinity>
7.6581544876

> <CNN_VS>
2.3391563892

> <CNNaffinity_variance>
0.2794628143

$$$$
[H]/C(C(=O)N([H])c1c(N2C([H])([H])C([H])([H])N(C([H])([H])[H])C([H])(C(=O)N([H])C([H])([H])C([H])([H])[H])C2([H])[H])c([H])c2nc([H])nc(N([H])c3c([H])c([H])c(OC([H])([H])c4c([H])c([H])c([H])c(F)c4[H])c(Cl)c3[H])c2c1[H])=C(/[H])C([H])([H])N(C([H])([H])[H])C([H])([H])[H]


 51 55  0  0  0  0  0  0  0  0999 V2000
   -0.0979  -51.5554  -17.9021 C   0  0  0  0  0  0  0  0  0  0  0  0
   -0.5979  -52.6166  -18.6067 C   0  0  0  0  0  0  0  0  0  0  0  0
   -0.3985  -52.7845  -19.9745 C   0  0  0  0  0  0  0  0  0  0  0  0
   -0.9326  -53.8498  -20.5868 N   0  0  0  0  0  0  0  0  0  0  0  0
   -0.7356  -53.9880  -21.9011 C   0  0  0  0  0  0  0  0  0  0  0  0
   -0.0291  -53.0924  -22.5814 N   0  0  0  0  0  0  0  0  0  0  0  0
    0.5390  -52.0009  -22.0516 C   0  0  0  0  0  0  0  0  0  0  0  0
    0.3334  -51.8521  -20.6725 C   0  0  0  0  0  0  0  0  0  0  0  0
    0.8584  -50.7619  -19.9945 C   0  0  0  0  0  0  0  0  0  0  0  0
    0.6532  -50.6017  -18.6224 C   0  0  0  0  0  0  0  0  0  0  0  0
   -1.9616  -51.2884  -14.7557 C   0  0  0  0  0  0  0  0  0  0  0  0
   -1.4366  -52.1703  -15.8480 C   0  0  0  0  0  0  0  0  0  0  0  0
   -0.3795  -51.4022  -16.5244 N   0  0  0  0  0  0  0  0  0  0  0  0
    0.3389  -50.4849  -15.6730 C   0  0  0  0  0  0  0  0  0  0  0  0
    0.2986  -50.9282  -14.2315 C   0  0  0  0  0  0  0  0  0  0  0  0
   -1.0240  -51.1506  -13.7003 N   0  0  0  0  0  0  0  0  0  0  0  0
   -0.9487  -52.2400  -12.7725 C   0  0  0  0  0  0  0  0  0  0  0  0
   -3.8145  -52.9453  -14.4685 N   0  0  0  0  0  0  0  0  0  0  0  0
   -3.3602  -51.6042  -14.3531 C   0  0  0  0  0  0  0  0  0  0  0  0
   -4.1725  -50.7533  -13.9143 O   0  0  0  0  0  0  0  0  0  0  0  0
   -3.2238  -53.7371  -14.8220 H   0  0  0  0  0  0  0  0  0  0  0  0
   -5.7645  -54.2379  -15.1070 C   0  0  0  0  0  0  0  0  0  0  0  0
   -5.1633  -53.2789  -14.0922 C   0  0  0  0  0  0  0  0  0  0  0  0
    1.2417  -49.5348  -17.9470 N   0  0  0  0  0  0  0  0  0  0  0  0
    2.5807  -49.1737  -17.9026 C   0  0  0  0  0  0  0  0  0  0  0  0
    3.5064  -49.7422  -18.4811 O   0  0  0  0  0  0  0  0  0  0  0  0
    0.5805  -48.9229  -17.3783 H   0  0  0  0  0  0  0  0  0  0  0  0
    2.9906  -47.9826  -17.0822 C   0  0  0  0  0  0  0  0  0  0  0  0
    2.2979  -47.5758  -16.0577 C   0  0  0  0  0  0  0  0  0  0  0  0
    2.6866  -46.3985  -15.2349 C   0  0  0  0  0  0  0  0  0  0  0  0
    1.7879  -46.3148  -14.1193 N   0  0  0  0  0  0  0  0  0  0  0  0
    0.4469  -46.0894  -14.5753 C   0  0  0  0  0  0  0  0  0  0  0  0
    1.8171  -47.5532  -13.3680 C   0  0  0  0  0  0  0  0  0  0  0  0
    1.3075  -51.1125  -22.8003 N   0  0  0  0  0  0  0  0  0  0  0  0
    0.7970  -50.5022  -23.5042 H   0  0  0  0  0  0  0  0  0  0  0  0
    2.6962  -50.9456  -22.7175 C   0  0  0  0  0  0  0  0  0  0  0  0
    3.3448  -49.9680  -21.9851 C   0  0  0  0  0  0  0  0  0  0  0  0
    4.7161  -49.8611  -21.9554 C   0  0  0  0  0  0  0  0  0  0  0  0
    5.4792  -50.7636  -22.6823 C   0  0  0  0  0  0  0  0  0  0  0  0
    4.8475  -51.7376  -23.4138 C   0  0  0  0  0  0  0  0  0  0  0  0
    5.7873  -52.9060  -24.3501 Cl  0  0  0  0  0  0  0  0  0  0  0  0
    3.4859  -51.8201  -23.4261 C   0  0  0  0  0  0  0  0  0  0  0  0
    6.8460  -50.6435  -22.6412 O   0  0  0  0  0  0  0  0  0  0  0  0
    7.6382  -49.5222  -22.8431 C   0  0  0  0  0  0  0  0  0  0  0  0
    7.8583  -48.7706  -21.5810 C   0  0  0  0  0  0  0  0  0  0  0  0
    8.1729  -49.4668  -20.4343 C   0  0  0  0  0  0  0  0  0  0  0  0
    8.3785  -48.8203  -19.2497 C   0  0  0  0  0  0  0  0  0  0  0  0
    8.2649  -47.4259  -19.2130 C   0  0  0  0  0  0  0  0  0  0  0  0
    7.9560  -46.7310  -20.3326 C   0  0  0  0  0  0  0  0  0  0  0  0
    7.8381  -45.3596  -20.3354 F   0  0  0  0  0  0  0  0  0  0  0  0
    7.7502  -47.4162  -21.5302 C   0  0  0  0  0  0  0  0  0  0  0  0
 22 23  1  0  0  0
 23 18  1  0  0  0
 18 19  1  0  0  0
 19 20  2  0  0  0
 19 11  1  0  0  0
 11 12  1  0  0  0
 12 13  1  0  0  0
 13 14  1  0  0  0
 14 15  1  0  0  0
 15 16  1  0  0  0
 16 17  1  0  0  0
 13  1  1  0  0  0
  1  2  2  0  0  0
  2  3  1  0  0  0
  3  4  2  0  0  0
  4  5  1  0  0  0
  5  6  2  0  0  0
  6  7  1  0  0  0
  7 34  1  0  0  0
 34 36  1  0  0  0
 36 37  2  0  0  0
 37 38  1  0  0  0
 38 39  2  0  0  0
 39 43  1  0  0  0
 43 44  1  0  0  0
 44 45  1  0  0  0
 45 46  2  0  0  0
 46 47  1  0  0  0
 47 48  2  0  0  0
 48 49  1  0  0  0
 49 50  1  0  0  0
 49 51  2  0  0  0
 39 40  1  0  0  0
 40 41  1  0  0  0
 40 42  2  0  0  0
  7  8  2  0  0  0
  8  9  1  0  0  0
  9 10  2  0  0  0
 10 24  1  0  0  0
 24 25  1  0  0  0
 25 26  2  0  0  0
 25 28  1  0  0  0
 28 29  2  0  0  0
 29 30  1  0  0  0
 30 31  1  0  0  0
 31 32  1  0  0  0
 31 33  1  0  0  0
 16 11  1  0  0  0
 10  1  1  0  0  0
  8  3  1  0  0  0
 42 36  1  0  0  0
 51 45  1  0  0  0
 18 21  1  0  0  0
 34 35  1  0  0  0
 24 27  1  0  0  0
M  END
> <minimizedAffinity>
-6.85718

> <CNNscore>
0.2992517948

> <CNNaffinity>
7.5967445374

> <CNN_VS>
2.2733395100

> <CNNaffinity_variance>
0.2017894983

$$$$
[H]/C(C(=O)N([H])c1c(N2C([H])([H])C([H])([H])N(C([H])([H])[H])C([H])(C(=O)N([H])C([H])([H])C([H])([H])[H])C2([H])[H])c([H])c2nc([H])nc(N([H])c3c([H])c([H])c(OC([H])([H])c4c([H])c([H])c([H])c(F)c4[H])c(Cl)c3[H])c2c1[H])=C(/[H])C([H])([H])N(C([H])([H])[H])C([H])([H])[H]


 51 55  0  0  0  0  0  0  0  0999 V2000
   -0.0837  -51.4617  -18.1308 C   0  0  0  0  0  0  0  0  0  0  0  0
   -0.6903  -52.2788  -19.0458 C   0  0  0  0  0  0  0  0  0  0  0  0
   -0.1722  -52.5163  -20.3162 C   0  0  0  0  0  0  0  0  0  0  0  0
   -0.8376  -53.3243  -21.1526 N   0  0  0  0  0  0  0  0  0  0  0  0
   -0.3269  -53.5330  -22.3696 C   0  0  0  0  0  0  0  0  0  0  0  0
    0.8099  -52.9541  -22.7392 N   0  0  0  0  0  0  0  0  0  0  0  0
    1.5386  -52.1345  -21.9698 C   0  0  0  0  0  0  0  0  0  0  0  0
    1.0051  -51.9124  -20.6921 C   0  0  0  0  0  0  0  0  0  0  0  0
    1.6518  -51.0775  -19.7930 C   0  0  0  0  0  0  0  0  0  0  0  0
    1.1246  -50.8450  -18.5207 C   0  0  0  0  0  0  0  0  0  0  0  0
   -2.5945  -51.2727  -15.4654 C   0  0  0  0  0  0  0  0  0  0  0  0
   -1.6629  -52.1258  -16.2722 C   0  0  0  0  0  0  0  0  0  0  0  0
   -0.6831  -51.2084  -16.8749 N   0  0  0  0  0  0  0  0  0  0  0  0
   -0.3885  -50.0365  -16.0859 C   0  0  0  0  0  0  0  0  0  0  0  0
   -0.6395  -50.2854  -14.6193 C   0  0  0  0  0  0  0  0  0  0  0  0
   -1.9619  -50.7659  -14.3014 N   0  0  0  0  0  0  0  0  0  0  0  0
   -1.8480  -51.6712  -13.1964 C   0  0  0  0  0  0  0  0  0  0  0  0
   -4.0986  -53.2722  -15.4958 N   0  0  0  0  0  0  0  0  0  0  0  0
   -3.9407  -51.8787  -15.2689 C   0  0  0  0  0  0  0  0  0  0  0  0
   -4.9558  -51.2313  -14.9127 O   0  0  0  0  0  0  0  0  0  0  0  0
   -3.3214  -53.9102  -15.7955 H   0  0  0  0  0  0  0  0  0  0  0  0
   -5.4999  -54.4717  -13.9215 C   0  0  0  0  0  0  0  0  0  0  0  0
   -5.3894  -53.8843  -15.3193 C   0  0  0  0  0  0  0  0  0  0  0  0
    1.8207  -50.0546  -17.6089 N   0  0  0  0  0  0  0  0  0  0  0  0
    3.0736  -50.2749  -17.0548 C   0  0  0  0  0  0  0  0  0  0  0  0
    3.8153  -51.2282  -17.2909 O   0  0  0  0  0  0  0  0  0  0  0  0
    1.3215  -49.1719  -17.2825 H   0  0  0  0  0  0  0  0  0  0  0  0
    3.6207  -49.2841  -16.0655 C   0  0  0  0  0  0  0  0  0  0  0  0
    2.9023  -48.3048  -15.5965 C   0  0  0  0  0  0  0  0  0  0  0  0
    3.4266  -47.3138  -14.6183 C   0  0  0  0  0  0  0  0  0  0  0  0
    2.3108  -46.6209  -14.0402 N   0  0  0  0  0  0  0  0  0  0  0  0
    1.5650  -45.9399  -15.0586 C   0  0  0  0  0  0  0  0  0  0  0  0
    1.4326  -47.5647  -13.3792 C   0  0  0  0  0  0  0  0  0  0  0  0
    2.7482  -51.5850  -22.3886 N   0  0  0  0  0  0  0  0  0  0  0  0
    3.6381  -52.0165  -22.0007 H   0  0  0  0  0  0  0  0  0  0  0  0
    2.9074  -50.5112  -23.2745 C   0  0  0  0  0  0  0  0  0  0  0  0
    2.9754  -50.6107  -24.6522 C   0  0  0  0  0  0  0  0  0  0  0  0
    3.1388  -49.5097  -25.4607 C   0  0  0  0  0  0  0  0  0  0  0  0
    3.2379  -48.2539  -24.8791 C   0  0  0  0  0  0  0  0  0  0  0  0
    3.1729  -48.1421  -23.5130 C   0  0  0  0  0  0  0  0  0  0  0  0
    3.2930  -46.5582  -22.7371 Cl  0  0  0  0  0  0  0  0  0  0  0  0
    3.0112  -49.2508  -22.7349 C   0  0  0  0  0  0  0  0  0  0  0  0
    3.3998  -47.1659  -25.7001 O   0  0  0  0  0  0  0  0  0  0  0  0
    4.3999  -46.9016  -26.6253 C   0  0  0  0  0  0  0  0  0  0  0  0
    3.8476  -46.7047  -27.9900 C   0  0  0  0  0  0  0  0  0  0  0  0
    2.7420  -45.8990  -28.1541 C   0  0  0  0  0  0  0  0  0  0  0  0
    2.1955  -45.6926  -29.3880 C   0  0  0  0  0  0  0  0  0  0  0  0
    2.7781  -46.3162  -30.4972 C   0  0  0  0  0  0  0  0  0  0  0  0
    3.8640  -47.1102  -30.3487 C   0  0  0  0  0  0  0  0  0  0  0  0
    4.4651  -47.7377  -31.4161 F   0  0  0  0  0  0  0  0  0  0  0  0
    4.4025  -47.3049  -29.0766 C   0  0  0  0  0  0  0  0  0  0  0  0
 22 23  1  0  0  0
 23 18  1  0  0  0
 18 19  1  0  0  0
 19 20  2  0  0  0
 19 11  1  0  0  0
 11 12  1  0  0  0
 12 13  1  0  0  0
 13 14  1  0  0  0
 14 15  1  0  0  0
 15 16  1  0  0  0
 16 17  1  0  0  0
 13  1  1  0  0  0
  1  2  2  0  0  0
  2  3  1  0  0  0
  3  4  2  0  0  0
  4  5  1  0  0  0
  5  6  2  0  0  0
  6  7  1  0  0  0
  7 34  1  0  0  0
 34 36  1  0  0  0
 36 37  2  0  0  0
 37 38  1  0  0  0
 38 39  2  0  0  0
 39 43  1  0  0  0
 43 44  1  0  0  0
 44 45  1  0  0  0
 45 46  2  0  0  0
 46 47  1  0  0  0
 47 48  2  0  0  0
 48 49  1  0  0  0
 49 50  1  0  0  0
 49 51  2  0  0  0
 39 40  1  0  0  0
 40 41  1  0  0  0
 40 42  2  0  0  0
  7  8  2  0  0  0
  8  9  1  0  0  0
  9 10  2  0  0  0
 10 24  1  0  0  0
 24 25  1  0  0  0
 25 26  2  0  0  0
 25 28  1  0  0  0
 28 29  2  0  0  0
 29 30  1  0  0  0
 30 31  1  0  0  0
 31 32  1  0  0  0
 31 33  1  0  0  0
 16 11  1  0  0  0
 10  1  1  0  0  0
  8  3  1  0  0  0
 42 36  1  0  0  0
 51 45  1  0  0  0
 18 21  1  0  0  0
 34 35  1  0  0  0
 24 27  1  0  0  0
M  END
> <minimizedAffinity>
-7.40879

> <CNNscore>
0.2659157217

> <CNNaffinity>
7.3790969849

> <CNN_VS>
1.9622179270

> <CNNaffinity_variance>
0.1031080708

$$$$
[H]/C(C(=O)N([H])c1c(N2C([H])([H])C([H])([H])N(C([H])([H])[H])C([H])(C(=O)N([H])C([H])([H])C([H])([H])[H])C2([H])[H])c([H])c2nc([H])nc(N([H])c3c([H])c([H])c(OC([H])([H])c4c([H])c([H])c([H])c(F)c4[H])c(Cl)c3[H])c2c1[H])=C(/[H])C([H])([H])N(C([H])([H])[H])C([H])([H])[H]


 51 55  0  0  0  0  0  0  0  0999 V2000
   -0.3395  -52.0740  -18.9255 C   0  0  0  0  0  0  0  0  0  0  0  0
   -0.8195  -53.2162  -19.5067 C   0  0  0  0  0  0  0  0  0  0  0  0
   -0.7332  -53.4696  -20.8731 C   0  0  0  0  0  0  0  0  0  0  0  0
   -1.2384  -54.6114  -21.3591 N   0  0  0  0  0  0  0  0  0  0  0  0
   -1.1518  -54.8317  -22.6741 C   0  0  0  0  0  0  0  0  0  0  0  0
   -0.5800  -53.9415  -23.4772 N   0  0  0  0  0  0  0  0  0  0  0  0
   -0.0505  -52.7774  -23.0781 C   0  0  0  0  0  0  0  0  0  0  0  0
   -0.1406  -52.5426  -21.6986 C   0  0  0  0  0  0  0  0  0  0  0  0
    0.3598  -51.3718  -21.1482 C   0  0  0  0  0  0  0  0  0  0  0  0
    0.2686  -51.1260  -19.7764 C   0  0  0  0  0  0  0  0  0  0  0  0
    0.4055  -51.7865  -15.3469 C   0  0  0  0  0  0  0  0  0  0  0  0
    0.5363  -51.2016  -16.7207 C   0  0  0  0  0  0  0  0  0  0  0  0
   -0.5054  -51.8401  -17.5404 N   0  0  0  0  0  0  0  0  0  0  0  0
   -1.7002  -52.2076  -16.8193 C   0  0  0  0  0  0  0  0  0  0  0  0
   -1.8877  -51.3475  -15.5940 C   0  0  0  0  0  0  0  0  0  0  0  0
   -0.7631  -51.3218  -14.6910 N   0  0  0  0  0  0  0  0  0  0  0  0
   -0.6893  -50.0112  -14.1164 C   0  0  0  0  0  0  0  0  0  0  0  0
    2.7096  -50.8781  -14.9895 N   0  0  0  0  0  0  0  0  0  0  0  0
    1.6655  -51.7377  -14.5543 C   0  0  0  0  0  0  0  0  0  0  0  0
    1.8673  -52.4143  -13.5161 O   0  0  0  0  0  0  0  0  0  0  0  0
    2.6515  -50.2682  -15.8413 H   0  0  0  0  0  0  0  0  0  0  0  0
    3.8713  -49.6963  -13.2191 C   0  0  0  0  0  0  0  0  0  0  0  0
    3.9408  -50.8146  -14.2465 C   0  0  0  0  0  0  0  0  0  0  0  0
    0.8335  -49.9743  -19.2331 N   0  0  0  0  0  0  0  0  0  0  0  0
    2.0666  -49.4027  -19.5123 C   0  0  0  0  0  0  0  0  0  0  0  0
    2.8938  -49.8188  -20.3230 O   0  0  0  0  0  0  0  0  0  0  0  0
    0.2495  -49.4729  -18.4965 H   0  0  0  0  0  0  0  0  0  0  0  0
    2.4780  -48.1561  -18.7797 C   0  0  0  0  0  0  0  0  0  0  0  0
    2.8920  -48.1827  -17.5457 C   0  0  0  0  0  0  0  0  0  0  0  0
    3.3017  -46.9597  -16.8038 C   0  0  0  0  0  0  0  0  0  0  0  0
    2.9529  -47.1350  -15.4229 N   0  0  0  0  0  0  0  0  0  0  0  0
    3.2194  -45.9343  -14.6851 C   0  0  0  0  0  0  0  0  0  0  0  0
    1.5423  -47.4444  -15.3057 C   0  0  0  0  0  0  0  0  0  0  0  0
    0.5772  -51.8952  -23.9546 N   0  0  0  0  0  0  0  0  0  0  0  0
   -0.0438  -51.3460  -24.6188 H   0  0  0  0  0  0  0  0  0  0  0  0
    1.9556  -51.6617  -24.0485 C   0  0  0  0  0  0  0  0  0  0  0  0
    2.9334  -52.6384  -24.0995 C   0  0  0  0  0  0  0  0  0  0  0  0
    4.2721  -52.3334  -24.1858 C   0  0  0  0  0  0  0  0  0  0  0  0
    4.6597  -51.0017  -24.2248 C   0  0  0  0  0  0  0  0  0  0  0  0
    3.6991  -50.0233  -24.1739 C   0  0  0  0  0  0  0  0  0  0  0  0
    4.1556  -48.3161  -24.2238 Cl  0  0  0  0  0  0  0  0  0  0  0  0
    2.3785  -50.3540  -24.0876 C   0  0  0  0  0  0  0  0  0  0  0  0
    5.9993  -50.7147  -24.3119 O   0  0  0  0  0  0  0  0  0  0  0  0
    6.9929  -50.8482  -23.3523 C   0  0  0  0  0  0  0  0  0  0  0  0
    6.8899  -49.7997  -22.3053 C   0  0  0  0  0  0  0  0  0  0  0  0
    7.3859  -48.5414  -22.5682 C   0  0  0  0  0  0  0  0  0  0  0  0
    7.3191  -47.5469  -21.6352 C   0  0  0  0  0  0  0  0  0  0  0  0
    6.7341  -47.8237  -20.3943 C   0  0  0  0  0  0  0  0  0  0  0  0
    6.2437  -49.0559  -20.1242 C   0  0  0  0  0  0  0  0  0  0  0  0
    5.6595  -49.3642  -18.9166 F   0  0  0  0  0  0  0  0  0  0  0  0
    6.3251  -50.0545  -21.0950 C   0  0  0  0  0  0  0  0  0  0  0  0
 22 23  1  0  0  0
 23 18  1  0  0  0
 18 19  1  0  0  0
 19 20  2  0  0  0
 19 11  1  0  0  0
 11 12  1  0  0  0
 12 13  1  0  0  0
 13 14  1  0  0  0
 14 15  1  0  0  0
 15 16  1  0  0  0
 16 17  1  0  0  0
 13  1  1  0  0  0
  1  2  2  0  0  0
  2  3  1  0  0  0
  3  4  2  0  0  0
  4  5  1  0  0  0
  5  6  2  0  0  0
  6  7  1  0  0  0
  7 34  1  0  0  0
 34 36  1  0  0  0
 36 37  2  0  0  0
 37 38  1  0  0  0
 38 39  2  0  0  0
 39 43  1  0  0  0
 43 44  1  0  0  0
 44 45  1  0  0  0
 45 46  2  0  0  0
 46 47  1  0  0  0
 47 48  2  0  0  0
 48 49  1  0  0  0
 49 50  1  0  0  0
 49 51  2  0  0  0
 39 40  1  0  0  0
 40 41  1  0  0  0
 40 42  2  0  0  0
  7  8  2  0  0  0
  8  9  1  0  0  0
  9 10  2  0  0  0
 10 24  1  0  0  0
 24 25  1  0  0  0
 25 26  2  0  0  0
 25 28  1  0  0  0
 28 29  2  0  0  0
 29 30  1  0  0  0
 30 31  1  0  0  0
 31 32  1  0  0  0
 31 33  1  0  0  0
 16 11  1  0  0  0
 10  1  1  0  0  0
  8  3  1  0  0  0
 42 36  1  0  0  0
 51 45  1  0  0  0
 18 21  1  0  0  0
 34 35  1  0  0  0
 24 27  1  0  0  0
M  END
> <minimizedAffinity>
-7.59867

> <CNNscore>
0.2581600845

> <CNNaffinity>
7.4249243736

> <CNN_VS>
1.9168190956

> <CNNaffinity_variance>
0.4897302687

$$$$
[H]/C(C(=O)N([H])c1c(N2C([H])([H])C([H])([H])N(C([H])([H])[H])C([H])(C(=O)N([H])C([H])([H])C([H])([H])[H])C2([H])[H])c([H])c2nc([H])nc(N([H])c3c([H])c([H])c(OC([H])([H])c4c([H])c([H])c([H])c(F)c4[H])c(Cl)c3[H])c2c1[H])=C(/[H])C([H])([H])N(C([H])([H])[H])C([H])([H])[H]


 51 55  0  0  0  0  0  0  0  0999 V2000
    0.6125  -49.4904  -15.6587 C   0  0  0  0  0  0  0  0  0  0  0  0
   -0.6497  -49.9289  -15.3632 C   0  0  0  0  0  0  0  0  0  0  0  0
   -1.2620  -50.9897  -16.0256 C   0  0  0  0  0  0  0  0  0  0  0  0
   -2.5055  -51.3470  -15.6775 N   0  0  0  0  0  0  0  0  0  0  0  0
   -3.0775  -52.3627  -16.3307 C   0  0  0  0  0  0  0  0  0  0  0  0
   -2.4296  -53.0001  -17.2993 N   0  0  0  0  0  0  0  0  0  0  0  0
   -1.1881  -52.7104  -17.7111 C   0  0  0  0  0  0  0  0  0  0  0  0
   -0.5851  -51.6443  -17.0283 C   0  0  0  0  0  0  0  0  0  0  0  0
    0.6973  -51.2310  -17.3575 C   0  0  0  0  0  0  0  0  0  0  0  0
    1.3035  -50.1658  -16.6877 C   0  0  0  0  0  0  0  0  0  0  0  0
    2.4317  -46.3619  -15.0701 C   0  0  0  0  0  0  0  0  0  0  0  0
    1.2046  -47.0336  -15.6081 C   0  0  0  0  0  0  0  0  0  0  0  0
    1.1651  -48.3704  -14.9947 N   0  0  0  0  0  0  0  0  0  0  0  0
    1.7349  -48.4443  -13.6709 C   0  0  0  0  0  0  0  0  0  0  0  0
    1.6794  -47.1071  -12.9745 C   0  0  0  0  0  0  0  0  0  0  0  0
    2.2806  -46.0166  -13.7027 N   0  0  0  0  0  0  0  0  0  0  0  0
    1.5224  -44.8322  -13.4277 C   0  0  0  0  0  0  0  0  0  0  0  0
    2.6956  -45.3710  -17.3526 N   0  0  0  0  0  0  0  0  0  0  0  0
    2.9679  -45.2951  -15.9603 C   0  0  0  0  0  0  0  0  0  0  0  0
    3.6525  -44.3232  -15.5562 O   0  0  0  0  0  0  0  0  0  0  0  0
    2.1355  -46.1367  -17.8006 H   0  0  0  0  0  0  0  0  0  0  0  0
    4.3528  -44.9166  -19.0637 C   0  0  0  0  0  0  0  0  0  0  0  0
    3.2057  -44.3570  -18.2379 C   0  0  0  0  0  0  0  0  0  0  0  0
    2.6154  -49.8063  -16.9883 N   0  0  0  0  0  0  0  0  0  0  0  0
    3.0687  -48.9267  -17.9610 C   0  0  0  0  0  0  0  0  0  0  0  0
    2.3683  -48.2815  -18.7407 O   0  0  0  0  0  0  0  0  0  0  0  0
    3.3720  -50.2780  -16.4053 H   0  0  0  0  0  0  0  0  0  0  0  0
    4.5476  -48.7080  -18.1179 C   0  0  0  0  0  0  0  0  0  0  0  0
    5.1163  -48.6311  -19.2865 C   0  0  0  0  0  0  0  0  0  0  0  0
    6.5783  -48.4167  -19.4617 C   0  0  0  0  0  0  0  0  0  0  0  0
    6.8870  -48.5501  -20.8568 N   0  0  0  0  0  0  0  0  0  0  0  0
    7.1357  -49.9245  -21.1830 C   0  0  0  0  0  0  0  0  0  0  0  0
    5.7731  -48.0811  -21.6557 C   0  0  0  0  0  0  0  0  0  0  0  0
   -0.5346  -53.4371  -18.7037 N   0  0  0  0  0  0  0  0  0  0  0  0
   -0.0216  -54.3175  -18.4033 H   0  0  0  0  0  0  0  0  0  0  0  0
   -0.4850  -53.1176  -20.0670 C   0  0  0  0  0  0  0  0  0  0  0  0
   -0.1451  -51.8833  -20.5902 C   0  0  0  0  0  0  0  0  0  0  0  0
   -0.1234  -51.6404  -21.9442 C   0  0  0  0  0  0  0  0  0  0  0  0
   -0.4516  -52.6660  -22.8191 C   0  0  0  0  0  0  0  0  0  0  0  0
   -0.7916  -53.8950  -22.3124 C   0  0  0  0  0  0  0  0  0  0  0  0
   -1.2132  -55.2258  -23.3970 Cl  0  0  0  0  0  0  0  0  0  0  0  0
   -0.8057  -54.1081  -20.9651 C   0  0  0  0  0  0  0  0  0  0  0  0
   -0.4242  -52.4072  -24.1669 O   0  0  0  0  0  0  0  0  0  0  0  0
    0.5268  -52.7627  -25.1130 C   0  0  0  0  0  0  0  0  0  0  0  0
   -0.0351  -52.7509  -26.4879 C   0  0  0  0  0  0  0  0  0  0  0  0
    0.8125  -52.9373  -27.5581 C   0  0  0  0  0  0  0  0  0  0  0  0
    0.3434  -52.9290  -28.8402 C   0  0  0  0  0  0  0  0  0  0  0  0
   -1.0243  -52.7266  -29.0573 C   0  0  0  0  0  0  0  0  0  0  0  0
   -1.8667  -52.5419  -28.0142 C   0  0  0  0  0  0  0  0  0  0  0  0
   -3.2173  -52.3425  -28.1888 F   0  0  0  0  0  0  0  0  0  0  0  0
   -1.3613  -52.5544  -26.7139 C   0  0  0  0  0  0  0  0  0  0  0  0
 22 23  1  0  0  0
 23 18  1  0  0  0
 18 19  1  0  0  0
 19 20  2  0  0  0
 19 11  1  0  0  0
 11 12  1  0  0  0
 12 13  1  0  0  0
 13 14  1  0  0  0
 14 15  1  0  0  0
 15 16  1  0  0  0
 16 17  1  0  0  0
 13  1  1  0  0  0
  1  2  2  0  0  0
  2  3  1  0  0  0
  3  4  2  0  0  0
  4  5  1  0  0  0
  5  6  2  0  0  0
  6  7  1  0  0  0
  7 34  1  0  0  0
 34 36  1  0  0  0
 36 37  2  0  0  0
 37 38  1  0  0  0
 38 39  2  0  0  0
 39 43  1  0  0  0
 43 44  1  0  0  0
 44 45  1  0  0  0
 45 46  2  0  0  0
 46 47  1  0  0  0
 47 48  2  0  0  0
 48 49  1  0  0  0
 49 50  1  0  0  0
 49 51  2  0  0  0
 39 40  1  0  0  0
 40 41  1  0  0  0
 40 42  2  0  0  0
  7  8  2  0  0  0
  8  9  1  0  0  0
  9 10  2  0  0  0
 10 24  1  0  0  0
 24 25  1  0  0  0
 25 26  2  0  0  0
 25 28  1  0  0  0
 28 29  2  0  0  0
 29 30  1  0  0  0
 30 31  1  0  0  0
 31 32  1  0  0  0
 31 33  1  0  0  0
 16 11  1  0  0  0
 10  1  1  0  0  0
  8  3  1  0  0  0
 42 36  1  0  0  0
 51 45  1  0  0  0
 18 21  1  0  0  0
 34 35  1  0  0  0
 24 27  1  0  0  0
M  END
> <minimizedAffinity>
-8.32184

> <CNNscore>
0.2581391931

> <CNNaffinity>
7.4870071411

> <CNN_VS>
1.9326900244

> <CNNaffinity_variance>
0.1186725125

$$$$
[H]/C(C(=O)N([H])c1c(N2C([H])([H])C([H])([H])N(C([H])([H])[H])C([H])(C(=O)N([H])C([H])([H])C([H])([H])[H])C2([H])[H])c([H])c2nc([H])nc(N([H])c3c([H])c([H])c(OC([H])([H])c4c([H])c([H])c([H])c(F)c4[H])c(Cl)c3[H])c2c1[H])=C(/[H])C([H])([H])N(C([H])([H])[H])C([H])([H])[H]


 51 55  0  0  0  0  0  0  0  0999 V2000
    3.5574  -51.7042  -24.8326 C   0  0  0  0  0  0  0  0  0  0  0  0
    3.2015  -52.2018  -26.0567 C   0  0  0  0  0  0  0  0  0  0  0  0
    2.0351  -52.9310  -26.2725 C   0  0  0  0  0  0  0  0  0  0  0  0
    1.7691  -53.3890  -27.5032 N   0  0  0  0  0  0  0  0  0  0  0  0
    0.6483  -54.0928  -27.6872 C   0  0  0  0  0  0  0  0  0  0  0  0
   -0.1792  -54.3316  -26.6761 N   0  0  0  0  0  0  0  0  0  0  0  0
    0.0077  -53.9134  -25.4171 C   0  0  0  0  0  0  0  0  0  0  0  0
    1.1836  -53.1752  -25.2202 C   0  0  0  0  0  0  0  0  0  0  0  0
    1.5078  -52.6869  -23.9631 C   0  0  0  0  0  0  0  0  0  0  0  0
    2.6801  -51.9565  -23.7560 C   0  0  0  0  0  0  0  0  0  0  0  0
    6.3280  -49.3644  -25.3739 C   0  0  0  0  0  0  0  0  0  0  0  0
    4.9201  -49.5766  -24.9056 C   0  0  0  0  0  0  0  0  0  0  0  0
    4.7828  -51.0201  -24.6562 N   0  0  0  0  0  0  0  0  0  0  0  0
    5.9931  -51.6756  -24.2226 C   0  0  0  0  0  0  0  0  0  0  0  0
    6.9287  -50.7064  -23.5434 C   0  0  0  0  0  0  0  0  0  0  0  0
    7.2604  -49.5362  -24.3189 N   0  0  0  0  0  0  0  0  0  0  0  0
    7.4046  -48.4344  -23.4142 C   0  0  0  0  0  0  0  0  0  0  0  0
    7.6463  -48.0516  -27.0472 N   0  0  0  0  0  0  0  0  0  0  0  0
    6.5020  -48.1446  -26.2105 C   0  0  0  0  0  0  0  0  0  0  0  0
    5.6950  -47.1828  -26.2239 O   0  0  0  0  0  0  0  0  0  0  0  0
    8.3851  -48.7934  -27.1164 H   0  0  0  0  0  0  0  0  0  0  0  0
    8.2887  -47.2893  -29.2579 C   0  0  0  0  0  0  0  0  0  0  0  0
    7.8436  -46.8819  -27.8625 C   0  0  0  0  0  0  0  0  0  0  0  0
    2.9571  -51.4198  -22.5006 N   0  0  0  0  0  0  0  0  0  0  0  0
    2.3270  -50.3665  -21.8534 C   0  0  0  0  0  0  0  0  0  0  0  0
    1.3764  -49.7136  -22.2832 O   0  0  0  0  0  0  0  0  0  0  0  0
    3.7675  -51.8661  -21.9726 H   0  0  0  0  0  0  0  0  0  0  0  0
    2.8162  -49.9437  -20.4963 C   0  0  0  0  0  0  0  0  0  0  0  0
    3.9773  -49.3808  -20.3231 C   0  0  0  0  0  0  0  0  0  0  0  0
    4.4793  -48.9571  -18.9880 C   0  0  0  0  0  0  0  0  0  0  0  0
    5.5852  -48.0647  -19.1873 N   0  0  0  0  0  0  0  0  0  0  0  0
    5.4383  -47.3580  -20.4268 C   0  0  0  0  0  0  0  0  0  0  0  0
    5.6398  -47.0981  -18.1094 C   0  0  0  0  0  0  0  0  0  0  0  0
   -0.9122  -54.1535  -24.3989 N   0  0  0  0  0  0  0  0  0  0  0  0
   -1.7694  -54.7306  -24.6447 H   0  0  0  0  0  0  0  0  0  0  0  0
   -0.8184  -53.7037  -23.0752 C   0  0  0  0  0  0  0  0  0  0  0  0
   -1.3116  -52.5026  -22.5989 C   0  0  0  0  0  0  0  0  0  0  0  0
   -1.1771  -52.1237  -21.2832 C   0  0  0  0  0  0  0  0  0  0  0  0
   -0.5264  -52.9727  -20.3995 C   0  0  0  0  0  0  0  0  0  0  0  0
   -0.0317  -54.1668  -20.8601 C   0  0  0  0  0  0  0  0  0  0  0  0
    0.8009  -55.2746  -19.7626 Cl  0  0  0  0  0  0  0  0  0  0  0  0
   -0.1783  -54.5172  -22.1703 C   0  0  0  0  0  0  0  0  0  0  0  0
   -0.4016  -52.5798  -19.0902 O   0  0  0  0  0  0  0  0  0  0  0  0
    0.4930  -51.6847  -18.5206 C   0  0  0  0  0  0  0  0  0  0  0  0
   -0.1173  -50.9447  -17.3865 C   0  0  0  0  0  0  0  0  0  0  0  0
    0.3326  -49.6749  -17.0972 C   0  0  0  0  0  0  0  0  0  0  0  0
   -0.1937  -48.9582  -16.0613 C   0  0  0  0  0  0  0  0  0  0  0  0
   -1.2075  -49.5349  -15.2877 C   0  0  0  0  0  0  0  0  0  0  0  0
   -1.6575  -50.7815  -15.5619 C   0  0  0  0  0  0  0  0  0  0  0  0
   -2.6543  -51.3799  -14.8250 F   0  0  0  0  0  0  0  0  0  0  0  0
   -1.1021  -51.4927  -16.6258 C   0  0  0  0  0  0  0  0  0  0  0  0
 22 23  1  0  0  0
 23 18  1  0  0  0
 18 19  1  0  0  0
 19 20  2  0  0  0
 19 11  1  0  0  0
 11 12  1  0  0  0
 12 13  1  0  0  0
 13 14  1  0  0  0
 14 15  1  0  0  0
 15 16  1  0  0  0
 16 17  1  0  0  0
 13  1  1  0  0  0
  1  2  2  0  0  0
  2  3  1  0  0  0
  3  4  2  0  0  0
  4  5  1  0  0  0
  5  6  2  0  0  0
  6  7  1  0  0  0
  7 34  1  0  0  0
 34 36  1  0  0  0
 36 37  2  0  0  0
 37 38  1  0  0  0
 38 39  2  0  0  0
 39 43  1  0  0  0
 43 44  1  0  0  0
 44 45  1  0  0  0
 45 46  2  0  0  0
 46 47  1  0  0  0
 47 48  2  0  0  0
 48 49  1  0  0  0
 49 50  1  0  0  0
 49 51  2  0  0  0
 39 40  1  0  0  0
 40 41  1  0  0  0
 40 42  2  0  0  0
  7  8  2  0  0  0
  8  9  1  0  0  0
  9 10  2  0  0  0
 10 24  1  0  0  0
 24 25  1  0  0  0
 25 26  2  0  0  0
 25 28  1  0  0  0
 28 29  2  0  0  0
 29 30  1  0  0  0
 30 31  1  0  0  0
 31 32  1  0  0  0
 31 33  1  0  0  0
 16 11  1  0  0  0
 10  1  1  0  0  0
  8  3  1  0  0  0
 42 36  1  0  0  0
 51 45  1  0  0  0
 18 21  1  0  0  0
 34 35  1  0  0  0
 24 27  1  0  0  0
M  END
> <minimizedAffinity>
-7.38048

> <CNNscore>
0.2563702762

> <CNNaffinity>
7.4786286354

> <CNN_VS>
1.9172980785

> <CNNaffinity_variance>
0.4170857370

$$$$
[H]/C(C(=O)N([H])c1c(N2C([H])([H])C([H])([H])N(C([H])([H])[H])C([H])(C(=O)N([H])C([H])([H])C([H])([H])[H])C2([H])[H])c([H])c2nc([H])nc(N([H])c3c([H])c([H])c(OC([H])([H])c4c([H])c([H])c([H])c(F)c4[H])c(Cl)c3[H])c2c1[H])=C(/[H])C([H])([H])N(C([H])([H])[H])C([H])([H])[H]


 51 55  0  0  0  0  0  0  0  0999 V2000
   -0.1170  -51.5906  -17.3818 C   0  0  0  0  0  0  0  0  0  0  0  0
   -0.9468  -52.3691  -18.1420 C   0  0  0  0  0  0  0  0  0  0  0  0
   -0.6240  -52.7971  -19.4271 C   0  0  0  0  0  0  0  0  0  0  0  0
   -1.5009  -53.5502  -20.1046 N   0  0  0  0  0  0  0  0  0  0  0  0
   -1.1747  -53.9440  -21.3390 C   0  0  0  0  0  0  0  0  0  0  0  0
   -0.0118  -53.5972  -21.8791 N   0  0  0  0  0  0  0  0  0  0  0  0
    0.9212  -52.8489  -21.2755 C   0  0  0  0  0  0  0  0  0  0  0  0
    0.5817  -52.4330  -19.9801 C   0  0  0  0  0  0  0  0  0  0  0  0
    1.4519  -51.6450  -19.2415 C   0  0  0  0  0  0  0  0  0  0  0  0
    1.1195  -51.2202  -17.9532 C   0  0  0  0  0  0  0  0  0  0  0  0
   -0.7332  -49.3658  -14.5332 C   0  0  0  0  0  0  0  0  0  0  0  0
   -1.1461  -49.8196  -15.9007 C   0  0  0  0  0  0  0  0  0  0  0  0
   -0.5187  -51.1348  -16.1045 N   0  0  0  0  0  0  0  0  0  0  0  0
   -0.3460  -51.9140  -14.9022 C   0  0  0  0  0  0  0  0  0  0  0  0
   -1.3514  -51.5245  -13.8470 C   0  0  0  0  0  0  0  0  0  0  0  0
   -1.3742  -50.1203  -13.5174 N   0  0  0  0  0  0  0  0  0  0  0  0
   -2.7285  -49.7598  -13.2185 C   0  0  0  0  0  0  0  0  0  0  0  0
    0.0469  -47.3083  -13.3418 N   0  0  0  0  0  0  0  0  0  0  0  0
   -0.7540  -47.8864  -14.3629 C   0  0  0  0  0  0  0  0  0  0  0  0
   -1.4409  -47.1089  -15.0701 O   0  0  0  0  0  0  0  0  0  0  0  0
    0.6592  -47.8601  -12.6926 H   0  0  0  0  0  0  0  0  0  0  0  0
    1.1538  -45.2436  -13.9680 C   0  0  0  0  0  0  0  0  0  0  0  0
    0.0425  -45.8817  -13.1503 C   0  0  0  0  0  0  0  0  0  0  0  0
    2.0326  -50.4831  -17.2024 N   0  0  0  0  0  0  0  0  0  0  0  0
    2.5018  -49.1977  -17.4324 C   0  0  0  0  0  0  0  0  0  0  0  0
    2.1719  -48.4586  -18.3595 O   0  0  0  0  0  0  0  0  0  0  0  0
    2.4350  -50.9741  -16.3469 H   0  0  0  0  0  0  0  0  0  0  0  0
    3.5117  -48.6075  -16.4882 C   0  0  0  0  0  0  0  0  0  0  0  0
    3.6317  -47.3224  -16.3170 C   0  0  0  0  0  0  0  0  0  0  0  0
    4.6260  -46.7198  -15.3885 C   0  0  0  0  0  0  0  0  0  0  0  0
    5.1061  -45.5013  -15.9750 N   0  0  0  0  0  0  0  0  0  0  0  0
    4.0109  -44.6203  -16.2607 C   0  0  0  0  0  0  0  0  0  0  0  0
    6.0074  -44.8338  -15.0579 C   0  0  0  0  0  0  0  0  0  0  0  0
    2.1451  -52.5474  -21.8686 N   0  0  0  0  0  0  0  0  0  0  0  0
    3.0088  -53.0172  -21.4665 H   0  0  0  0  0  0  0  0  0  0  0  0
    2.3502  -51.6782  -22.9483 C   0  0  0  0  0  0  0  0  0  0  0  0
    3.1161  -50.5270  -22.9175 C   0  0  0  0  0  0  0  0  0  0  0  0
    3.2681  -49.7165  -24.0187 C   0  0  0  0  0  0  0  0  0  0  0  0
    2.6346  -50.0622  -25.2037 C   0  0  0  0  0  0  0  0  0  0  0  0
    1.8710  -51.2015  -25.2468 C   0  0  0  0  0  0  0  0  0  0  0  0
    1.0511  -51.6745  -26.7398 Cl  0  0  0  0  0  0  0  0  0  0  0  0
    1.7367  -51.9867  -24.1394 C   0  0  0  0  0  0  0  0  0  0  0  0
    2.7973  -49.2432  -26.2932 O   0  0  0  0  0  0  0  0  0  0  0  0
    3.1144  -47.8930  -26.3406 C   0  0  0  0  0  0  0  0  0  0  0  0
    3.4590  -47.4576  -27.7183 C   0  0  0  0  0  0  0  0  0  0  0  0
    4.4719  -48.1059  -28.3906 C   0  0  0  0  0  0  0  0  0  0  0  0
    4.8281  -47.7378  -29.6561 C   0  0  0  0  0  0  0  0  0  0  0  0
    4.1443  -46.6819  -30.2696 C   0  0  0  0  0  0  0  0  0  0  0  0
    3.1478  -46.0372  -29.6192 C   0  0  0  0  0  0  0  0  0  0  0  0
    2.4517  -44.9966  -30.1913 F   0  0  0  0  0  0  0  0  0  0  0  0
    2.8040  -46.4329  -28.3264 C   0  0  0  0  0  0  0  0  0  0  0  0
 22 23  1  0  0  0
 23 18  1  0  0  0
 18 19  1  0  0  0
 19 20  2  0  0  0
 19 11  1  0  0  0
 11 12  1  0  0  0
 12 13  1  0  0  0
 13 14  1  0  0  0
 14 15  1  0  0  0
 15 16  1  0  0  0
 16 17  1  0  0  0
 13  1  1  0  0  0
  1  2  2  0  0  0
  2  3  1  0  0  0
  3  4  2  0  0  0
  4  5  1  0  0  0
  5  6  2  0  0  0
  6  7  1  0  0  0
  7 34  1  0  0  0
 34 36  1  0  0  0
 36 37  2  0  0  0
 37 38  1  0  0  0
 38 39  2  0  0  0
 39 43  1  0  0  0
 43 44  1  0  0  0
 44 45  1  0  0  0
 45 46  2  0  0  0
 46 47  1  0  0  0
 47 48  2  0  0  0
 48 49  1  0  0  0
 49 50  1  0  0  0
 49 51  2  0  0  0
 39 40  1  0  0  0
 40 41  1  0  0  0
 40 42  2  0  0  0
  7  8  2  0  0  0
  8  9  1  0  0  0
  9 10  2  0  0  0
 10 24  1  0  0  0
 24 25  1  0  0  0
 25 26  2  0  0  0
 25 28  1  0  0  0
 28 29  2  0  0  0
 29 30  1  0  0  0
 30 31  1  0  0  0
 31 32  1  0  0  0
 31 33  1  0  0  0
 16 11  1  0  0  0
 10  1  1  0  0  0
  8  3  1  0  0  0
 42 36  1  0  0  0
 51 45  1  0  0  0
 18 21  1  0  0  0
 34 35  1  0  0  0
 24 27  1  0  0  0
M  END
> <minimizedAffinity>
-6.20800

> <CNNscore>
0.2259030342

> <CNNaffinity>
6.9699506760

> <CNN_VS>
1.5745329857

> <CNNaffinity_variance>
0.1963240951

$$$$
[H]c1nc(N2C([H])([H])C([H])([H])C([H])([H])C([H])(N([H])C([H])([H])[H])C2([H])[H])c2c([H])c(C#Cc3c([H])c([H])c([H])c([H])c3[H])c([H])c([H])c2n1


 27 30  0  0  0  0  0  0  0  0999 V2000
   -0.1170  -53.5747  -23.7928 C   0  0  0  0  0  0  0  0  0  0  0  0
   -0.7795  -54.6641  -24.2883 N   0  0  0  0  0  0  0  0  0  0  0  0
   -1.5763  -55.4085  -23.5147 C   0  0  0  0  0  0  0  0  0  0  0  0
   -1.7333  -55.0851  -22.2232 N   0  0  0  0  0  0  0  0  0  0  0  0
   -1.0861  -54.0049  -21.6974 C   0  0  0  0  0  0  0  0  0  0  0  0
   -1.2343  -53.6713  -20.3694 C   0  0  0  0  0  0  0  0  0  0  0  0
   -0.5727  -52.5884  -19.8394 C   0  0  0  0  0  0  0  0  0  0  0  0
    0.2630  -51.7845  -20.5855 C   0  0  0  0  0  0  0  0  0  0  0  0
    0.3999  -52.1409  -21.9352 C   0  0  0  0  0  0  0  0  0  0  0  0
   -0.2583  -53.2214  -22.4746 C   0  0  0  0  0  0  0  0  0  0  0  0
    2.4458  -52.9443  -26.2759 C   0  0  0  0  0  0  0  0  0  0  0  0
    2.3569  -51.4734  -26.5937 C   0  0  0  0  0  0  0  0  0  0  0  0
    1.3376  -50.7456  -25.7355 C   0  0  0  0  0  0  0  0  0  0  0  0
    0.1621  -51.6500  -25.3661 C   0  0  0  0  0  0  0  0  0  0  0  0
    0.6889  -52.7807  -24.6428 N   0  0  0  0  0  0  0  0  0  0  0  0
    2.0909  -53.1052  -24.8010 C   0  0  0  0  0  0  0  0  0  0  0  0
    1.5208  -53.3338  -28.4312 C   0  0  0  0  0  0  0  0  0  0  0  0
    1.5621  -53.7571  -27.0535 N   0  0  0  0  0  0  0  0  0  0  0  0
    1.8994  -54.7378  -27.0167 H   0  0  0  0  0  0  0  0  0  0  0  0
    0.9485  -50.6562  -20.0148 C   0  0  0  0  0  0  0  0  0  0  0  0
    1.5443  -49.7220  -19.5364 C   0  0  0  0  0  0  0  0  0  0  0  0
    2.2773  -48.6212  -18.9752 C   0  0  0  0  0  0  0  0  0  0  0  0
    2.4972  -48.5283  -17.6094 C   0  0  0  0  0  0  0  0  0  0  0  0
    3.1962  -47.4744  -17.0557 C   0  0  0  0  0  0  0  0  0  0  0  0
    3.7119  -46.4585  -17.8375 C   0  0  0  0  0  0  0  0  0  0  0  0
    3.4970  -46.5442  -19.1973 C   0  0  0  0  0  0  0  0  0  0  0  0
    2.7986  -47.5978  -19.7468 C   0  0  0  0  0  0  0  0  0  0  0  0
 17 18  1  0  0  0
 18 11  1  0  0  0
 11 12  1  0  0  0
 12 13  1  0  0  0
 13 14  1  0  0  0
 14 15  1  0  0  0
 15 16  1  0  0  0
 15  1  1  0  0  0
  1  2  2  0  0  0
  2  3  1  0  0  0
  3  4  2  0  0  0
  4  5  1  0  0  0
  5  6  2  0  0  0
  6  7  1  0  0  0
  7  8  2  0  0  0
  8  9  1  0  0  0
  9 10  2  0  0  0
  8 20  1  0  0  0
 20 21  3  0  0  0
 21 22  1  0  0  0
 22 23  2  0  0  0
 23 24  1  0  0  0
 24 25  2  0  0  0
 25 26  1  0  0  0
 26 27  2  0  0  0
 16 11  1  0  0  0
 10  1  1  0  0  0
 27 22  1  0  0  0
 10  5  1  0  0  0
 18 19  1  0  0  0
M  END
> <minimizedAffinity>
-7.69790

> <CNNscore>
0.7650671005

> <CNNaffinity>
6.8728713989

> <CNN_VS>
5.2582077980

> <CNNaffinity_variance>
0.3082244992

$$$$
[H]c1nc(N2C([H])([H])C([H])([H])C([H])([H])C([H])(N([H])C([H])([H])[H])C2([H])[H])c2c([H])c(C#Cc3c([H])c([H])c([H])c([H])c3[H])c([H])c([H])c2n1


 27 30  0  0  0  0  0  0  0  0999 V2000
   -0.5238  -54.0836  -24.3483 C   0  0  0  0  0  0  0  0  0  0  0  0
   -1.3274  -55.1817  -24.2088 N   0  0  0  0  0  0  0  0  0  0  0  0
   -1.8568  -55.5144  -23.0270 C   0  0  0  0  0  0  0  0  0  0  0  0
   -1.5974  -54.7586  -21.9506 N   0  0  0  0  0  0  0  0  0  0  0  0
   -0.7990  -53.6569  -22.0554 C   0  0  0  0  0  0  0  0  0  0  0  0
   -0.5198  -52.8805  -20.9526 C   0  0  0  0  0  0  0  0  0  0  0  0
    0.2936  -51.7768  -21.0589 C   0  0  0  0  0  0  0  0  0  0  0  0
    0.8696  -51.3843  -22.2487 C   0  0  0  0  0  0  0  0  0  0  0  0
    0.5725  -52.1878  -23.3593 C   0  0  0  0  0  0  0  0  0  0  0  0
   -0.2406  -53.2929  -23.2633 C   0  0  0  0  0  0  0  0  0  0  0  0
    1.7130  -52.4164  -26.6611 C   0  0  0  0  0  0  0  0  0  0  0  0
    1.3714  -52.9584  -28.0257 C   0  0  0  0  0  0  0  0  0  0  0  0
    0.1867  -53.9077  -28.0032 C   0  0  0  0  0  0  0  0  0  0  0  0
    0.1132  -54.6877  -26.6908 C   0  0  0  0  0  0  0  0  0  0  0  0
   -0.0087  -53.7314  -25.6184 N   0  0  0  0  0  0  0  0  0  0  0  0
    0.4147  -52.3685  -25.8613 C   0  0  0  0  0  0  0  0  0  0  0  0
    3.6966  -52.3985  -25.3504 C   0  0  0  0  0  0  0  0  0  0  0  0
    2.6648  -53.2102  -25.9467 N   0  0  0  0  0  0  0  0  0  0  0  0
    2.1670  -53.7218  -25.1935 H   0  0  0  0  0  0  0  0  0  0  0  0
    1.7193  -50.2276  -22.3418 C   0  0  0  0  0  0  0  0  0  0  0  0
    2.4353  -49.2613  -22.4434 C   0  0  0  0  0  0  0  0  0  0  0  0
    3.2842  -48.1119  -22.5917 C   0  0  0  0  0  0  0  0  0  0  0  0
    2.7512  -46.8489  -22.7996 C   0  0  0  0  0  0  0  0  0  0  0  0
    3.5548  -45.7362  -22.9478 C   0  0  0  0  0  0  0  0  0  0  0  0
    4.9325  -45.8270  -22.8960 C   0  0  0  0  0  0  0  0  0  0  0  0
    5.4700  -47.0804  -22.6894 C   0  0  0  0  0  0  0  0  0  0  0  0
    4.6649  -48.1893  -22.5419 C   0  0  0  0  0  0  0  0  0  0  0  0
 17 18  1  0  0  0
 18 11  1  0  0  0
 11 12  1  0  0  0
 12 13  1  0  0  0
 13 14  1  0  0  0
 14 15  1  0  0  0
 15 16  1  0  0  0
 15  1  1  0  0  0
  1  2  2  0  0  0
  2  3  1  0  0  0
  3  4  2  0  0  0
  4  5  1  0  0  0
  5  6  2  0  0  0
  6  7  1  0  0  0
  7  8  2  0  0  0
  8  9  1  0  0  0
  9 10  2  0  0  0
  8 20  1  0  0  0
 20 21  3  0  0  0
 21 22  1  0  0  0
 22 23  2  0  0  0
 23 24  1  0  0  0
 24 25  2  0  0  0
 25 26  1  0  0  0
 26 27  2  0  0  0
 16 11  1  0  0  0
 10  1  1  0  0  0
 27 22  1  0  0  0
 10  5  1  0  0  0
 18 19  1  0  0  0
M  END
> <minimizedAffinity>
-7.92996

> <CNNscore>
0.7085348964

> <CNNaffinity>
6.8412904739

> <CNN_VS>
4.8472929001

> <CNNaffinity_variance>
0.2512598038

$$$$
[H]c1nc(N2C([H])([H])C([H])([H])C([H])([H])C([H])(N([H])C([H])([H])[H])C2([H])[H])c2c([H])c(C#Cc3c([H])c([H])c([H])c([H])c3[H])c([H])c([H])c2n1


 27 30  0  0  0  0  0  0  0  0999 V2000
    0.1112  -53.6697  -23.9986 C   0  0  0  0  0  0  0  0  0  0  0  0
   -0.5483  -54.7473  -24.5230 N   0  0  0  0  0  0  0  0  0  0  0  0
   -1.4024  -55.4683  -23.7894 C   0  0  0  0  0  0  0  0  0  0  0  0
   -1.6212  -55.1326  -22.5101 N   0  0  0  0  0  0  0  0  0  0  0  0
   -0.9789  -54.0637  -21.9562 C   0  0  0  0  0  0  0  0  0  0  0  0
   -1.1907  -53.7178  -20.6400 C   0  0  0  0  0  0  0  0  0  0  0  0
   -0.5342  -52.6465  -20.0812 C   0  0  0  0  0  0  0  0  0  0  0  0
    0.3586  -51.8666  -20.7855 C   0  0  0  0  0  0  0  0  0  0  0  0
    0.5598  -52.2352  -22.1238 C   0  0  0  0  0  0  0  0  0  0  0  0
   -0.0928  -53.3043  -22.6920 C   0  0  0  0  0  0  0  0  0  0  0  0
    1.5086  -50.6253  -25.3808 C   0  0  0  0  0  0  0  0  0  0  0  0
    2.6986  -51.0548  -26.2006 C   0  0  0  0  0  0  0  0  0  0  0  0
    2.8584  -52.5634  -26.2619 C   0  0  0  0  0  0  0  0  0  0  0  0
    2.3716  -53.2352  -24.9783 C   0  0  0  0  0  0  0  0  0  0  0  0
    0.9796  -52.8997  -24.8083 N   0  0  0  0  0  0  0  0  0  0  0  0
    0.4652  -51.7325  -25.4932 C   0  0  0  0  0  0  0  0  0  0  0  0
    3.0301  -49.6691  -23.8241 C   0  0  0  0  0  0  0  0  0  0  0  0
    1.8071  -50.4125  -23.9981 N   0  0  0  0  0  0  0  0  0  0  0  0
    1.0278  -49.8755  -23.5723 H   0  0  0  0  0  0  0  0  0  0  0  0
    1.0379  -50.7502  -20.1850 C   0  0  0  0  0  0  0  0  0  0  0  0
    1.6005  -49.8207  -19.6593 C   0  0  0  0  0  0  0  0  0  0  0  0
    2.2685  -48.7275  -19.0094 C   0  0  0  0  0  0  0  0  0  0  0  0
    2.7856  -47.6677  -19.7387 C   0  0  0  0  0  0  0  0  0  0  0  0
    3.4333  -46.6125  -19.1281 C   0  0  0  0  0  0  0  0  0  0  0  0
    3.5981  -46.5609  -17.7572 C   0  0  0  0  0  0  0  0  0  0  0  0
    3.0863  -47.6118  -17.0250 C   0  0  0  0  0  0  0  0  0  0  0  0
    2.4402  -48.6638  -17.6378 C   0  0  0  0  0  0  0  0  0  0  0  0
 17 18  1  0  0  0
 18 11  1  0  0  0
 11 12  1  0  0  0
 12 13  1  0  0  0
 13 14  1  0  0  0
 14 15  1  0  0  0
 15 16  1  0  0  0
 15  1  1  0  0  0
  1  2  2  0  0  0
  2  3  1  0  0  0
  3  4  2  0  0  0
  4  5  1  0  0  0
  5  6  2  0  0  0
  6  7  1  0  0  0
  7  8  2  0  0  0
  8  9  1  0  0  0
  9 10  2  0  0  0
  8 20  1  0  0  0
 20 21  3  0  0  0
 21 22  1  0  0  0
 22 23  2  0  0  0
 23 24  1  0  0  0
 24 25  2  0  0  0
 25 26  1  0  0  0
 26 27  2  0  0  0
 16 11  1  0  0  0
 10  1  1  0  0  0
 27 22  1  0  0  0
 10  5  1  0  0  0
 18 19  1  0  0  0
M  END
> <minimizedAffinity>
-7.08176

> <CNNscore>
0.6559976339

> <CNNaffinity>
6.6805152893

> <CNN_VS>
4.3824024200

> <CNNaffinity_variance>
0.3870733678

$$$$
[H]c1nc(N2C([H])([H])C([H])([H])C([H])([H])C([H])(N([H])C([H])([H])[H])C2([H])[H])c2c([H])c(C#Cc3c([H])c([H])c([H])c([H])c3[H])c([H])c([H])c2n1


 27 30  0  0  0  0  0  0  0  0999 V2000
    0.1390  -53.0554  -23.4098 C   0  0  0  0  0  0  0  0  0  0  0  0
   -0.3357  -54.0501  -24.2201 N   0  0  0  0  0  0  0  0  0  0  0  0
   -1.1289  -55.0172  -23.7477 C   0  0  0  0  0  0  0  0  0  0  0  0
   -1.4700  -55.0175  -22.4513 N   0  0  0  0  0  0  0  0  0  0  0  0
   -1.0129  -54.0401  -21.6158 C   0  0  0  0  0  0  0  0  0  0  0  0
   -1.3508  -54.0384  -20.2806 C   0  0  0  0  0  0  0  0  0  0  0  0
   -0.8803  -53.0582  -19.4386 C   0  0  0  0  0  0  0  0  0  0  0  0
   -0.0585  -52.0367  -19.8660 C   0  0  0  0  0  0  0  0  0  0  0  0
    0.2732  -52.0563  -21.2286 C   0  0  0  0  0  0  0  0  0  0  0  0
   -0.1931  -53.0318  -22.0788 C   0  0  0  0  0  0  0  0  0  0  0  0
    2.6627  -50.4563  -23.3295 C   0  0  0  0  0  0  0  0  0  0  0  0
    2.8342  -50.0060  -24.7579 C   0  0  0  0  0  0  0  0  0  0  0  0
    1.8656  -50.6844  -25.7101 C   0  0  0  0  0  0  0  0  0  0  0  0
    1.5321  -52.1059  -25.2580 C   0  0  0  0  0  0  0  0  0  0  0  0
    0.9445  -52.0217  -23.9439 N   0  0  0  0  0  0  0  0  0  0  0  0
    1.1955  -50.8352  -23.1533 C   0  0  0  0  0  0  0  0  0  0  0  0
    4.7357  -51.5680  -23.6757 C   0  0  0  0  0  0  0  0  0  0  0  0
    3.4741  -51.5807  -22.9777 N   0  0  0  0  0  0  0  0  0  0  0  0
    3.6582  -51.5467  -21.9569 H   0  0  0  0  0  0  0  0  0  0  0  0
    0.4257  -51.0200  -18.9713 C   0  0  0  0  0  0  0  0  0  0  0  0
    0.8523  -50.1652  -18.2336 C   0  0  0  0  0  0  0  0  0  0  0  0
    1.3784  -49.1409  -17.3748 C   0  0  0  0  0  0  0  0  0  0  0  0
    0.7404  -48.7993  -16.1921 C   0  0  0  0  0  0  0  0  0  0  0  0
    1.2322  -47.8143  -15.3591 C   0  0  0  0  0  0  0  0  0  0  0  0
    2.3869  -47.1194  -15.6640 C   0  0  0  0  0  0  0  0  0  0  0  0
    3.0271  -47.4538  -16.8391 C   0  0  0  0  0  0  0  0  0  0  0  0
    2.5333  -48.4377  -17.6686 C   0  0  0  0  0  0  0  0  0  0  0  0
 17 18  1  0  0  0
 18 11  1  0  0  0
 11 12  1  0  0  0
 12 13  1  0  0  0
 13 14  1  0  0  0
 14 15  1  0  0  0
 15 16  1  0  0  0
 15  1  1  0  0  0
  1  2  2  0  0  0
  2  3  1  0  0  0
  3  4  2  0  0  0
  4  5  1  0  0  0
  5  6  2  0  0  0
  6  7  1  0  0  0
  7  8  2  0  0  0
  8  9  1  0  0  0
  9 10  2  0  0  0
  8 20  1  0  0  0
 20 21  3  0  0  0
 21 22  1  0  0  0
 22 23  2  0  0  0
 23 24  1  0  0  0
 24 25  2  0  0  0
 25 26  1  0  0  0
 26 27  2  0  0  0
 16 11  1  0  0  0
 10  1  1  0  0  0
 27 22  1  0  0  0
 10  5  1  0  0  0
 18 19  1  0  0  0
M  END
> <minimizedAffinity>
-7.18803

> <CNNscore>
0.5831985474

> <CNNaffinity>
6.6165800095

> <CNN_VS>
3.8587799072

> <CNNaffinity_variance>
0.5455675125

$$$$
[H]c1nc(N2C([H])([H])C([H])([H])C([H])([H])C([H])(N([H])C([H])([H])[H])C2([H])[H])c2c([H])c(C#Cc3c([H])c([H])c([H])c([H])c3[H])c([H])c([H])c2n1


 27 30  0  0  0  0  0  0  0  0999 V2000
    0.7809  -50.8234  -19.6510 C   0  0  0  0  0  0  0  0  0  0  0  0
    0.6897  -50.8194  -18.2861 N   0  0  0  0  0  0  0  0  0  0  0  0
   -0.0335  -51.7339  -17.6316 C   0  0  0  0  0  0  0  0  0  0  0  0
   -0.6865  -52.6784  -18.3234 N   0  0  0  0  0  0  0  0  0  0  0  0
   -0.6170  -52.7100  -19.6858 C   0  0  0  0  0  0  0  0  0  0  0  0
   -1.2926  -53.6712  -20.4047 C   0  0  0  0  0  0  0  0  0  0  0  0
   -1.2294  -53.6945  -21.7782 C   0  0  0  0  0  0  0  0  0  0  0  0
   -0.5025  -52.7783  -22.5087 C   0  0  0  0  0  0  0  0  0  0  0  0
    0.1782  -51.8086  -21.7581 C   0  0  0  0  0  0  0  0  0  0  0  0
    0.1220  -51.7776  -20.3842 C   0  0  0  0  0  0  0  0  0  0  0  0
    3.5797  -49.6735  -21.6449 C   0  0  0  0  0  0  0  0  0  0  0  0
    3.3287  -48.2089  -21.8991 C   0  0  0  0  0  0  0  0  0  0  0  0
    2.0937  -47.6899  -21.1845 C   0  0  0  0  0  0  0  0  0  0  0  0
    1.0189  -48.7693  -21.0589 C   0  0  0  0  0  0  0  0  0  0  0  0
    1.5853  -49.8680  -20.3164 N   0  0  0  0  0  0  0  0  0  0  0  0
    3.0269  -49.9876  -20.2582 C   0  0  0  0  0  0  0  0  0  0  0  0
    3.7642  -51.7002  -22.8741 C   0  0  0  0  0  0  0  0  0  0  0  0
    2.9550  -50.5395  -22.5967 N   0  0  0  0  0  0  0  0  0  0  0  0
    2.0452  -50.8532  -22.2083 H   0  0  0  0  0  0  0  0  0  0  0  0
   -0.4483  -52.8164  -23.9455 C   0  0  0  0  0  0  0  0  0  0  0  0
   -0.4251  -52.8393  -25.1520 C   0  0  0  0  0  0  0  0  0  0  0  0
   -0.4190  -52.8492  -26.5885 C   0  0  0  0  0  0  0  0  0  0  0  0
   -1.5614  -52.5442  -27.3125 C   0  0  0  0  0  0  0  0  0  0  0  0
   -1.5713  -52.5536  -28.6930 C   0  0  0  0  0  0  0  0  0  0  0  0
   -0.4406  -52.8681  -29.4221 C   0  0  0  0  0  0  0  0  0  0  0  0
    0.6999  -53.1727  -28.7086 C   0  0  0  0  0  0  0  0  0  0  0  0
    0.7063  -53.1624  -27.3303 C   0  0  0  0  0  0  0  0  0  0  0  0
 17 18  1  0  0  0
 18 11  1  0  0  0
 11 12  1  0  0  0
 12 13  1  0  0  0
 13 14  1  0  0  0
 14 15  1  0  0  0
 15 16  1  0  0  0
 15  1  1  0  0  0
  1  2  2  0  0  0
  2  3  1  0  0  0
  3  4  2  0  0  0
  4  5  1  0  0  0
  5  6  2  0  0  0
  6  7  1  0  0  0
  7  8  2  0  0  0
  8  9  1  0  0  0
  9 10  2  0  0  0
  8 20  1  0  0  0
 20 21  3  0  0  0
 21 22  1  0  0  0
 22 23  2  0  0  0
 23 24  1  0  0  0
 24 25  2  0  0  0
 25 26  1  0  0  0
 26 27  2  0  0  0
 16 11  1  0  0  0
 10  1  1  0  0  0
 27 22  1  0  0  0
 10  5  1  0  0  0
 18 19  1  0  0  0
M  END
> <minimizedAffinity>
-8.67192

> <CNNscore>
0.5140668750

> <CNNaffinity>
6.4846382141

> <CNN_VS>
3.3335378170

> <CNNaffinity_variance>
0.1913885921

$$$$
[H]c1nc(N2C([H])([H])C([H])([H])C([H])([H])C([H])(N([H])C([H])([H])[H])C2([H])[H])c2c([H])c(C#Cc3c([H])c([H])c([H])c([H])c3[H])c([H])c([H])c2n1


 27 30  0  0  0  0  0  0  0  0999 V2000
   -0.3545  -53.7847  -24.1475 C   0  0  0  0  0  0  0  0  0  0  0  0
   -1.1853  -54.8648  -24.0274 N   0  0  0  0  0  0  0  0  0  0  0  0
   -1.7678  -55.1720  -22.8638 C   0  0  0  0  0  0  0  0  0  0  0  0
   -1.5361  -54.4081  -21.7869 N   0  0  0  0  0  0  0  0  0  0  0  0
   -0.7119  -53.3239  -21.8727 C   0  0  0  0  0  0  0  0  0  0  0  0
   -0.4609  -52.5394  -20.7688 C   0  0  0  0  0  0  0  0  0  0  0  0
    0.3785  -51.4535  -20.8555 C   0  0  0  0  0  0  0  0  0  0  0  0
    1.0091  -51.0876  -22.0258 C   0  0  0  0  0  0  0  0  0  0  0  0
    0.7400  -51.8988  -23.1379 C   0  0  0  0  0  0  0  0  0  0  0  0
   -0.0986  -52.9863  -23.0615 C   0  0  0  0  0  0  0  0  0  0  0  0
   -0.0599  -53.8324  -27.7589 C   0  0  0  0  0  0  0  0  0  0  0  0
    1.0348  -52.8518  -28.0947 C   0  0  0  0  0  0  0  0  0  0  0  0
    1.6986  -52.2646  -26.8619 C   0  0  0  0  0  0  0  0  0  0  0  0
    0.7162  -52.1390  -25.6977 C   0  0  0  0  0  0  0  0  0  0  0  0
    0.2177  -53.4589  -25.4001 N   0  0  0  0  0  0  0  0  0  0  0  0
    0.3100  -54.4760  -26.4262 C   0  0  0  0  0  0  0  0  0  0  0  0
   -1.7431  -52.5552  -28.8490 C   0  0  0  0  0  0  0  0  0  0  0  0
   -1.3535  -53.2338  -27.6380 N   0  0  0  0  0  0  0  0  0  0  0  0
   -2.0445  -53.9819  -27.4386 H   0  0  0  0  0  0  0  0  0  0  0  0
    1.8852  -49.9492  -22.0985 C   0  0  0  0  0  0  0  0  0  0  0  0
    2.6392  -49.0085  -22.1555 C   0  0  0  0  0  0  0  0  0  0  0  0
    3.5577  -47.9062  -22.2270 C   0  0  0  0  0  0  0  0  0  0  0  0
    4.4033  -47.6078  -21.1695 C   0  0  0  0  0  0  0  0  0  0  0  0
    5.2881  -46.5494  -21.2226 C   0  0  0  0  0  0  0  0  0  0  0  0
    5.3742  -45.7340  -22.3347 C   0  0  0  0  0  0  0  0  0  0  0  0
    4.5359  -46.0247  -23.3908 C   0  0  0  0  0  0  0  0  0  0  0  0
    3.6537  -47.0822  -23.3345 C   0  0  0  0  0  0  0  0  0  0  0  0
 17 18  1  0  0  0
 18 11  1  0  0  0
 11 12  1  0  0  0
 12 13  1  0  0  0
 13 14  1  0  0  0
 14 15  1  0  0  0
 15 16  1  0  0  0
 15  1  1  0  0  0
  1  2  2  0  0  0
  2  3  1  0  0  0
  3  4  2  0  0  0
  4  5  1  0  0  0
  5  6  2  0  0  0
  6  7  1  0  0  0
  7  8  2  0  0  0
  8  9  1  0  0  0
  9 10  2  0  0  0
  8 20  1  0  0  0
 20 21  3  0  0  0
 21 22  1  0  0  0
 22 23  2  0  0  0
 23 24  1  0  0  0
 24 25  2  0  0  0
 25 26  1  0  0  0
 26 27  2  0  0  0
 16 11  1  0  0  0
 10  1  1  0  0  0
 27 22  1  0  0  0
 10  5  1  0  0  0
 18 19  1  0  0  0
M  END
> <minimizedAffinity>
-7.70193

> <CNNscore>
0.5065883398

> <CNNaffinity>
6.7910141945

> <CNN_VS>
3.4402484894

> <CNNaffinity_variance>
0.2674714625

$$$$
[H]c1nc(N2C([H])([H])C([H])([H])C([H])([H])C([H])(N([H])C([H])([H])[H])C2([H])[H])c2c([H])c(C#Cc3c([H])c([H])c([H])c([H])c3[H])c([H])c([H])c2n1


 27 30  0  0  0  0  0  0  0  0999 V2000
    0.8485  -50.9113  -19.6736 C   0  0  0  0  0  0  0  0  0  0  0  0
    0.7510  -50.8937  -18.3093 N   0  0  0  0  0  0  0  0  0  0  0  0
   -0.0170  -51.7691  -17.6525 C   0  0  0  0  0  0  0  0  0  0  0  0
   -0.7101  -52.6869  -18.3412 N   0  0  0  0  0  0  0  0  0  0  0  0
   -0.6356  -52.7311  -19.7030 C   0  0  0  0  0  0  0  0  0  0  0  0
   -1.3517  -53.6648  -20.4188 C   0  0  0  0  0  0  0  0  0  0  0  0
   -1.2831  -53.7004  -21.7919 C   0  0  0  0  0  0  0  0  0  0  0  0
   -0.5108  -52.8241  -22.5248 C   0  0  0  0  0  0  0  0  0  0  0  0
    0.2107  -51.8820  -21.7772 C   0  0  0  0  0  0  0  0  0  0  0  0
    0.1494  -51.8389  -20.4038 C   0  0  0  0  0  0  0  0  0  0  0  0
    2.1933  -47.6520  -20.5102 C   0  0  0  0  0  0  0  0  0  0  0  0
    3.3821  -47.9141  -21.3994 C   0  0  0  0  0  0  0  0  0  0  0  0
    3.5616  -49.3862  -21.7247 C   0  0  0  0  0  0  0  0  0  0  0  0
    3.0946  -50.2792  -20.5755 C   0  0  0  0  0  0  0  0  0  0  0  0
    1.6997  -49.9990  -20.3413 N   0  0  0  0  0  0  0  0  0  0  0  0
    1.1640  -48.7378  -20.8084 C   0  0  0  0  0  0  0  0  0  0  0  0
    3.6764  -46.9028  -18.8096 C   0  0  0  0  0  0  0  0  0  0  0  0
    2.5005  -47.6799  -19.1133 N   0  0  0  0  0  0  0  0  0  0  0  0
    1.6957  -47.2834  -18.5918 H   0  0  0  0  0  0  0  0  0  0  0  0
   -0.4516  -52.8746  -23.9610 C   0  0  0  0  0  0  0  0  0  0  0  0
   -0.4147  -52.8966  -25.1671 C   0  0  0  0  0  0  0  0  0  0  0  0
   -0.3780  -52.8961  -26.6032 C   0  0  0  0  0  0  0  0  0  0  0  0
   -1.4973  -52.5594  -27.3490 C   0  0  0  0  0  0  0  0  0  0  0  0
   -1.4778  -52.5585  -28.7294 C   0  0  0  0  0  0  0  0  0  0  0  0
   -0.3393  -52.8938  -29.4367 C   0  0  0  0  0  0  0  0  0  0  0  0
    0.7783  -53.2301  -28.7015 C   0  0  0  0  0  0  0  0  0  0  0  0
    0.7554  -53.2300  -27.3234 C   0  0  0  0  0  0  0  0  0  0  0  0
 17 18  1  0  0  0
 18 11  1  0  0  0
 11 12  1  0  0  0
 12 13  1  0  0  0
 13 14  1  0  0  0
 14 15  1  0  0  0
 15 16  1  0  0  0
 15  1  1  0  0  0
  1  2  2  0  0  0
  2  3  1  0  0  0
  3  4  2  0  0  0
  4  5  1  0  0  0
  5  6  2  0  0  0
  6  7  1  0  0  0
  7  8  2  0  0  0
  8  9  1  0  0  0
  9 10  2  0  0  0
  8 20  1  0  0  0
 20 21  3  0  0  0
 21 22  1  0  0  0
 22 23  2  0  0  0
 23 24  1  0  0  0
 24 25  2  0  0  0
 25 26  1  0  0  0
 26 27  2  0  0  0
 16 11  1  0  0  0
 10  1  1  0  0  0
 27 22  1  0  0  0
 10  5  1  0  0  0
 18 19  1  0  0  0
M  END
> <minimizedAffinity>
-8.53508

> <CNNscore>
0.4067063332

> <CNNaffinity>
6.3079476357

> <CNN_VS>
2.5654821396

> <CNNaffinity_variance>
0.2563759089

$$$$
[H]c1nc(N2C([H])([H])C([H])([H])C([H])([H])C([H])(N([H])C([H])([H])[H])C2([H])[H])c2c([H])c(C#Cc3c([H])c([H])c([H])c([H])c3[H])c([H])c([H])c2n1


 27 30  0  0  0  0  0  0  0  0999 V2000
    1.0363  -53.0126  -24.4496 C   0  0  0  0  0  0  0  0  0  0  0  0
    0.9514  -53.5793  -25.6917 N   0  0  0  0  0  0  0  0  0  0  0  0
    0.0883  -54.5668  -25.9516 C   0  0  0  0  0  0  0  0  0  0  0  0
   -0.7145  -55.0162  -24.9765 N   0  0  0  0  0  0  0  0  0  0  0  0
   -0.6545  -54.4730  -23.7262 C   0  0  0  0  0  0  0  0  0  0  0  0
   -1.4690  -54.9353  -22.7163 C   0  0  0  0  0  0  0  0  0  0  0  0
   -1.3992  -54.3933  -21.4543 C   0  0  0  0  0  0  0  0  0  0  0  0
   -0.5293  -53.3753  -21.1250 C   0  0  0  0  0  0  0  0  0  0  0  0
    0.2907  -52.9187  -22.1673 C   0  0  0  0  0  0  0  0  0  0  0  0
    0.2277  -53.4537  -23.4328 C   0  0  0  0  0  0  0  0  0  0  0  0
    4.0241  -51.0268  -24.9606 C   0  0  0  0  0  0  0  0  0  0  0  0
    3.8602  -49.8068  -24.0904 C   0  0  0  0  0  0  0  0  0  0  0  0
    2.6012  -49.8521  -23.2430 C   0  0  0  0  0  0  0  0  0  0  0  0
    1.4715  -50.6003  -23.9502 C   0  0  0  0  0  0  0  0  0  0  0  0
    1.9306  -51.9419  -24.2120 N   0  0  0  0  0  0  0  0  0  0  0  0
    3.3570  -52.1889  -24.2313 C   0  0  0  0  0  0  0  0  0  0  0  0
    3.5973  -49.5646  -26.7861 C   0  0  0  0  0  0  0  0  0  0  0  0
    3.4319  -50.8953  -26.2560 N   0  0  0  0  0  0  0  0  0  0  0  0
    3.8920  -51.5687  -26.8977 H   0  0  0  0  0  0  0  0  0  0  0  0
   -0.4683  -52.8208  -19.7993 C   0  0  0  0  0  0  0  0  0  0  0  0
   -0.4354  -52.3406  -18.6925 C   0  0  0  0  0  0  0  0  0  0  0  0
   -0.4212  -51.7586  -17.3792 C   0  0  0  0  0  0  0  0  0  0  0  0
   -1.4681  -51.9627  -16.4932 C   0  0  0  0  0  0  0  0  0  0  0  0
   -1.4699  -51.4065  -15.2297 C   0  0  0  0  0  0  0  0  0  0  0  0
   -0.4262  -50.6176  -14.7854 C   0  0  0  0  0  0  0  0  0  0  0  0
    0.6188  -50.4100  -15.6614 C   0  0  0  0  0  0  0  0  0  0  0  0
    0.6175  -50.9668  -16.9222 C   0  0  0  0  0  0  0  0  0  0  0  0
 17 18  1  0  0  0
 18 11  1  0  0  0
 11 12  1  0  0  0
 12 13  1  0  0  0
 13 14  1  0  0  0
 14 15  1  0  0  0
 15 16  1  0  0  0
 15  1  1  0  0  0
  1  2  2  0  0  0
  2  3  1  0  0  0
  3  4  2  0  0  0
  4  5  1  0  0  0
  5  6  2  0  0  0
  6  7  1  0  0  0
  7  8  2  0  0  0
  8  9  1  0  0  0
  9 10  2  0  0  0
  8 20  1  0  0  0
 20 21  3  0  0  0
 21 22  1  0  0  0
 22 23  2  0  0  0
 23 24  1  0  0  0
 24 25  2  0  0  0
 25 26  1  0  0  0
 26 27  2  0  0  0
 16 11  1  0  0  0
 10  1  1  0  0  0
 27 22  1  0  0  0
 10  5  1  0  0  0
 18 19  1  0  0  0
M  END
> <minimizedAffinity>
-7.92626

> <CNNscore>
0.4031922519

> <CNNaffinity>
6.4653396606

> <CNN_VS>
2.6067748070

> <CNNaffinity_variance>
0.1623915434

$$$$
[H]c1nc(N2C([H])([H])C([H])([H])C([H])([H])C([H])(N([H])C([H])([H])[H])C2([H])[H])c2c([H])c(C#Cc3c([H])c([H])c([H])c([H])c3[H])c([H])c([H])c2n1


 27 30  0  0  0  0  0  0  0  0999 V2000
   -0.4014  -53.0631  -22.6341 C   0  0  0  0  0  0  0  0  0  0  0  0
   -1.1944  -53.9267  -21.9293 N   0  0  0  0  0  0  0  0  0  0  0  0
   -1.3580  -53.8046  -20.6080 C   0  0  0  0  0  0  0  0  0  0  0  0
   -0.7331  -52.8155  -19.9535 N   0  0  0  0  0  0  0  0  0  0  0  0
    0.0657  -51.9376  -20.6267 C   0  0  0  0  0  0  0  0  0  0  0  0
    0.7190  -50.9245  -19.9604 C   0  0  0  0  0  0  0  0  0  0  0  0
    1.5318  -50.0474  -20.6396 C   0  0  0  0  0  0  0  0  0  0  0  0
    1.7412  -50.1231  -22.0004 C   0  0  0  0  0  0  0  0  0  0  0  0
    1.0668  -51.1611  -22.6600 C   0  0  0  0  0  0  0  0  0  0  0  0
    0.2511  -52.0426  -21.9897 C   0  0  0  0  0  0  0  0  0  0  0  0
    0.3060  -54.7784  -25.7468 C   0  0  0  0  0  0  0  0  0  0  0  0
   -0.0905  -53.8217  -26.8423 C   0  0  0  0  0  0  0  0  0  0  0  0
   -0.5415  -52.4725  -26.3118 C   0  0  0  0  0  0  0  0  0  0  0  0
   -1.2248  -52.6010  -24.9506 C   0  0  0  0  0  0  0  0  0  0  0  0
   -0.2770  -53.1908  -24.0380 N   0  0  0  0  0  0  0  0  0  0  0  0
    0.8343  -53.9376  -24.5886 C   0  0  0  0  0  0  0  0  0  0  0  0
   -0.6181  -56.9677  -25.6712 C   0  0  0  0  0  0  0  0  0  0  0  0
   -0.7716  -55.5907  -25.2722 N   0  0  0  0  0  0  0  0  0  0  0  0
   -0.7865  -55.5443  -24.2356 H   0  0  0  0  0  0  0  0  0  0  0  0
    2.5959  -49.1981  -22.6950 C   0  0  0  0  0  0  0  0  0  0  0  0
    3.3317  -48.4291  -23.2643 C   0  0  0  0  0  0  0  0  0  0  0  0
    4.2291  -47.5280  -23.9323 C   0  0  0  0  0  0  0  0  0  0  0  0
    5.4448  -47.1760  -23.3661 C   0  0  0  0  0  0  0  0  0  0  0  0
    6.3153  -46.3082  -23.9946 C   0  0  0  0  0  0  0  0  0  0  0  0
    6.0168  -45.7469  -25.2213 C   0  0  0  0  0  0  0  0  0  0  0  0
    4.8089  -46.0924  -25.7908 C   0  0  0  0  0  0  0  0  0  0  0  0
    3.9421  -46.9591  -25.1606 C   0  0  0  0  0  0  0  0  0  0  0  0
 17 18  1  0  0  0
 18 11  1  0  0  0
 11 12  1  0  0  0
 12 13  1  0  0  0
 13 14  1  0  0  0
 14 15  1  0  0  0
 15 16  1  0  0  0
 15  1  1  0  0  0
  1  2  2  0  0  0
  2  3  1  0  0  0
  3  4  2  0  0  0
  4  5  1  0  0  0
  5  6  2  0  0  0
  6  7  1  0  0  0
  7  8  2  0  0  0
  8  9  1  0  0  0
  9 10  2  0  0  0
  8 20  1  0  0  0
 20 21  3  0  0  0
 21 22  1  0  0  0
 22 23  2  0  0  0
 23 24  1  0  0  0
 24 25  2  0  0  0
 25 26  1  0  0  0
 26 27  2  0  0  0
 16 11  1  0  0  0
 10  1  1  0  0  0
 27 22  1  0  0  0
 10  5  1  0  0  0
 18 19  1  0  0  0
M  END
> <minimizedAffinity>
-5.59612

> <CNNscore>
0.3580254614

> <CNNaffinity>
6.4989471436

> <CNN_VS>
2.3267886639

> <CNNaffinity_variance>
0.5669537783

$$$$
