[H]c1nc(N([H])c2c([H])c(OC([H])([H])[H])c([H])c(C(F)(F)F)c2[H])c([H])c(C(=O)N2C([H])([H])C([H])([H])C([H])([H])[C@]([H])(N3C([H])([H])C([H])([H])C([H])([H])[C@@]3([H])C([H])([H])[H])C2([H])[H])c1[H]


 34 37  0  0  0  0  0  0  0  0999 V2000
   -0.6141  -53.2731  -19.6310 C   0  0  0  0  0  0  0  0  0  0  0  0
    0.3121  -52.5706  -20.3476 C   0  0  0  0  0  0  0  0  0  0  0  0
    0.2906  -52.5009  -21.7665 C   0  0  0  0  0  0  0  0  0  0  0  0
   -0.7346  -53.1837  -22.3278 C   0  0  0  0  0  0  0  0  0  0  0  0
   -1.6969  -53.9072  -21.6011 C   0  0  0  0  0  0  0  0  0  0  0  0
   -1.5886  -53.9206  -20.2604 N   0  0  0  0  0  0  0  0  0  0  0  0
    1.3226  -51.7373  -22.4015 C   0  0  0  0  0  0  0  0  0  0  0  0
    2.0522  -52.3884  -23.2701 O   0  0  0  0  0  0  0  0  0  0  0  0
    1.6875  -50.3812  -22.2761 N   0  0  0  0  0  0  0  0  0  0  0  0
    1.0292  -49.4290  -21.4459 C   0  0  0  0  0  0  0  0  0  0  0  0
    1.6993  -48.1230  -21.1978 C   0  0  0  0  0  0  0  0  0  0  0  0
    2.5951  -47.6832  -22.3514 C   0  0  0  0  0  0  0  0  0  0  0  0
    3.5606  -48.8592  -22.5015 C   0  0  0  0  0  0  0  0  0  0  0  0
    2.7729  -49.9290  -23.1555 C   0  0  0  0  0  0  0  0  0  0  0  0
    4.7450  -48.5103  -23.2567 N   0  0  0  0  0  0  0  0  0  0  0  0
    4.8248  -49.0102  -24.5817 C   0  0  0  0  0  0  0  0  0  0  0  0
    6.2820  -49.4519  -24.7587 C   0  0  0  0  0  0  0  0  0  0  0  0
    6.7151  -49.7990  -23.3645 C   0  0  0  0  0  0  0  0  0  0  0  0
    5.9659  -48.7768  -22.5511 C   0  0  0  0  0  0  0  0  0  0  0  0
    6.8153  -47.5038  -22.5332 C   0  0  0  0  0  0  0  0  0  0  0  0
   -0.5179  -53.3839  -18.2127 N   0  0  0  0  0  0  0  0  0  0  0  0
   -0.0984  -54.2174  -17.7543 H   0  0  0  0  0  0  0  0  0  0  0  0
   -0.8388  -50.3250  -16.1683 C   0  0  0  0  0  0  0  0  0  0  0  0
   -0.2686  -51.2797  -16.9972 C   0  0  0  0  0  0  0  0  0  0  0  0
   -0.9894  -52.3867  -17.3314 C   0  0  0  0  0  0  0  0  0  0  0  0
   -2.2981  -52.5920  -16.8638 C   0  0  0  0  0  0  0  0  0  0  0  0
   -2.8720  -51.6536  -16.0440 C   0  0  0  0  0  0  0  0  0  0  0  0
   -2.1417  -50.5433  -15.7069 C   0  0  0  0  0  0  0  0  0  0  0  0
   -4.2682  -51.8779  -15.5606 C   0  0  0  0  0  0  0  0  0  0  0  0
   -4.8967  -52.7496  -16.4553 F   0  0  0  0  0  0  0  0  0  0  0  0
   -4.9235  -50.6480  -15.7683 F   0  0  0  0  0  0  0  0  0  0  0  0
   -4.3522  -52.2442  -14.2638 F   0  0  0  0  0  0  0  0  0  0  0  0
    1.1546  -48.8687  -16.0178 C   0  0  0  0  0  0  0  0  0  0  0  0
   -0.1892  -49.1956  -15.7840 O   0  0  0  0  0  0  0  0  0  0  0  0
 33 34  1  0  0  0
 34 23  1  0  0  0
 23 24  2  0  0  0
 24 25  1  0  0  0
 25 21  1  0  0  0
 21  1  1  0  0  0
  1  2  2  0  0  0
  2  3  1  0  0  0
  3  4  2  0  0  0
  4  5  1  0  0  0
  5  6  2  0  0  0
  3  7  1  0  0  0
  7  8  2  0  0  0
  7  9  1  0  0  0
  9 10  1  0  0  0
 10 11  1  0  0  0
 11 12  1  0  0  0
 12 13  1  0  0  0
 13 14  1  0  0  0
 13 15  1  0  0  0
 15 16  1  0  0  0
 16 17  1  0  0  0
 17 18  1  0  0  0
 18 19  1  0  0  0
 19 20  1  0  0  0
 25 26  2  0  0  0
 26 27  1  0  0  0
 27 28  2  0  0  0
 27 29  1  0  0  0
 29 30  1  0  0  0
 29 31  1  0  0  0
 29 32  1  0  0  0
 28 23  1  0  0  0
  6  1  1  0  0  0
 14  9  1  0  0  0
 19 15  1  0  0  0
 21 22  1  0  0  0
M  END
> <minimizedAffinity>
-7.67509

> <CNNscore>
0.5646286607

> <CNNaffinity>
6.7466187477

> <CNN_VS>
3.8093342781

> <CNNaffinity_variance>
0.0876373649

$$$$
[H]c1nc(N([H])c2c([H])c(OC([H])([H])[H])c([H])c(C(F)(F)F)c2[H])c([H])c(C(=O)N2C([H])([H])C([H])([H])C([H])([H])[C@]([H])(N3C([H])([H])C([H])([H])C([H])([H])[C@@]3([H])C([H])([H])[H])C2([H])[H])c1[H]


 34 37  0  0  0  0  0  0  0  0999 V2000
   -0.5666  -52.8934  -19.5450 C   0  0  0  0  0  0  0  0  0  0  0  0
    0.0955  -51.7816  -19.9812 C   0  0  0  0  0  0  0  0  0  0  0  0
    0.2052  -51.4462  -21.3575 C   0  0  0  0  0  0  0  0  0  0  0  0
   -0.4149  -52.3235  -22.1808 C   0  0  0  0  0  0  0  0  0  0  0  0
   -1.1033  -53.4694  -21.7442 C   0  0  0  0  0  0  0  0  0  0  0  0
   -1.1461  -53.7071  -20.4209 N   0  0  0  0  0  0  0  0  0  0  0  0
    0.9323  -50.2570  -21.6869 C   0  0  0  0  0  0  0  0  0  0  0  0
    0.5238  -49.1645  -21.0952 O   0  0  0  0  0  0  0  0  0  0  0  0
    2.0431  -50.0492  -22.5300 N   0  0  0  0  0  0  0  0  0  0  0  0
    2.7251  -51.0696  -23.2532 C   0  0  0  0  0  0  0  0  0  0  0  0
    3.6847  -50.6632  -24.3163 C   0  0  0  0  0  0  0  0  0  0  0  0
    4.3388  -49.3122  -24.0449 C   0  0  0  0  0  0  0  0  0  0  0  0
    3.1395  -48.3753  -23.8981 C   0  0  0  0  0  0  0  0  0  0  0  0
    2.5689  -48.6788  -22.5659 C   0  0  0  0  0  0  0  0  0  0  0  0
    3.5057  -46.9816  -24.0336 N   0  0  0  0  0  0  0  0  0  0  0  0
    2.7153  -46.0440  -23.3209 C   0  0  0  0  0  0  0  0  0  0  0  0
    2.5263  -44.8640  -24.2808 C   0  0  0  0  0  0  0  0  0  0  0  0
    2.6262  -45.4964  -25.6381 C   0  0  0  0  0  0  0  0  0  0  0  0
    3.6589  -46.5661  -25.3987 C   0  0  0  0  0  0  0  0  0  0  0  0
    5.0326  -45.9125  -25.5659 C   0  0  0  0  0  0  0  0  0  0  0  0
   -0.5921  -53.2398  -18.1621 N   0  0  0  0  0  0  0  0  0  0  0  0
   -0.3048  -54.1809  -17.8265 H   0  0  0  0  0  0  0  0  0  0  0  0
   -0.7039  -50.5710  -15.6117 C   0  0  0  0  0  0  0  0  0  0  0  0
   -0.1844  -51.4497  -16.5507 C   0  0  0  0  0  0  0  0  0  0  0  0
   -1.0147  -52.3455  -17.1547 C   0  0  0  0  0  0  0  0  0  0  0  0
   -2.3866  -52.4062  -16.8581 C   0  0  0  0  0  0  0  0  0  0  0  0
   -2.9110  -51.5411  -15.9314 C   0  0  0  0  0  0  0  0  0  0  0  0
   -2.0712  -50.6443  -15.3230 C   0  0  0  0  0  0  0  0  0  0  0  0
   -4.3734  -51.6084  -15.6310 C   0  0  0  0  0  0  0  0  0  0  0  0
   -4.5262  -52.2072  -14.3766 F   0  0  0  0  0  0  0  0  0  0  0  0
   -4.8820  -52.5677  -16.5290 F   0  0  0  0  0  0  0  0  0  0  0  0
   -5.0226  -50.4338  -15.7777 F   0  0  0  0  0  0  0  0  0  0  0  0
    0.7463  -49.8221  -13.7536 C   0  0  0  0  0  0  0  0  0  0  0  0
    0.0537  -49.6502  -14.9611 O   0  0  0  0  0  0  0  0  0  0  0  0
 33 34  1  0  0  0
 34 23  1  0  0  0
 23 24  2  0  0  0
 24 25  1  0  0  0
 25 21  1  0  0  0
 21  1  1  0  0  0
  1  2  2  0  0  0
  2  3  1  0  0  0
  3  4  2  0  0  0
  4  5  1  0  0  0
  5  6  2  0  0  0
  3  7  1  0  0  0
  7  8  2  0  0  0
  7  9  1  0  0  0
  9 10  1  0  0  0
 10 11  1  0  0  0
 11 12  1  0  0  0
 12 13  1  0  0  0
 13 14  1  0  0  0
 13 15  1  0  0  0
 15 16  1  0  0  0
 16 17  1  0  0  0
 17 18  1  0  0  0
 18 19  1  0  0  0
 19 20  1  0  0  0
 25 26  2  0  0  0
 26 27  1  0  0  0
 27 28  2  0  0  0
 27 29  1  0  0  0
 29 30  1  0  0  0
 29 31  1  0  0  0
 29 32  1  0  0  0
 28 23  1  0  0  0
  6  1  1  0  0  0
 14  9  1  0  0  0
 19 15  1  0  0  0
 21 22  1  0  0  0
M  END
> <minimizedAffinity>
-7.84923

> <CNNscore>
0.5107662678

> <CNNaffinity>
6.5645179749

> <CNN_VS>
3.3529343605

> <CNNaffinity_variance>
0.1939554811

$$$$
[H]c1nc(N([H])c2c([H])c(OC([H])([H])[H])c([H])c(C(F)(F)F)c2[H])c([H])c(C(=O)N2C([H])([H])C([H])([H])C([H])([H])[C@]([H])(N3C([H])([H])C([H])([H])C([H])([H])[C@@]3([H])C([H])([H])[H])C2([H])[H])c1[H]


 34 37  0  0  0  0  0  0  0  0999 V2000
    0.5635  -52.9211  -23.5711 C   0  0  0  0  0  0  0  0  0  0  0  0
    0.2362  -52.8041  -22.2505 C   0  0  0  0  0  0  0  0  0  0  0  0
   -0.7331  -53.6338  -21.6253 C   0  0  0  0  0  0  0  0  0  0  0  0
   -1.2837  -54.5475  -22.4584 C   0  0  0  0  0  0  0  0  0  0  0  0
   -0.9524  -54.6809  -23.8186 C   0  0  0  0  0  0  0  0  0  0  0  0
   -0.0279  -53.8436  -24.3223 N   0  0  0  0  0  0  0  0  0  0  0  0
   -0.9925  -53.4065  -20.2352 C   0  0  0  0  0  0  0  0  0  0  0  0
   -1.9740  -54.1035  -19.7237 O   0  0  0  0  0  0  0  0  0  0  0  0
   -0.3565  -52.5707  -19.2945 N   0  0  0  0  0  0  0  0  0  0  0  0
    0.7732  -51.7456  -19.5634 C   0  0  0  0  0  0  0  0  0  0  0  0
    1.1493  -50.7114  -18.5608 C   0  0  0  0  0  0  0  0  0  0  0  0
    0.7724  -51.0984  -17.1343 C   0  0  0  0  0  0  0  0  0  0  0  0
   -0.7325  -51.3493  -17.2348 C   0  0  0  0  0  0  0  0  0  0  0  0
   -0.8648  -52.6554  -17.9197 C   0  0  0  0  0  0  0  0  0  0  0  0
   -1.3830  -51.3394  -15.9419 N   0  0  0  0  0  0  0  0  0  0  0  0
   -2.7315  -51.7775  -15.9049 C   0  0  0  0  0  0  0  0  0  0  0  0
   -3.4432  -50.8111  -14.9513 C   0  0  0  0  0  0  0  0  0  0  0  0
   -2.6412  -49.5483  -15.0686 C   0  0  0  0  0  0  0  0  0  0  0  0
   -1.2476  -50.0900  -15.2489 C   0  0  0  0  0  0  0  0  0  0  0  0
   -0.6832  -50.3575  -13.8518 C   0  0  0  0  0  0  0  0  0  0  0  0
    1.4852  -52.0218  -24.1834 N   0  0  0  0  0  0  0  0  0  0  0  0
    1.5333  -51.9032  -25.2151 H   0  0  0  0  0  0  0  0  0  0  0  0
    4.5643  -50.6552  -22.6699 C   0  0  0  0  0  0  0  0  0  0  0  0
    3.7331  -51.5142  -23.3733 C   0  0  0  0  0  0  0  0  0  0  0  0
    2.4003  -51.2404  -23.4451 C   0  0  0  0  0  0  0  0  0  0  0  0
    1.8385  -50.1095  -22.8292 C   0  0  0  0  0  0  0  0  0  0  0  0
    2.6517  -49.2527  -22.1316 C   0  0  0  0  0  0  0  0  0  0  0  0
    3.9915  -49.5343  -22.0584 C   0  0  0  0  0  0  0  0  0  0  0  0
    2.0446  -48.0478  -21.4889 C   0  0  0  0  0  0  0  0  0  0  0  0
    0.7250  -48.3623  -21.1492 F   0  0  0  0  0  0  0  0  0  0  0  0
    1.9121  -47.1108  -22.5326 F   0  0  0  0  0  0  0  0  0  0  0  0
    2.7781  -47.5303  -20.4804 F   0  0  0  0  0  0  0  0  0  0  0  0
    6.7557  -50.3091  -21.5768 C   0  0  0  0  0  0  0  0  0  0  0  0
    5.9020  -50.8558  -22.5462 O   0  0  0  0  0  0  0  0  0  0  0  0
 33 34  1  0  0  0
 34 23  1  0  0  0
 23 24  2  0  0  0
 24 25  1  0  0  0
 25 21  1  0  0  0
 21  1  1  0  0  0
  1  2  2  0  0  0
  2  3  1  0  0  0
  3  4  2  0  0  0
  4  5  1  0  0  0
  5  6  2  0  0  0
  3  7  1  0  0  0
  7  8  2  0  0  0
  7  9  1  0  0  0
  9 10  1  0  0  0
 10 11  1  0  0  0
 11 12  1  0  0  0
 12 13  1  0  0  0
 13 14  1  0  0  0
 13 15  1  0  0  0
 15 16  1  0  0  0
 16 17  1  0  0  0
 17 18  1  0  0  0
 18 19  1  0  0  0
 19 20  1  0  0  0
 25 26  2  0  0  0
 26 27  1  0  0  0
 27 28  2  0  0  0
 27 29  1  0  0  0
 29 30  1  0  0  0
 29 31  1  0  0  0
 29 32  1  0  0  0
 28 23  1  0  0  0
  6  1  1  0  0  0
 14  9  1  0  0  0
 19 15  1  0  0  0
 21 22  1  0  0  0
M  END
> <minimizedAffinity>
-7.86518

> <CNNscore>
0.4060556591

> <CNNaffinity>
6.8518209457

> <CNN_VS>
2.7822206020

> <CNNaffinity_variance>
0.1550911963

$$$$
[H]c1nc(N([H])c2c([H])c(OC([H])([H])[H])c([H])c(C(F)(F)F)c2[H])c([H])c(C(=O)N2C([H])([H])C([H])([H])C([H])([H])[C@]([H])(N3C([H])([H])C([H])([H])C([H])([H])[C@@]3([H])C([H])([H])[H])C2([H])[H])c1[H]


 34 37  0  0  0  0  0  0  0  0999 V2000
   -0.0578  -53.1003  -20.6059 C   0  0  0  0  0  0  0  0  0  0  0  0
    0.6668  -52.0461  -21.0836 C   0  0  0  0  0  0  0  0  0  0  0  0
    0.7201  -51.7164  -22.4646 C   0  0  0  0  0  0  0  0  0  0  0  0
   -0.0200  -52.5362  -23.2470 C   0  0  0  0  0  0  0  0  0  0  0  0
   -0.7737  -53.6222  -22.7672 C   0  0  0  0  0  0  0  0  0  0  0  0
   -0.7554  -53.8600  -21.4434 N   0  0  0  0  0  0  0  0  0  0  0  0
    1.5224  -50.5908  -22.8398 C   0  0  0  0  0  0  0  0  0  0  0  0
    1.6366  -49.6534  -21.9349 O   0  0  0  0  0  0  0  0  0  0  0  0
    2.2437  -50.3142  -24.0192 N   0  0  0  0  0  0  0  0  0  0  0  0
    2.3408  -51.1840  -25.1432 C   0  0  0  0  0  0  0  0  0  0  0  0
    2.8894  -50.6387  -26.4152 C   0  0  0  0  0  0  0  0  0  0  0  0
    3.8929  -49.5107  -26.1971 C   0  0  0  0  0  0  0  0  0  0  0  0
    3.0938  -48.4962  -25.3785 C   0  0  0  0  0  0  0  0  0  0  0  0
    3.0198  -49.0679  -24.0147 C   0  0  0  0  0  0  0  0  0  0  0  0
    3.6947  -47.1795  -25.3897 N   0  0  0  0  0  0  0  0  0  0  0  0
    3.2195  -46.2553  -24.4243 C   0  0  0  0  0  0  0  0  0  0  0  0
    3.1129  -44.9177  -25.1654 C   0  0  0  0  0  0  0  0  0  0  0  0
    2.8770  -45.3240  -26.5906 C   0  0  0  0  0  0  0  0  0  0  0  0
    3.7100  -46.5746  -26.6910 C   0  0  0  0  0  0  0  0  0  0  0  0
    5.1403  -46.1390  -27.0175 C   0  0  0  0  0  0  0  0  0  0  0  0
   -0.0277  -53.4480  -19.2234 N   0  0  0  0  0  0  0  0  0  0  0  0
    0.4505  -54.3062  -18.8834 H   0  0  0  0  0  0  0  0  0  0  0  0
   -2.3087  -52.2253  -16.5888 C   0  0  0  0  0  0  0  0  0  0  0  0
   -1.8059  -53.0277  -17.6022 C   0  0  0  0  0  0  0  0  0  0  0  0
   -0.6472  -52.6684  -18.2225 C   0  0  0  0  0  0  0  0  0  0  0  0
    0.0595  -51.5079  -17.8654 C   0  0  0  0  0  0  0  0  0  0  0  0
   -0.4286  -50.7075  -16.8638 C   0  0  0  0  0  0  0  0  0  0  0  0
   -1.5969  -51.0705  -16.2452 C   0  0  0  0  0  0  0  0  0  0  0  0
    0.3367  -49.4807  -16.4860 C   0  0  0  0  0  0  0  0  0  0  0  0
   -0.5866  -48.4668  -16.2122 F   0  0  0  0  0  0  0  0  0  0  0  0
    0.9573  -49.0611  -17.6793 F   0  0  0  0  0  0  0  0  0  0  0  0
    1.2583  -49.6797  -15.5196 F   0  0  0  0  0  0  0  0  0  0  0  0
   -4.4756  -51.6107  -15.5670 C   0  0  0  0  0  0  0  0  0  0  0  0
   -3.4578  -52.5083  -15.9219 O   0  0  0  0  0  0  0  0  0  0  0  0
 33 34  1  0  0  0
 34 23  1  0  0  0
 23 24  2  0  0  0
 24 25  1  0  0  0
 25 21  1  0  0  0
 21  1  1  0  0  0
  1  2  2  0  0  0
  2  3  1  0  0  0
  3  4  2  0  0  0
  4  5  1  0  0  0
  5  6  2  0  0  0
  3  7  1  0  0  0
  7  8  2  0  0  0
  7  9  1  0  0  0
  9 10  1  0  0  0
 10 11  1  0  0  0
 11 12  1  0  0  0
 12 13  1  0  0  0
 13 14  1  0  0  0
 13 15  1  0  0  0
 15 16  1  0  0  0
 16 17  1  0  0  0
 17 18  1  0  0  0
 18 19  1  0  0  0
 19 20  1  0  0  0
 25 26  2  0  0  0
 26 27  1  0  0  0
 27 28  2  0  0  0
 27 29  1  0  0  0
 29 30  1  0  0  0
 29 31  1  0  0  0
 29 32  1  0  0  0
 28 23  1  0  0  0
  6  1  1  0  0  0
 14  9  1  0  0  0
 19 15  1  0  0  0
 21 22  1  0  0  0
M  END
> <minimizedAffinity>
-7.45172

> <CNNscore>
0.3759248257

> <CNNaffinity>
6.6449632645

> <CNN_VS>
2.4980065823

> <CNNaffinity_variance>
0.2687729597

$$$$
[H]c1nc(N([H])c2c([H])c(OC([H])([H])[H])c([H])c(C(F)(F)F)c2[H])c([H])c(C(=O)N2C([H])([H])C([H])([H])C([H])([H])[C@]([H])(N3C([H])([H])C([H])([H])C([H])([H])[C@@]3([H])C([H])([H])[H])C2([H])[H])c1[H]


 34 37  0  0  0  0  0  0  0  0999 V2000
    0.8844  -52.1500  -23.9818 C   0  0  0  0  0  0  0  0  0  0  0  0
    0.4626  -52.3017  -22.6918 C   0  0  0  0  0  0  0  0  0  0  0  0
   -0.4190  -53.3414  -22.2916 C   0  0  0  0  0  0  0  0  0  0  0  0
   -0.7847  -54.1624  -23.3037 C   0  0  0  0  0  0  0  0  0  0  0  0
   -0.3543  -54.0196  -24.6349 C   0  0  0  0  0  0  0  0  0  0  0  0
    0.4745  -52.9987  -24.9182 N   0  0  0  0  0  0  0  0  0  0  0  0
   -0.7933  -53.3885  -20.9099 C   0  0  0  0  0  0  0  0  0  0  0  0
   -1.6578  -54.3168  -20.5914 O   0  0  0  0  0  0  0  0  0  0  0  0
   -0.3748  -52.6179  -19.8058 N   0  0  0  0  0  0  0  0  0  0  0  0
    0.5982  -51.5785  -19.8538 C   0  0  0  0  0  0  0  0  0  0  0  0
    0.7219  -50.6698  -18.6811 C   0  0  0  0  0  0  0  0  0  0  0  0
    0.3426  -51.3400  -17.3644 C   0  0  0  0  0  0  0  0  0  0  0  0
   -1.0829  -51.8264  -17.6269 C   0  0  0  0  0  0  0  0  0  0  0  0
   -0.9354  -53.0085  -18.5062 C   0  0  0  0  0  0  0  0  0  0  0  0
   -1.7958  -52.1364  -16.4060 N   0  0  0  0  0  0  0  0  0  0  0  0
   -3.0863  -52.7071  -16.5503 C   0  0  0  0  0  0  0  0  0  0  0  0
   -3.9506  -52.0237  -15.4846 C   0  0  0  0  0  0  0  0  0  0  0  0
   -3.2915  -50.6880  -15.3020 C   0  0  0  0  0  0  0  0  0  0  0  0
   -1.8382  -51.0402  -15.4807 C   0  0  0  0  0  0  0  0  0  0  0  0
   -1.3196  -51.5186  -14.1226 C   0  0  0  0  0  0  0  0  0  0  0  0
    1.7086  -51.0505  -24.3623 N   0  0  0  0  0  0  0  0  0  0  0  0
    1.7598  -50.7172  -25.3457 H   0  0  0  0  0  0  0  0  0  0  0  0
    2.8939  -48.8154  -21.6718 C   0  0  0  0  0  0  0  0  0  0  0  0
    2.0303  -49.4157  -22.5760 C   0  0  0  0  0  0  0  0  0  0  0  0
    2.5176  -50.3446  -23.4455 C   0  0  0  0  0  0  0  0  0  0  0  0
    3.8720  -50.7180  -23.4540 C   0  0  0  0  0  0  0  0  0  0  0  0
    4.7347  -50.1311  -22.5633 C   0  0  0  0  0  0  0  0  0  0  0  0
    4.2410  -49.1938  -21.6930 C   0  0  0  0  0  0  0  0  0  0  0  0
    6.1712  -50.5431  -22.5751 C   0  0  0  0  0  0  0  0  0  0  0  0
    6.5353  -50.8658  -21.2641 F   0  0  0  0  0  0  0  0  0  0  0  0
    6.8840  -49.3578  -22.8431 F   0  0  0  0  0  0  0  0  0  0  0  0
    6.4674  -51.4894  -23.4914 F   0  0  0  0  0  0  0  0  0  0  0  0
    3.2189  -47.3825  -19.6823 C   0  0  0  0  0  0  0  0  0  0  0  0
    2.4915  -47.8785  -20.7742 O   0  0  0  0  0  0  0  0  0  0  0  0
 33 34  1  0  0  0
 34 23  1  0  0  0
 23 24  2  0  0  0
 24 25  1  0  0  0
 25 21  1  0  0  0
 21  1  1  0  0  0
  1  2  2  0  0  0
  2  3  1  0  0  0
  3  4  2  0  0  0
  4  5  1  0  0  0
  5  6  2  0  0  0
  3  7  1  0  0  0
  7  8  2  0  0  0
  7  9  1  0  0  0
  9 10  1  0  0  0
 10 11  1  0  0  0
 11 12  1  0  0  0
 12 13  1  0  0  0
 13 14  1  0  0  0
 13 15  1  0  0  0
 15 16  1  0  0  0
 16 17  1  0  0  0
 17 18  1  0  0  0
 18 19  1  0  0  0
 19 20  1  0  0  0
 25 26  2  0  0  0
 26 27  1  0  0  0
 27 28  2  0  0  0
 27 29  1  0  0  0
 29 30  1  0  0  0
 29 31  1  0  0  0
 29 32  1  0  0  0
 28 23  1  0  0  0
  6  1  1  0  0  0
 14  9  1  0  0  0
 19 15  1  0  0  0
 21 22  1  0  0  0
M  END
> <minimizedAffinity>
-7.63987

> <CNNscore>
0.3707891703

> <CNNaffinity>
6.8279542923

> <CNN_VS>
2.5317316055

> <CNNaffinity_variance>
0.3772812486

$$$$
[H]c1nc(N([H])c2c([H])c(OC([H])([H])[H])c([H])c(C(F)(F)F)c2[H])c([H])c(C(=O)N2C([H])([H])C([H])([H])C([H])([H])[C@]([H])(N3C([H])([H])C([H])([H])C([H])([H])[C@@]3([H])C([H])([H])[H])C2([H])[H])c1[H]


 34 37  0  0  0  0  0  0  0  0999 V2000
    1.5126  -51.2399  -18.5775 C   0  0  0  0  0  0  0  0  0  0  0  0
    1.3877  -51.7200  -19.8498 C   0  0  0  0  0  0  0  0  0  0  0  0
    0.2980  -52.5355  -20.2571 C   0  0  0  0  0  0  0  0  0  0  0  0
   -0.5981  -52.7757  -19.2715 C   0  0  0  0  0  0  0  0  0  0  0  0
   -0.4833  -52.2840  -17.9590 C   0  0  0  0  0  0  0  0  0  0  0  0
    0.5888  -51.5261  -17.6665 N   0  0  0  0  0  0  0  0  0  0  0  0
    0.2855  -52.9819  -21.6180 C   0  0  0  0  0  0  0  0  0  0  0  0
   -0.1901  -54.1847  -21.8123 O   0  0  0  0  0  0  0  0  0  0  0  0
    0.6779  -52.3412  -22.8110 N   0  0  0  0  0  0  0  0  0  0  0  0
    1.1778  -51.0102  -22.9000 C   0  0  0  0  0  0  0  0  0  0  0  0
    1.8171  -50.5776  -24.1729 C   0  0  0  0  0  0  0  0  0  0  0  0
    1.2581  -51.2975  -25.3961 C   0  0  0  0  0  0  0  0  0  0  0  0
    1.4820  -52.7714  -25.0569 C   0  0  0  0  0  0  0  0  0  0  0  0
    0.4500  -53.0999  -24.0472 C   0  0  0  0  0  0  0  0  0  0  0  0
    1.4012  -53.6262  -26.2221 N   0  0  0  0  0  0  0  0  0  0  0  0
    1.9575  -53.1178  -27.4237 C   0  0  0  0  0  0  0  0  0  0  0  0
    0.9698  -53.5175  -28.5258 C   0  0  0  0  0  0  0  0  0  0  0  0
   -0.3441  -53.6019  -27.8055 C   0  0  0  0  0  0  0  0  0  0  0  0
    0.0805  -54.1338  -26.4620 C   0  0  0  0  0  0  0  0  0  0  0  0
    0.1501  -55.6579  -26.5817 C   0  0  0  0  0  0  0  0  0  0  0  0
    2.6580  -50.4876  -18.1837 N   0  0  0  0  0  0  0  0  0  0  0  0
    2.9564  -50.4214  -17.1901 H   0  0  0  0  0  0  0  0  0  0  0  0
    5.5190  -49.1607  -20.1056 C   0  0  0  0  0  0  0  0  0  0  0  0
    4.8195  -49.8548  -19.1296 C   0  0  0  0  0  0  0  0  0  0  0  0
    3.4597  -49.7738  -19.1009 C   0  0  0  0  0  0  0  0  0  0  0  0
    2.7397  -49.0089  -20.0338 C   0  0  0  0  0  0  0  0  0  0  0  0
    3.4216  -48.3190  -21.0039 C   0  0  0  0  0  0  0  0  0  0  0  0
    4.7900  -48.4000  -21.0266 C   0  0  0  0  0  0  0  0  0  0  0  0
    2.6445  -47.5165  -21.9967 C   0  0  0  0  0  0  0  0  0  0  0  0
    3.1287  -47.8265  -23.2715 F   0  0  0  0  0  0  0  0  0  0  0  0
    3.0608  -46.1865  -21.7900 F   0  0  0  0  0  0  0  0  0  0  0  0
    1.3049  -47.6180  -21.8626 F   0  0  0  0  0  0  0  0  0  0  0  0
    7.6454  -49.9116  -21.1212 C   0  0  0  0  0  0  0  0  0  0  0  0
    6.8736  -49.1842  -20.2032 O   0  0  0  0  0  0  0  0  0  0  0  0
 33 34  1  0  0  0
 34 23  1  0  0  0
 23 24  2  0  0  0
 24 25  1  0  0  0
 25 21  1  0  0  0
 21  1  1  0  0  0
  1  2  2  0  0  0
  2  3  1  0  0  0
  3  4  2  0  0  0
  4  5  1  0  0  0
  5  6  2  0  0  0
  3  7  1  0  0  0
  7  8  2  0  0  0
  7  9  1  0  0  0
  9 10  1  0  0  0
 10 11  1  0  0  0
 11 12  1  0  0  0
 12 13  1  0  0  0
 13 14  1  0  0  0
 13 15  1  0  0  0
 15 16  1  0  0  0
 16 17  1  0  0  0
 17 18  1  0  0  0
 18 19  1  0  0  0
 19 20  1  0  0  0
 25 26  2  0  0  0
 26 27  1  0  0  0
 27 28  2  0  0  0
 27 29  1  0  0  0
 29 30  1  0  0  0
 29 31  1  0  0  0
 29 32  1  0  0  0
 28 23  1  0  0  0
  6  1  1  0  0  0
 14  9  1  0  0  0
 19 15  1  0  0  0
 21 22  1  0  0  0
M  END
> <minimizedAffinity>
-7.59022

> <CNNscore>
0.2856591642

> <CNNaffinity>
7.0765595436

> <CNN_VS>
2.0214841366

> <CNNaffinity_variance>
0.3821680546

$$$$
[H]c1nc(N([H])c2c([H])c(OC([H])([H])[H])c([H])c(C(F)(F)F)c2[H])c([H])c(C(=O)N2C([H])([H])C([H])([H])C([H])([H])[C@]([H])(N3C([H])([H])C([H])([H])C([H])([H])[C@@]3([H])C([H])([H])[H])C2([H])[H])c1[H]


 34 37  0  0  0  0  0  0  0  0999 V2000
    0.9204  -51.5760  -18.2294 C   0  0  0  0  0  0  0  0  0  0  0  0
    0.8763  -51.9795  -19.5332 C   0  0  0  0  0  0  0  0  0  0  0  0
   -0.1583  -52.8087  -20.0437 C   0  0  0  0  0  0  0  0  0  0  0  0
   -1.0898  -53.1443  -19.1208 C   0  0  0  0  0  0  0  0  0  0  0  0
   -1.0581  -52.7320  -17.7767 C   0  0  0  0  0  0  0  0  0  0  0  0
   -0.0333  -51.9538  -17.3851 N   0  0  0  0  0  0  0  0  0  0  0  0
   -0.0874  -53.1689  -21.4281 C   0  0  0  0  0  0  0  0  0  0  0  0
   -0.6001  -54.3324  -21.7348 O   0  0  0  0  0  0  0  0  0  0  0  0
    0.4227  -52.4757  -22.5449 N   0  0  0  0  0  0  0  0  0  0  0  0
    0.9869  -51.1681  -22.5100 C   0  0  0  0  0  0  0  0  0  0  0  0
    1.7396  -50.6897  -23.7019 C   0  0  0  0  0  0  0  0  0  0  0  0
    1.2435  -51.3040  -25.0070 C   0  0  0  0  0  0  0  0  0  0  0  0
    1.3749  -52.8053  -24.7495 C   0  0  0  0  0  0  0  0  0  0  0  0
    0.2556  -53.1443  -23.8414 C   0  0  0  0  0  0  0  0  0  0  0  0
    1.3447  -53.5813  -25.9709 N   0  0  0  0  0  0  0  0  0  0  0  0
    1.9545  -52.9976  -27.1107 C   0  0  0  0  0  0  0  0  0  0  0  0
    1.0161  -53.3196  -28.2792 C   0  0  0  0  0  0  0  0  0  0  0  0
   -0.3285  -53.4453  -27.6249 C   0  0  0  0  0  0  0  0  0  0  0  0
    0.0351  -54.0662  -26.3019 C   0  0  0  0  0  0  0  0  0  0  0  0
    0.1078  -55.5795  -26.5185 C   0  0  0  0  0  0  0  0  0  0  0  0
    2.0139  -50.8069  -17.7335 N   0  0  0  0  0  0  0  0  0  0  0  0
    2.3629  -50.9129  -16.7600 H   0  0  0  0  0  0  0  0  0  0  0  0
    3.3152  -47.6345  -19.1054 C   0  0  0  0  0  0  0  0  0  0  0  0
    2.5635  -48.5018  -18.3268 C   0  0  0  0  0  0  0  0  0  0  0  0
    2.6920  -49.8453  -18.5139 C   0  0  0  0  0  0  0  0  0  0  0  0
    3.5673  -50.3831  -19.4722 C   0  0  0  0  0  0  0  0  0  0  0  0
    4.3162  -49.5342  -20.2473 C   0  0  0  0  0  0  0  0  0  0  0  0
    4.1807  -48.1830  -20.0586 C   0  0  0  0  0  0  0  0  0  0  0  0
    5.2509  -50.1178  -21.2567 C   0  0  0  0  0  0  0  0  0  0  0  0
    6.4302  -49.3666  -21.2336 F   0  0  0  0  0  0  0  0  0  0  0  0
    4.6747  -49.8063  -22.5041 F   0  0  0  0  0  0  0  0  0  0  0  0
    5.4295  -51.4509  -21.1392 F   0  0  0  0  0  0  0  0  0  0  0  0
    3.9510  -45.4736  -18.0840 C   0  0  0  0  0  0  0  0  0  0  0  0
    3.2452  -46.2832  -18.9862 O   0  0  0  0  0  0  0  0  0  0  0  0
 33 34  1  0  0  0
 34 23  1  0  0  0
 23 24  2  0  0  0
 24 25  1  0  0  0
 25 21  1  0  0  0
 21  1  1  0  0  0
  1  2  2  0  0  0
  2  3  1  0  0  0
  3  4  2  0  0  0
  4  5  1  0  0  0
  5  6  2  0  0  0
  3  7  1  0  0  0
  7  8  2  0  0  0
  7  9  1  0  0  0
  9 10  1  0  0  0
 10 11  1  0  0  0
 11 12  1  0  0  0
 12 13  1  0  0  0
 13 14  1  0  0  0
 13 15  1  0  0  0
 15 16  1  0  0  0
 16 17  1  0  0  0
 17 18  1  0  0  0
 18 19  1  0  0  0
 19 20  1  0  0  0
 25 26  2  0  0  0
 26 27  1  0  0  0
 27 28  2  0  0  0
 27 29  1  0  0  0
 29 30  1  0  0  0
 29 31  1  0  0  0
 29 32  1  0  0  0
 28 23  1  0  0  0
  6  1  1  0  0  0
 14  9  1  0  0  0
 19 15  1  0  0  0
 21 22  1  0  0  0
M  END
> <minimizedAffinity>
-7.47097

> <CNNscore>
0.2545911968

> <CNNaffinity>
6.9916281700

> <CNN_VS>
1.7800070047

> <CNNaffinity_variance>
0.3998211920

$$$$
[H]c1nc(N([H])c2c([H])c(OC([H])([H])[H])c([H])c(C(F)(F)F)c2[H])c([H])c(C(=O)N2C([H])([H])C([H])([H])C([H])([H])[C@]([H])(N3C([H])([H])C([H])([H])C([H])([H])[C@@]3([H])C([H])([H])[H])C2([H])[H])c1[H]


 34 37  0  0  0  0  0  0  0  0999 V2000
    1.7705  -52.5463  -24.9214 C   0  0  0  0  0  0  0  0  0  0  0  0
    1.4474  -52.6957  -23.6031 C   0  0  0  0  0  0  0  0  0  0  0  0
    0.2176  -53.2647  -23.1757 C   0  0  0  0  0  0  0  0  0  0  0  0
   -0.5858  -53.6488  -24.1951 C   0  0  0  0  0  0  0  0  0  0  0  0
   -0.2631  -53.5043  -25.5562 C   0  0  0  0  0  0  0  0  0  0  0  0
    0.9222  -52.9467  -25.8623 N   0  0  0  0  0  0  0  0  0  0  0  0
   -0.0058  -53.3596  -21.7642 C   0  0  0  0  0  0  0  0  0  0  0  0
   -0.5797  -54.4621  -21.3572 O   0  0  0  0  0  0  0  0  0  0  0  0
    0.3068  -52.4755  -20.7112 N   0  0  0  0  0  0  0  0  0  0  0  0
    0.9823  -51.2302  -20.8602 C   0  0  0  0  0  0  0  0  0  0  0  0
    0.9824  -50.2830  -19.7118 C   0  0  0  0  0  0  0  0  0  0  0  0
    0.9032  -50.9846  -18.3596 C   0  0  0  0  0  0  0  0  0  0  0  0
   -0.3744  -51.8157  -18.4805 C   0  0  0  0  0  0  0  0  0  0  0  0
   -0.0184  -52.9517  -19.3609 C   0  0  0  0  0  0  0  0  0  0  0  0
   -0.8737  -52.2538  -17.1945 N   0  0  0  0  0  0  0  0  0  0  0  0
   -2.1876  -52.7875  -17.1705 C   0  0  0  0  0  0  0  0  0  0  0  0
   -2.8303  -52.2191  -15.9001 C   0  0  0  0  0  0  0  0  0  0  0  0
   -2.1058  -50.9217  -15.6908 C   0  0  0  0  0  0  0  0  0  0  0  0
   -0.7182  -51.2701  -16.1612 C   0  0  0  0  0  0  0  0  0  0  0  0
    0.0129  -51.9072  -14.9772 C   0  0  0  0  0  0  0  0  0  0  0  0
    2.9802  -51.9019  -25.3143 N   0  0  0  0  0  0  0  0  0  0  0  0
    3.8025  -52.4388  -25.6555 H   0  0  0  0  0  0  0  0  0  0  0  0
    3.4431  -48.3511  -26.2184 C   0  0  0  0  0  0  0  0  0  0  0  0
    3.3364  -49.7261  -26.3661 C   0  0  0  0  0  0  0  0  0  0  0  0
    3.1564  -50.5021  -25.2606 C   0  0  0  0  0  0  0  0  0  0  0  0
    3.0721  -49.9520  -23.9707 C   0  0  0  0  0  0  0  0  0  0  0  0
    3.1755  -48.5931  -23.8133 C   0  0  0  0  0  0  0  0  0  0  0  0
    3.3607  -47.8164  -24.9278 C   0  0  0  0  0  0  0  0  0  0  0  0
    3.0746  -48.0185  -22.4375 C   0  0  0  0  0  0  0  0  0  0  0  0
    3.6460  -48.9335  -21.5478 F   0  0  0  0  0  0  0  0  0  0  0  0
    1.7003  -48.0591  -22.1298 F   0  0  0  0  0  0  0  0  0  0  0  0
    3.5453  -46.7577  -22.3290 F   0  0  0  0  0  0  0  0  0  0  0  0
    4.2076  -47.8075  -28.5068 C   0  0  0  0  0  0  0  0  0  0  0  0
    3.6268  -47.5063  -27.2661 O   0  0  0  0  0  0  0  0  0  0  0  0
 33 34  1  0  0  0
 34 23  1  0  0  0
 23 24  2  0  0  0
 24 25  1  0  0  0
 25 21  1  0  0  0
 21  1  1  0  0  0
  1  2  2  0  0  0
  2  3  1  0  0  0
  3  4  2  0  0  0
  4  5  1  0  0  0
  5  6  2  0  0  0
  3  7  1  0  0  0
  7  8  2  0  0  0
  7  9  1  0  0  0
  9 10  1  0  0  0
 10 11  1  0  0  0
 11 12  1  0  0  0
 12 13  1  0  0  0
 13 14  1  0  0  0
 13 15  1  0  0  0
 15 16  1  0  0  0
 16 17  1  0  0  0
 17 18  1  0  0  0
 18 19  1  0  0  0
 19 20  1  0  0  0
 25 26  2  0  0  0
 26 27  1  0  0  0
 27 28  2  0  0  0
 27 29  1  0  0  0
 29 30  1  0  0  0
 29 31  1  0  0  0
 29 32  1  0  0  0
 28 23  1  0  0  0
  6  1  1  0  0  0
 14  9  1  0  0  0
 19 15  1  0  0  0
 21 22  1  0  0  0
M  END
> <minimizedAffinity>
-7.60419

> <CNNscore>
0.2333865464

> <CNNaffinity>
6.7745652199

> <CNN_VS>
1.5810923576

> <CNNaffinity_variance>
0.4834844172

$$$$
[H]c1nc(N([H])c2c([H])c(OC([H])([H])[H])c([H])c(C(F)(F)F)c2[H])c([H])c(C(=O)N2C([H])([H])C([H])([H])C([H])([H])[C@]([H])(N3C([H])([H])C([H])([H])C([H])([H])[C@@]3([H])C([H])([H])[H])C2([H])[H])c1[H]


 34 37  0  0  0  0  0  0  0  0999 V2000
    0.2063  -51.2633  -18.0566 C   0  0  0  0  0  0  0  0  0  0  0  0
    0.1877  -51.6633  -19.3621 C   0  0  0  0  0  0  0  0  0  0  0  0
    0.6865  -50.8542  -20.4182 C   0  0  0  0  0  0  0  0  0  0  0  0
    1.1857  -49.6667  -20.0026 C   0  0  0  0  0  0  0  0  0  0  0  0
    1.2145  -49.2449  -18.6613 C   0  0  0  0  0  0  0  0  0  0  0  0
    0.7115  -50.0780  -17.7327 N   0  0  0  0  0  0  0  0  0  0  0  0
    0.6033  -51.3843  -21.7461 C   0  0  0  0  0  0  0  0  0  0  0  0
    1.1492  -50.6506  -22.6812 O   0  0  0  0  0  0  0  0  0  0  0  0
    0.0508  -52.5857  -22.2354 N   0  0  0  0  0  0  0  0  0  0  0  0
   -0.5561  -53.5947  -21.4336 C   0  0  0  0  0  0  0  0  0  0  0  0
   -1.3452  -54.6590  -22.1124 C   0  0  0  0  0  0  0  0  0  0  0  0
   -0.8518  -54.9590  -23.5242 C   0  0  0  0  0  0  0  0  0  0  0  0
   -0.9284  -53.5946  -24.2100 C   0  0  0  0  0  0  0  0  0  0  0  0
    0.2173  -52.8246  -23.6745 C   0  0  0  0  0  0  0  0  0  0  0  0
   -0.8938  -53.6975  -25.6532 N   0  0  0  0  0  0  0  0  0  0  0  0
    0.0993  -54.5456  -26.2068 C   0  0  0  0  0  0  0  0  0  0  0  0
    0.6364  -53.7927  -27.4293 C   0  0  0  0  0  0  0  0  0  0  0  0
    0.4121  -52.3507  -27.0795 C   0  0  0  0  0  0  0  0  0  0  0  0
   -0.8817  -52.4227  -26.3121 C   0  0  0  0  0  0  0  0  0  0  0  0
   -2.0172  -52.3846  -27.3375 C   0  0  0  0  0  0  0  0  0  0  0  0
   -0.3718  -52.0686  -17.0317 N   0  0  0  0  0  0  0  0  0  0  0  0
    0.1510  -52.8489  -16.5861 H   0  0  0  0  0  0  0  0  0  0  0  0
   -3.9127  -52.5647  -16.1068 C   0  0  0  0  0  0  0  0  0  0  0  0
   -2.6651  -52.8214  -16.6556 C   0  0  0  0  0  0  0  0  0  0  0  0
   -1.6874  -51.8776  -16.5562 C   0  0  0  0  0  0  0  0  0  0  0  0
   -1.9022  -50.6485  -15.9105 C   0  0  0  0  0  0  0  0  0  0  0  0
   -3.1323  -50.3846  -15.3635 C   0  0  0  0  0  0  0  0  0  0  0  0
   -4.1144  -51.3353  -15.4694 C   0  0  0  0  0  0  0  0  0  0  0  0
   -3.3462  -49.0778  -14.6707 C   0  0  0  0  0  0  0  0  0  0  0  0
   -2.0995  -48.6095  -14.2444 F   0  0  0  0  0  0  0  0  0  0  0  0
   -4.0115  -49.4091  -13.4737 F   0  0  0  0  0  0  0  0  0  0  0  0
   -4.0699  -48.1870  -15.3817 F   0  0  0  0  0  0  0  0  0  0  0  0
   -5.6373  -54.0131  -15.0846 C   0  0  0  0  0  0  0  0  0  0  0  0
   -4.9426  -53.4485  -16.1644 O   0  0  0  0  0  0  0  0  0  0  0  0
 33 34  1  0  0  0
 34 23  1  0  0  0
 23 24  2  0  0  0
 24 25  1  0  0  0
 25 21  1  0  0  0
 21  1  1  0  0  0
  1  2  2  0  0  0
  2  3  1  0  0  0
  3  4  2  0  0  0
  4  5  1  0  0  0
  5  6  2  0  0  0
  3  7  1  0  0  0
  7  8  2  0  0  0
  7  9  1  0  0  0
  9 10  1  0  0  0
 10 11  1  0  0  0
 11 12  1  0  0  0
 12 13  1  0  0  0
 13 14  1  0  0  0
 13 15  1  0  0  0
 15 16  1  0  0  0
 16 17  1  0  0  0
 17 18  1  0  0  0
 18 19  1  0  0  0
 19 20  1  0  0  0
 25 26  2  0  0  0
 26 27  1  0  0  0
 27 28  2  0  0  0
 27 29  1  0  0  0
 29 30  1  0  0  0
 29 31  1  0  0  0
 29 32  1  0  0  0
 28 23  1  0  0  0
  6  1  1  0  0  0
 14  9  1  0  0  0
 19 15  1  0  0  0
 21 22  1  0  0  0
M  END
> <minimizedAffinity>
-8.99908

> <CNNscore>
0.2283260375

> <CNNaffinity>
6.5007271767

> <CNN_VS>
1.4842852354

> <CNNaffinity_variance>
0.2710510790

$$$$
[H]c1nc(N([H])c2c([H])nc(C(=O)N3C([H])([H])C([H])([H])C([H])(N([H])[H])C([H])([H])C3([H])[H])c([H])c2[H])nc(-c2c([H])c([H])c3c(c2[H])OC([H])([H])O3)c1[H]


 34 38  0  0  0  0  0  0  0  0999 V2000
    3.4032  -49.8476  -20.1046 C   0  0  0  0  0  0  0  0  0  0  0  0
    3.0224  -50.7844  -19.1611 C   0  0  0  0  0  0  0  0  0  0  0  0
    1.7829  -51.4178  -19.2441 C   0  0  0  0  0  0  0  0  0  0  0  0
    0.9426  -51.1021  -20.2721 C   0  0  0  0  0  0  0  0  0  0  0  0
    1.3625  -50.1505  -21.2073 C   0  0  0  0  0  0  0  0  0  0  0  0
    2.5524  -49.5651  -21.0986 N   0  0  0  0  0  0  0  0  0  0  0  0
    6.0404  -44.5145  -17.2684 N   0  0  0  0  0  0  0  0  0  0  0  0
    5.7768  -45.4587  -18.3437 C   0  0  0  0  0  0  0  0  0  0  0  0
    4.3126  -45.7149  -18.4856 C   0  0  0  0  0  0  0  0  0  0  0  0
    3.9500  -47.0496  -18.9876 C   0  0  0  0  0  0  0  0  0  0  0  0
    4.9526  -47.9189  -19.4861 N   0  0  0  0  0  0  0  0  0  0  0  0
    6.3643  -47.4982  -19.4681 C   0  0  0  0  0  0  0  0  0  0  0  0
    6.4925  -46.7691  -18.1161 C   0  0  0  0  0  0  0  0  0  0  0  0
    4.6906  -49.1987  -20.0006 C   0  0  0  0  0  0  0  0  0  0  0  0
    5.6952  -49.8667  -20.4232 O   0  0  0  0  0  0  0  0  0  0  0  0
    6.8287  -44.8826  -16.6996 H   0  0  0  0  0  0  0  0  0  0  0  0
    6.2316  -43.5807  -17.6948 H   0  0  0  0  0  0  0  0  0  0  0  0
   -0.3222  -51.6446  -20.4362 N   0  0  0  0  0  0  0  0  0  0  0  0
   -1.1084  -51.2057  -19.8587 H   0  0  0  0  0  0  0  0  0  0  0  0
   -0.6725  -52.7029  -21.2853 C   0  0  0  0  0  0  0  0  0  0  0  0
   -1.2157  -53.8650  -20.9138 N   0  0  0  0  0  0  0  0  0  0  0  0
   -1.5444  -54.8600  -21.7408 C   0  0  0  0  0  0  0  0  0  0  0  0
   -1.2925  -54.6500  -23.0982 C   0  0  0  0  0  0  0  0  0  0  0  0
   -0.7336  -53.4717  -23.5430 C   0  0  0  0  0  0  0  0  0  0  0  0
   -0.4384  -52.5297  -22.6251 N   0  0  0  0  0  0  0  0  0  0  0  0
   -0.4679  -53.2495  -24.9587 C   0  0  0  0  0  0  0  0  0  0  0  0
   -1.1033  -52.2210  -25.6219 C   0  0  0  0  0  0  0  0  0  0  0  0
   -0.8568  -52.0041  -26.9676 C   0  0  0  0  0  0  0  0  0  0  0  0
    0.0185  -52.8019  -27.6659 C   0  0  0  0  0  0  0  0  0  0  0  0
    0.4686  -52.8401  -28.9926 O   0  0  0  0  0  0  0  0  0  0  0  0
    1.6096  -53.6800  -29.0786 C   0  0  0  0  0  0  0  0  0  0  0  0
    1.4910  -54.5019  -27.9094 O   0  0  0  0  0  0  0  0  0  0  0  0
    0.6524  -53.8220  -27.0201 C   0  0  0  0  0  0  0  0  0  0  0  0
    0.3969  -54.0283  -25.6734 C   0  0  0  0  0  0  0  0  0  0  0  0
  7  8  1  0  0  0
  8  9  1  0  0  0
  9 10  1  0  0  0
 10 11  1  0  0  0
 11 12  1  0  0  0
 12 13  1  0  0  0
 11 14  1  0  0  0
 14 15  2  0  0  0
 14  1  1  0  0  0
  1  2  2  0  0  0
  2  3  1  0  0  0
  3  4  2  0  0  0
  4 18  1  0  0  0
 18 20  1  0  0  0
 20 21  2  0  0  0
 21 22  1  0  0  0
 22 23  2  0  0  0
 23 24  1  0  0  0
 24 25  2  0  0  0
 24 26  1  0  0  0
 26 27  2  0  0  0
 27 28  1  0  0  0
 28 29  2  0  0  0
 29 30  1  0  0  0
 30 31  1  0  0  0
 31 32  1  0  0  0
 32 33  1  0  0  0
 33 34  2  0  0  0
  4  5  1  0  0  0
  5  6  2  0  0  0
 13  8  1  0  0  0
  6  1  1  0  0  0
 25 20  1  0  0  0
 34 26  1  0  0  0
 33 29  1  0  0  0
  7 16  1  0  0  0
  7 17  1  0  0  0
 18 19  1  0  0  0
M  END
> <minimizedAffinity>
-7.20511

> <CNNscore>
0.3232223690

> <CNNaffinity>
6.3934407234

> <CNN_VS>
2.0665030479

> <CNNaffinity_variance>
0.4297280312

$$$$
[H]c1nc(N([H])c2c([H])nc(C(=O)N3C([H])([H])C([H])([H])C([H])(N([H])[H])C([H])([H])C3([H])[H])c([H])c2[H])nc(-c2c([H])c([H])c3c(c2[H])OC([H])([H])O3)c1[H]


 34 38  0  0  0  0  0  0  0  0999 V2000
    4.2611  -48.8120  -23.3850 C   0  0  0  0  0  0  0  0  0  0  0  0
    4.7622  -50.0909  -23.5472 C   0  0  0  0  0  0  0  0  0  0  0  0
    4.4668  -50.8335  -24.6899 C   0  0  0  0  0  0  0  0  0  0  0  0
    3.6724  -50.2829  -25.6535 C   0  0  0  0  0  0  0  0  0  0  0  0
    3.1848  -48.9872  -25.4546 C   0  0  0  0  0  0  0  0  0  0  0  0
    3.4864  -48.3059  -24.3522 N   0  0  0  0  0  0  0  0  0  0  0  0
    2.4651  -48.6065  -17.0468 N   0  0  0  0  0  0  0  0  0  0  0  0
    2.7751  -48.0661  -18.3618 C   0  0  0  0  0  0  0  0  0  0  0  0
    2.0464  -48.8095  -19.4324 C   0  0  0  0  0  0  0  0  0  0  0  0
    2.7245  -48.8653  -20.7370 C   0  0  0  0  0  0  0  0  0  0  0  0
    3.8803  -48.0789  -20.9724 N   0  0  0  0  0  0  0  0  0  0  0  0
    4.4236  -47.2319  -19.8965 C   0  0  0  0  0  0  0  0  0  0  0  0
    4.2583  -48.1135  -18.6430 C   0  0  0  0  0  0  0  0  0  0  0  0
    4.5750  -48.0583  -22.1922 C   0  0  0  0  0  0  0  0  0  0  0  0
    5.5965  -47.2929  -22.2608 O   0  0  0  0  0  0  0  0  0  0  0  0
    3.3550  -48.7049  -16.5186 H   0  0  0  0  0  0  0  0  0  0  0  0
    1.7740  -47.9717  -16.5887 H   0  0  0  0  0  0  0  0  0  0  0  0
    3.2893  -50.9390  -26.8127 N   0  0  0  0  0  0  0  0  0  0  0  0
    3.8217  -50.6827  -27.7045 H   0  0  0  0  0  0  0  0  0  0  0  0
    2.2817  -51.9059  -26.9303 C   0  0  0  0  0  0  0  0  0  0  0  0
    1.8819  -52.4943  -28.0605 N   0  0  0  0  0  0  0  0  0  0  0  0
    0.9205  -53.4160  -28.1496 C   0  0  0  0  0  0  0  0  0  0  0  0
    0.2951  -53.7806  -26.9555 C   0  0  0  0  0  0  0  0  0  0  0  0
    0.6637  -53.2088  -25.7572 C   0  0  0  0  0  0  0  0  0  0  0  0
    1.6469  -52.2867  -25.7763 N   0  0  0  0  0  0  0  0  0  0  0  0
    0.0124  -53.5856  -24.5091 C   0  0  0  0  0  0  0  0  0  0  0  0
   -0.6657  -54.7833  -24.4244 C   0  0  0  0  0  0  0  0  0  0  0  0
   -1.2882  -55.1480  -23.2419 C   0  0  0  0  0  0  0  0  0  0  0  0
   -1.2445  -54.3319  -22.1364 C   0  0  0  0  0  0  0  0  0  0  0  0
   -1.7565  -54.4130  -20.8343 O   0  0  0  0  0  0  0  0  0  0  0  0
   -1.1360  -53.4280  -20.0222 C   0  0  0  0  0  0  0  0  0  0  0  0
   -0.6566  -52.4770  -20.9826 O   0  0  0  0  0  0  0  0  0  0  0  0
   -0.5767  -53.1451  -22.2088 C   0  0  0  0  0  0  0  0  0  0  0  0
    0.0418  -52.7920  -23.3980 C   0  0  0  0  0  0  0  0  0  0  0  0
  7  8  1  0  0  0
  8  9  1  0  0  0
  9 10  1  0  0  0
 10 11  1  0  0  0
 11 12  1  0  0  0
 12 13  1  0  0  0
 11 14  1  0  0  0
 14 15  2  0  0  0
 14  1  1  0  0  0
  1  2  2  0  0  0
  2  3  1  0  0  0
  3  4  2  0  0  0
  4 18  1  0  0  0
 18 20  1  0  0  0
 20 21  2  0  0  0
 21 22  1  0  0  0
 22 23  2  0  0  0
 23 24  1  0  0  0
 24 25  2  0  0  0
 24 26  1  0  0  0
 26 27  2  0  0  0
 27 28  1  0  0  0
 28 29  2  0  0  0
 29 30  1  0  0  0
 30 31  1  0  0  0
 31 32  1  0  0  0
 32 33  1  0  0  0
 33 34  2  0  0  0
  4  5  1  0  0  0
  5  6  2  0  0  0
 13  8  1  0  0  0
  6  1  1  0  0  0
 25 20  1  0  0  0
 34 26  1  0  0  0
 33 29  1  0  0  0
  7 16  1  0  0  0
  7 17  1  0  0  0
 18 19  1  0  0  0
M  END
> <minimizedAffinity>
-8.09726

> <CNNscore>
0.3096725643

> <CNNaffinity>
6.5979895592

> <CNN_VS>
2.0432162285

> <CNNaffinity_variance>
0.2313624918

$$$$
[H]c1nc(N([H])c2c([H])nc(C(=O)N3C([H])([H])C([H])([H])C([H])(N([H])[H])C([H])([H])C3([H])[H])c([H])c2[H])nc(-c2c([H])c([H])c3c(c2[H])OC([H])([H])O3)c1[H]


 34 38  0  0  0  0  0  0  0  0999 V2000
    2.9693  -48.1257  -21.0853 C   0  0  0  0  0  0  0  0  0  0  0  0
    3.8263  -49.2106  -21.0475 C   0  0  0  0  0  0  0  0  0  0  0  0
    3.3503  -50.4858  -20.7447 C   0  0  0  0  0  0  0  0  0  0  0  0
    2.0214  -50.6546  -20.4837 C   0  0  0  0  0  0  0  0  0  0  0  0
    1.1856  -49.5342  -20.5319 C   0  0  0  0  0  0  0  0  0  0  0  0
    1.6727  -48.3311  -20.8244 N   0  0  0  0  0  0  0  0  0  0  0  0
    5.6805  -42.9997  -17.9524 N   0  0  0  0  0  0  0  0  0  0  0  0
    4.7712  -43.6721  -18.8680 C   0  0  0  0  0  0  0  0  0  0  0  0
    4.0853  -44.8170  -18.1982 C   0  0  0  0  0  0  0  0  0  0  0  0
    3.7153  -45.9355  -19.0797 C   0  0  0  0  0  0  0  0  0  0  0  0
    3.8305  -45.8013  -20.4862 N   0  0  0  0  0  0  0  0  0  0  0  0
    4.3557  -44.5521  -21.0639 C   0  0  0  0  0  0  0  0  0  0  0  0
    5.4939  -44.1731  -20.0960 C   0  0  0  0  0  0  0  0  0  0  0  0
    3.4813  -46.8105  -21.3976 C   0  0  0  0  0  0  0  0  0  0  0  0
    3.6308  -46.5431  -22.6387 O   0  0  0  0  0  0  0  0  0  0  0  0
    6.5772  -42.8320  -18.4509 H   0  0  0  0  0  0  0  0  0  0  0  0
    5.2176  -42.1257  -17.6173 H   0  0  0  0  0  0  0  0  0  0  0  0
    1.4449  -51.8678  -20.1420 N   0  0  0  0  0  0  0  0  0  0  0  0
    1.6086  -52.2093  -19.1415 H   0  0  0  0  0  0  0  0  0  0  0  0
    0.6662  -52.6850  -20.9725 C   0  0  0  0  0  0  0  0  0  0  0  0
   -0.2325  -53.5878  -20.5716 N   0  0  0  0  0  0  0  0  0  0  0  0
   -0.9661  -54.3550  -21.3810 C   0  0  0  0  0  0  0  0  0  0  0  0
   -0.7633  -54.1854  -22.7522 C   0  0  0  0  0  0  0  0  0  0  0  0
    0.1501  -53.2696  -23.2272 C   0  0  0  0  0  0  0  0  0  0  0  0
    0.8406  -52.5439  -22.3251 N   0  0  0  0  0  0  0  0  0  0  0  0
    0.3655  -53.0907  -24.6575 C   0  0  0  0  0  0  0  0  0  0  0  0
    1.6481  -53.1002  -25.1637 C   0  0  0  0  0  0  0  0  0  0  0  0
    1.8611  -52.9298  -26.5218 C   0  0  0  0  0  0  0  0  0  0  0  0
    0.8084  -52.7490  -27.3876 C   0  0  0  0  0  0  0  0  0  0  0  0
    0.6962  -52.5554  -28.7711 O   0  0  0  0  0  0  0  0  0  0  0  0
   -0.6547  -52.7424  -29.1645 C   0  0  0  0  0  0  0  0  0  0  0  0
   -1.3752  -52.5415  -27.9409 O   0  0  0  0  0  0  0  0  0  0  0  0
   -0.4642  -52.7378  -26.8979 C   0  0  0  0  0  0  0  0  0  0  0  0
   -0.6636  -52.9094  -25.5369 C   0  0  0  0  0  0  0  0  0  0  0  0
  7  8  1  0  0  0
  8  9  1  0  0  0
  9 10  1  0  0  0
 10 11  1  0  0  0
 11 12  1  0  0  0
 12 13  1  0  0  0
 11 14  1  0  0  0
 14 15  2  0  0  0
 14  1  1  0  0  0
  1  2  2  0  0  0
  2  3  1  0  0  0
  3  4  2  0  0  0
  4 18  1  0  0  0
 18 20  1  0  0  0
 20 21  2  0  0  0
 21 22  1  0  0  0
 22 23  2  0  0  0
 23 24  1  0  0  0
 24 25  2  0  0  0
 24 26  1  0  0  0
 26 27  2  0  0  0
 27 28  1  0  0  0
 28 29  2  0  0  0
 29 30  1  0  0  0
 30 31  1  0  0  0
 31 32  1  0  0  0
 32 33  1  0  0  0
 33 34  2  0  0  0
  4  5  1  0  0  0
  5  6  2  0  0  0
 13  8  1  0  0  0
  6  1  1  0  0  0
 25 20  1  0  0  0
 34 26  1  0  0  0
 33 29  1  0  0  0
  7 16  1  0  0  0
  7 17  1  0  0  0
 18 19  1  0  0  0
M  END
> <minimizedAffinity>
-7.61029

> <CNNscore>
0.2232431173

> <CNNaffinity>
6.2028431892

> <CNN_VS>
1.3847420216

> <CNNaffinity_variance>
0.3342052698

$$$$
[H]c1nc(N([H])c2c([H])nc(C(=O)N3C([H])([H])C([H])([H])C([H])(N([H])[H])C([H])([H])C3([H])[H])c([H])c2[H])nc(-c2c([H])c([H])c3c(c2[H])OC([H])([H])O3)c1[H]


 34 38  0  0  0  0  0  0  0  0999 V2000
    0.5372  -52.4645  -22.0187 C   0  0  0  0  0  0  0  0  0  0  0  0
    1.0881  -52.1052  -20.8020 C   0  0  0  0  0  0  0  0  0  0  0  0
    0.4541  -52.4378  -19.6054 C   0  0  0  0  0  0  0  0  0  0  0  0
   -0.7239  -53.1257  -19.6462 C   0  0  0  0  0  0  0  0  0  0  0  0
   -1.2500  -53.4722  -20.8950 C   0  0  0  0  0  0  0  0  0  0  0  0
   -0.6188  -53.1392  -22.0180 N   0  0  0  0  0  0  0  0  0  0  0  0
   -0.1021  -53.5390  -28.4900 N   0  0  0  0  0  0  0  0  0  0  0  0
    0.5978  -53.4467  -27.2176 C   0  0  0  0  0  0  0  0  0  0  0  0
   -0.1270  -54.1995  -26.1510 C   0  0  0  0  0  0  0  0  0  0  0  0
    0.0311  -53.6725  -24.7864 C   0  0  0  0  0  0  0  0  0  0  0  0
    0.9792  -52.6520  -24.5232 N   0  0  0  0  0  0  0  0  0  0  0  0
    1.7820  -52.0937  -25.6250 C   0  0  0  0  0  0  0  0  0  0  0  0
    0.7699  -52.0099  -26.7846 C   0  0  0  0  0  0  0  0  0  0  0  0
    1.2068  -52.1080  -23.2491 C   0  0  0  0  0  0  0  0  0  0  0  0
    2.1009  -51.1986  -23.1620 O   0  0  0  0  0  0  0  0  0  0  0  0
   -0.1349  -52.5893  -28.9116 H   0  0  0  0  0  0  0  0  0  0  0  0
    0.3910  -54.2436  -29.0823 H   0  0  0  0  0  0  0  0  0  0  0  0
   -1.4551  -53.4813  -18.5237 N   0  0  0  0  0  0  0  0  0  0  0  0
   -1.8150  -54.4881  -18.4877 H   0  0  0  0  0  0  0  0  0  0  0  0
   -1.7627  -52.6575  -17.4326 C   0  0  0  0  0  0  0  0  0  0  0  0
   -2.8806  -52.6999  -16.7034 N   0  0  0  0  0  0  0  0  0  0  0  0
   -3.1525  -51.9062  -15.6651 C   0  0  0  0  0  0  0  0  0  0  0  0
   -2.1783  -50.9633  -15.3305 C   0  0  0  0  0  0  0  0  0  0  0  0
   -1.0040  -50.8709  -16.0454 C   0  0  0  0  0  0  0  0  0  0  0  0
   -0.8273  -51.7202  -17.0773 N   0  0  0  0  0  0  0  0  0  0  0  0
    0.0145  -49.8873  -15.7001 C   0  0  0  0  0  0  0  0  0  0  0  0
    0.8183  -49.3577  -16.6874 C   0  0  0  0  0  0  0  0  0  0  0  0
    1.7892  -48.4231  -16.3670 C   0  0  0  0  0  0  0  0  0  0  0  0
    1.9717  -48.0064  -15.0696 C   0  0  0  0  0  0  0  0  0  0  0  0
    2.8399  -47.1038  -14.4404 O   0  0  0  0  0  0  0  0  0  0  0  0
    2.3708  -46.8367  -13.1276 C   0  0  0  0  0  0  0  0  0  0  0  0
    1.5337  -47.9678  -12.8506 O   0  0  0  0  0  0  0  0  0  0  0  0
    1.1825  -48.5235  -14.0851 C   0  0  0  0  0  0  0  0  0  0  0  0
    0.2147  -49.4580  -14.4191 C   0  0  0  0  0  0  0  0  0  0  0  0
  7  8  1  0  0  0
  8  9  1  0  0  0
  9 10  1  0  0  0
 10 11  1  0  0  0
 11 12  1  0  0  0
 12 13  1  0  0  0
 11 14  1  0  0  0
 14 15  2  0  0  0
 14  1  1  0  0  0
  1  2  2  0  0  0
  2  3  1  0  0  0
  3  4  2  0  0  0
  4 18  1  0  0  0
 18 20  1  0  0  0
 20 21  2  0  0  0
 21 22  1  0  0  0
 22 23  2  0  0  0
 23 24  1  0  0  0
 24 25  2  0  0  0
 24 26  1  0  0  0
 26 27  2  0  0  0
 27 28  1  0  0  0
 28 29  2  0  0  0
 29 30  1  0  0  0
 30 31  1  0  0  0
 31 32  1  0  0  0
 32 33  1  0  0  0
 33 34  2  0  0  0
  4  5  1  0  0  0
  5  6  2  0  0  0
 13  8  1  0  0  0
  6  1  1  0  0  0
 25 20  1  0  0  0
 34 26  1  0  0  0
 33 29  1  0  0  0
  7 16  1  0  0  0
  7 17  1  0  0  0
 18 19  1  0  0  0
M  END
> <minimizedAffinity>
-7.61074

> <CNNscore>
0.2168439627

> <CNNaffinity>
6.4769887924

> <CNN_VS>
1.4044959545

> <CNNaffinity_variance>
0.1031858176

$$$$
[H]c1nc(N([H])c2c([H])nc(C(=O)N3C([H])([H])C([H])([H])C([H])(N([H])[H])C([H])([H])C3([H])[H])c([H])c2[H])nc(-c2c([H])c([H])c3c(c2[H])OC([H])([H])O3)c1[H]


 34 38  0  0  0  0  0  0  0  0999 V2000
    4.2053  -48.5116  -26.0112 C   0  0  0  0  0  0  0  0  0  0  0  0
    5.3961  -48.9788  -25.4854 C   0  0  0  0  0  0  0  0  0  0  0  0
    5.5316  -49.2053  -24.1162 C   0  0  0  0  0  0  0  0  0  0  0  0
    4.4707  -48.9594  -23.2937 C   0  0  0  0  0  0  0  0  0  0  0  0
    3.2827  -48.4881  -23.8617 C   0  0  0  0  0  0  0  0  0  0  0  0
    3.1872  -48.2829  -25.1729 N   0  0  0  0  0  0  0  0  0  0  0  0
    4.4911  -43.4654  -30.2415 N   0  0  0  0  0  0  0  0  0  0  0  0
    3.9423  -44.6732  -29.6437 C   0  0  0  0  0  0  0  0  0  0  0  0
    3.8419  -44.5393  -28.1599 C   0  0  0  0  0  0  0  0  0  0  0  0
    3.9737  -45.7933  -27.4016 C   0  0  0  0  0  0  0  0  0  0  0  0
    3.9823  -47.0378  -28.0804 N   0  0  0  0  0  0  0  0  0  0  0  0
    3.8950  -47.0728  -29.5505 C   0  0  0  0  0  0  0  0  0  0  0  0
    4.7789  -45.8851  -29.9795 C   0  0  0  0  0  0  0  0  0  0  0  0
    4.0843  -48.2793  -27.4327 C   0  0  0  0  0  0  0  0  0  0  0  0
    4.0700  -49.3196  -28.1754 O   0  0  0  0  0  0  0  0  0  0  0  0
    5.2116  -43.7460  -30.9362 H   0  0  0  0  0  0  0  0  0  0  0  0
    3.7024  -42.9188  -30.6533 H   0  0  0  0  0  0  0  0  0  0  0  0
    4.5017  -49.1189  -21.9172 N   0  0  0  0  0  0  0  0  0  0  0  0
    5.4668  -49.1002  -21.4561 H   0  0  0  0  0  0  0  0  0  0  0  0
    3.3975  -49.2950  -21.0724 C   0  0  0  0  0  0  0  0  0  0  0  0
    3.0566  -48.5105  -20.0469 N   0  0  0  0  0  0  0  0  0  0  0  0
    1.9976  -48.6956  -19.2555 C   0  0  0  0  0  0  0  0  0  0  0  0
    1.1950  -49.8027  -19.5384 C   0  0  0  0  0  0  0  0  0  0  0  0
    1.4951  -50.6491  -20.5835 C   0  0  0  0  0  0  0  0  0  0  0  0
    2.5881  -50.3731  -21.3226 N   0  0  0  0  0  0  0  0  0  0  0  0
    0.6606  -51.8064  -20.8810 C   0  0  0  0  0  0  0  0  0  0  0  0
   -0.1286  -52.3545  -19.8921 C   0  0  0  0  0  0  0  0  0  0  0  0
   -0.9237  -53.4550  -20.1668 C   0  0  0  0  0  0  0  0  0  0  0  0
   -0.9437  -54.0204  -21.4199 C   0  0  0  0  0  0  0  0  0  0  0  0
   -1.6189  -55.1038  -21.9984 O   0  0  0  0  0  0  0  0  0  0  0  0
   -1.4952  -55.0357  -23.4108 C   0  0  0  0  0  0  0  0  0  0  0  0
   -0.3375  -54.2087  -23.5912 O   0  0  0  0  0  0  0  0  0  0  0  0
   -0.1672  -53.4866  -22.4055 C   0  0  0  0  0  0  0  0  0  0  0  0
    0.6239  -52.3853  -22.1175 C   0  0  0  0  0  0  0  0  0  0  0  0
  7  8  1  0  0  0
  8  9  1  0  0  0
  9 10  1  0  0  0
 10 11  1  0  0  0
 11 12  1  0  0  0
 12 13  1  0  0  0
 11 14  1  0  0  0
 14 15  2  0  0  0
 14  1  1  0  0  0
  1  2  2  0  0  0
  2  3  1  0  0  0
  3  4  2  0  0  0
  4 18  1  0  0  0
 18 20  1  0  0  0
 20 21  2  0  0  0
 21 22  1  0  0  0
 22 23  2  0  0  0
 23 24  1  0  0  0
 24 25  2  0  0  0
 24 26  1  0  0  0
 26 27  2  0  0  0
 27 28  1  0  0  0
 28 29  2  0  0  0
 29 30  1  0  0  0
 30 31  1  0  0  0
 31 32  1  0  0  0
 32 33  1  0  0  0
 33 34  2  0  0  0
  4  5  1  0  0  0
  5  6  2  0  0  0
 13  8  1  0  0  0
  6  1  1  0  0  0
 25 20  1  0  0  0
 34 26  1  0  0  0
 33 29  1  0  0  0
  7 16  1  0  0  0
  7 17  1  0  0  0
 18 19  1  0  0  0
M  END
> <minimizedAffinity>
-7.12360

> <CNNscore>
0.2078989297

> <CNNaffinity>
6.0726461411

> <CNN_VS>
1.2624965906

> <CNNaffinity_variance>
0.3536116481

$$$$
[H]c1nc(N([H])c2c([H])nc(C(=O)N3C([H])([H])C([H])([H])C([H])(N([H])[H])C([H])([H])C3([H])[H])c([H])c2[H])nc(-c2c([H])c([H])c3c(c2[H])OC([H])([H])O3)c1[H]


 34 38  0  0  0  0  0  0  0  0999 V2000
    2.8542  -48.0086  -21.5726 C   0  0  0  0  0  0  0  0  0  0  0  0
    1.4991  -48.1418  -21.3298 C   0  0  0  0  0  0  0  0  0  0  0  0
    0.9627  -49.3651  -20.9297 C   0  0  0  0  0  0  0  0  0  0  0  0
    1.7931  -50.4377  -20.7793 C   0  0  0  0  0  0  0  0  0  0  0  0
    3.1575  -50.2645  -21.0333 C   0  0  0  0  0  0  0  0  0  0  0  0
    3.6366  -49.0829  -21.4135 N   0  0  0  0  0  0  0  0  0  0  0  0
    3.3851  -44.4272  -27.0802 N   0  0  0  0  0  0  0  0  0  0  0  0
    3.8419  -45.0506  -25.8472 C   0  0  0  0  0  0  0  0  0  0  0  0
    3.4544  -46.4920  -25.7996 C   0  0  0  0  0  0  0  0  0  0  0  0
    3.2236  -47.0404  -24.4539 C   0  0  0  0  0  0  0  0  0  0  0  0
    3.5612  -46.2782  -23.3073 N   0  0  0  0  0  0  0  0  0  0  0  0
    4.1108  -44.9205  -23.4640 C   0  0  0  0  0  0  0  0  0  0  0  0
    3.2869  -44.3447  -24.6327 C   0  0  0  0  0  0  0  0  0  0  0  0
    3.3920  -46.7335  -21.9901 C   0  0  0  0  0  0  0  0  0  0  0  0
    3.7497  -45.9385  -21.0552 O   0  0  0  0  0  0  0  0  0  0  0  0
    2.9544  -43.5120  -26.8405 H   0  0  0  0  0  0  0  0  0  0  0  0
    4.2010  -44.3497  -27.7273 H   0  0  0  0  0  0  0  0  0  0  0  0
    1.3664  -51.7057  -20.4169 N   0  0  0  0  0  0  0  0  0  0  0  0
    1.6047  -52.0238  -19.4237 H   0  0  0  0  0  0  0  0  0  0  0  0
    0.6509  -52.6059  -21.2177 C   0  0  0  0  0  0  0  0  0  0  0  0
   -0.1552  -53.5782  -20.7837 N   0  0  0  0  0  0  0  0  0  0  0  0
   -0.8302  -54.4243  -21.5651 C   0  0  0  0  0  0  0  0  0  0  0  0
   -0.6673  -54.2639  -22.9428 C   0  0  0  0  0  0  0  0  0  0  0  0
    0.1510  -53.2788  -23.4514 C   0  0  0  0  0  0  0  0  0  0  0  0
    0.7883  -52.4762  -22.5757 N   0  0  0  0  0  0  0  0  0  0  0  0
    0.3246  -53.1092  -24.8884 C   0  0  0  0  0  0  0  0  0  0  0  0
    1.5903  -53.1433  -25.4345 C   0  0  0  0  0  0  0  0  0  0  0  0
    1.7635  -52.9819  -26.7993 C   0  0  0  0  0  0  0  0  0  0  0  0
    0.6875  -52.7857  -27.6325 C   0  0  0  0  0  0  0  0  0  0  0  0
    0.5354  -52.5954  -29.0126 O   0  0  0  0  0  0  0  0  0  0  0  0
   -0.8303  -52.7599  -29.3628 C   0  0  0  0  0  0  0  0  0  0  0  0
   -1.5084  -52.5416  -28.1181 O   0  0  0  0  0  0  0  0  0  0  0  0
   -0.5687  -52.7501  -27.1033 C   0  0  0  0  0  0  0  0  0  0  0  0
   -0.7283  -52.9129  -25.7360 C   0  0  0  0  0  0  0  0  0  0  0  0
  7  8  1  0  0  0
  8  9  1  0  0  0
  9 10  1  0  0  0
 10 11  1  0  0  0
 11 12  1  0  0  0
 12 13  1  0  0  0
 11 14  1  0  0  0
 14 15  2  0  0  0
 14  1  1  0  0  0
  1  2  2  0  0  0
  2  3  1  0  0  0
  3  4  2  0  0  0
  4 18  1  0  0  0
 18 20  1  0  0  0
 20 21  2  0  0  0
 21 22  1  0  0  0
 22 23  2  0  0  0
 23 24  1  0  0  0
 24 25  2  0  0  0
 24 26  1  0  0  0
 26 27  2  0  0  0
 27 28  1  0  0  0
 28 29  2  0  0  0
 29 30  1  0  0  0
 30 31  1  0  0  0
 31 32  1  0  0  0
 32 33  1  0  0  0
 33 34  2  0  0  0
  4  5  1  0  0  0
  5  6  2  0  0  0
 13  8  1  0  0  0
  6  1  1  0  0  0
 25 20  1  0  0  0
 34 26  1  0  0  0
 33 29  1  0  0  0
  7 16  1  0  0  0
  7 17  1  0  0  0
 18 19  1  0  0  0
M  END
> <minimizedAffinity>
-8.51939

> <CNNscore>
0.2020852566

> <CNNaffinity>
6.4847993851

> <CNN_VS>
1.3104823828

> <CNNaffinity_variance>
0.2307956219

$$$$
[H]c1nc(N([H])c2c([H])nc(C(=O)N3C([H])([H])C([H])([H])C([H])(N([H])[H])C([H])([H])C3([H])[H])c([H])c2[H])nc(-c2c([H])c([H])c3c(c2[H])OC([H])([H])O3)c1[H]


 34 38  0  0  0  0  0  0  0  0999 V2000
    3.3488  -49.8651  -25.9716 C   0  0  0  0  0  0  0  0  0  0  0  0
    2.6280  -50.0055  -24.7996 C   0  0  0  0  0  0  0  0  0  0  0  0
    1.6371  -50.9797  -24.6836 C   0  0  0  0  0  0  0  0  0  0  0  0
    1.3828  -51.7989  -25.7451 C   0  0  0  0  0  0  0  0  0  0  0  0
    2.1324  -51.6273  -26.9134 C   0  0  0  0  0  0  0  0  0  0  0  0
    3.0712  -50.6876  -26.9905 N   0  0  0  0  0  0  0  0  0  0  0  0
    3.7654  -43.3459  -26.8482 N   0  0  0  0  0  0  0  0  0  0  0  0
    4.0945  -44.7447  -27.0775 C   0  0  0  0  0  0  0  0  0  0  0  0
    2.8603  -45.5580  -27.2902 C   0  0  0  0  0  0  0  0  0  0  0  0
    2.9475  -46.9630  -26.8619 C   0  0  0  0  0  0  0  0  0  0  0  0
    4.1959  -47.5135  -26.4772 N   0  0  0  0  0  0  0  0  0  0  0  0
    5.4014  -46.6669  -26.4724 C   0  0  0  0  0  0  0  0  0  0  0  0
    4.8805  -45.3234  -25.9249 C   0  0  0  0  0  0  0  0  0  0  0  0
    4.3699  -48.8473  -26.0749 C   0  0  0  0  0  0  0  0  0  0  0  0
    5.5571  -49.2054  -25.7645 O   0  0  0  0  0  0  0  0  0  0  0  0
    4.3283  -43.0083  -26.0422 H   0  0  0  0  0  0  0  0  0  0  0  0
    3.9433  -42.8205  -27.7330 H   0  0  0  0  0  0  0  0  0  0  0  0
    0.4026  -52.7788  -25.7529 N   0  0  0  0  0  0  0  0  0  0  0  0
    0.0153  -53.0590  -26.7099 H   0  0  0  0  0  0  0  0  0  0  0  0
   -0.1246  -53.4407  -24.6358 C   0  0  0  0  0  0  0  0  0  0  0  0
   -0.7658  -54.6121  -24.6437 N   0  0  0  0  0  0  0  0  0  0  0  0
   -1.2585  -55.2268  -23.5660 C   0  0  0  0  0  0  0  0  0  0  0  0
   -1.0792  -54.5775  -22.3427 C   0  0  0  0  0  0  0  0  0  0  0  0
   -0.4257  -53.3665  -22.2703 C   0  0  0  0  0  0  0  0  0  0  0  0
    0.0340  -52.8303  -23.4184 N   0  0  0  0  0  0  0  0  0  0  0  0
   -0.2380  -52.6852  -20.9957 C   0  0  0  0  0  0  0  0  0  0  0  0
    0.3925  -51.4594  -20.9604 C   0  0  0  0  0  0  0  0  0  0  0  0
    0.5756  -50.8061  -19.7527 C   0  0  0  0  0  0  0  0  0  0  0  0
    0.1372  -51.3599  -18.5731 C   0  0  0  0  0  0  0  0  0  0  0  0
    0.1699  -50.9631  -17.2294 O   0  0  0  0  0  0  0  0  0  0  0  0
   -0.7118  -51.7810  -16.4754 C   0  0  0  0  0  0  0  0  0  0  0  0
   -0.8488  -52.9475  -17.2984 O   0  0  0  0  0  0  0  0  0  0  0  0
   -0.4875  -52.5718  -18.5963 C   0  0  0  0  0  0  0  0  0  0  0  0
   -0.6645  -53.2150  -19.8114 C   0  0  0  0  0  0  0  0  0  0  0  0
  7  8  1  0  0  0
  8  9  1  0  0  0
  9 10  1  0  0  0
 10 11  1  0  0  0
 11 12  1  0  0  0
 12 13  1  0  0  0
 11 14  1  0  0  0
 14 15  2  0  0  0
 14  1  1  0  0  0
  1  2  2  0  0  0
  2  3  1  0  0  0
  3  4  2  0  0  0
  4 18  1  0  0  0
 18 20  1  0  0  0
 20 21  2  0  0  0
 21 22  1  0  0  0
 22 23  2  0  0  0
 23 24  1  0  0  0
 24 25  2  0  0  0
 24 26  1  0  0  0
 26 27  2  0  0  0
 27 28  1  0  0  0
 28 29  2  0  0  0
 29 30  1  0  0  0
 30 31  1  0  0  0
 31 32  1  0  0  0
 32 33  1  0  0  0
 33 34  2  0  0  0
  4  5  1  0  0  0
  5  6  2  0  0  0
 13  8  1  0  0  0
  6  1  1  0  0  0
 25 20  1  0  0  0
 34 26  1  0  0  0
 33 29  1  0  0  0
  7 16  1  0  0  0
  7 17  1  0  0  0
 18 19  1  0  0  0
M  END
> <minimizedAffinity>
-8.71415

> <CNNscore>
0.1735786647

> <CNNaffinity>
6.1385793686

> <CNN_VS>
1.0655263662

> <CNNaffinity_variance>
0.2412767410

$$$$
[H]c1nc(N([H])c2c([H])nc(C(=O)N3C([H])([H])C([H])([H])C([H])(N([H])[H])C([H])([H])C3([H])[H])c([H])c2[H])nc(-c2c([H])c([H])c3c(c2[H])OC([H])([H])O3)c1[H]


 34 38  0  0  0  0  0  0  0  0999 V2000
    3.3942  -48.1231  -22.3569 C   0  0  0  0  0  0  0  0  0  0  0  0
    3.5420  -49.4979  -22.3892 C   0  0  0  0  0  0  0  0  0  0  0  0
    2.5607  -50.3339  -21.8574 C   0  0  0  0  0  0  0  0  0  0  0  0
    1.4453  -49.7789  -21.3002 C   0  0  0  0  0  0  0  0  0  0  0  0
    1.3308  -48.3850  -21.2863 C   0  0  0  0  0  0  0  0  0  0  0  0
    2.2861  -47.6162  -21.8029 N   0  0  0  0  0  0  0  0  0  0  0  0
    9.2254  -45.6172  -20.5797 N   0  0  0  0  0  0  0  0  0  0  0  0
    7.8787  -45.5968  -21.1306 C   0  0  0  0  0  0  0  0  0  0  0  0
    6.9086  -46.2462  -20.1995 C   0  0  0  0  0  0  0  0  0  0  0  0
    5.7535  -46.8938  -20.8409 C   0  0  0  0  0  0  0  0  0  0  0  0
    5.5112  -46.7074  -22.2251 N   0  0  0  0  0  0  0  0  0  0  0  0
    6.4382  -45.8928  -23.0296 C   0  0  0  0  0  0  0  0  0  0  0  0
    7.8204  -46.2872  -22.4727 C   0  0  0  0  0  0  0  0  0  0  0  0
    4.4234  -47.2721  -22.9099 C   0  0  0  0  0  0  0  0  0  0  0  0
    4.3284  -47.0092  -24.1573 O   0  0  0  0  0  0  0  0  0  0  0  0
    9.8788  -45.9145  -21.3315 H   0  0  0  0  0  0  0  0  0  0  0  0
    9.4337  -44.6693  -20.1941 H   0  0  0  0  0  0  0  0  0  0  0  0
    0.4231  -50.5099  -20.7156 N   0  0  0  0  0  0  0  0  0  0  0  0
   -0.0785  -50.0525  -19.8889 H   0  0  0  0  0  0  0  0  0  0  0  0
   -0.0207  -51.7814  -21.1032 C   0  0  0  0  0  0  0  0  0  0  0  0
   -0.5322  -52.7168  -20.2989 N   0  0  0  0  0  0  0  0  0  0  0  0
   -0.9517  -53.9222  -20.6901 C   0  0  0  0  0  0  0  0  0  0  0  0
   -0.8385  -54.2089  -22.0521 C   0  0  0  0  0  0  0  0  0  0  0  0
   -0.3188  -53.2845  -22.9318 C   0  0  0  0  0  0  0  0  0  0  0  0
    0.0763  -52.0955  -22.4343 N   0  0  0  0  0  0  0  0  0  0  0  0
   -0.1977  -53.5806  -24.3537 C   0  0  0  0  0  0  0  0  0  0  0  0
   -0.1290  -54.8910  -24.7773 C   0  0  0  0  0  0  0  0  0  0  0  0
   -0.0129  -55.1805  -26.1269 C   0  0  0  0  0  0  0  0  0  0  0  0
    0.0361  -54.1773  -27.0658 C   0  0  0  0  0  0  0  0  0  0  0  0
    0.1475  -54.1432  -28.4624 O   0  0  0  0  0  0  0  0  0  0  0  0
   -0.1693  -52.8403  -28.9283 C   0  0  0  0  0  0  0  0  0  0  0  0
    0.0357  -52.0261  -27.7656 O   0  0  0  0  0  0  0  0  0  0  0  0
   -0.0310  -52.8777  -26.6582 C   0  0  0  0  0  0  0  0  0  0  0  0
   -0.1470  -52.6017  -25.3047 C   0  0  0  0  0  0  0  0  0  0  0  0
  7  8  1  0  0  0
  8  9  1  0  0  0
  9 10  1  0  0  0
 10 11  1  0  0  0
 11 12  1  0  0  0
 12 13  1  0  0  0
 11 14  1  0  0  0
 14 15  2  0  0  0
 14  1  1  0  0  0
  1  2  2  0  0  0
  2  3  1  0  0  0
  3  4  2  0  0  0
  4 18  1  0  0  0
 18 20  1  0  0  0
 20 21  2  0  0  0
 21 22  1  0  0  0
 22 23  2  0  0  0
 23 24  1  0  0  0
 24 25  2  0  0  0
 24 26  1  0  0  0
 26 27  2  0  0  0
 27 28  1  0  0  0
 28 29  2  0  0  0
 29 30  1  0  0  0
 30 31  1  0  0  0
 31 32  1  0  0  0
 32 33  1  0  0  0
 33 34  2  0  0  0
  4  5  1  0  0  0
  5  6  2  0  0  0
 13  8  1  0  0  0
  6  1  1  0  0  0
 25 20  1  0  0  0
 34 26  1  0  0  0
 33 29  1  0  0  0
  7 16  1  0  0  0
  7 17  1  0  0  0
 18 19  1  0  0  0
M  END
> <minimizedAffinity>
-7.26984

> <CNNscore>
0.1511480361

> <CNNaffinity>
6.1612071991

> <CNN_VS>
0.9312543869

> <CNNaffinity_variance>
0.1187546253

$$$$
[H]c1nc(N([H])c2c([H])nc(C(=O)N3C([H])([H])C([H])([H])C([H])(N([H])[H])C([H])([H])C3([H])[H])c([H])c2[H])nc(-c2c([H])c([H])c3c(c2[H])OC([H])([H])O3)c1[H]


 34 38  0  0  0  0  0  0  0  0999 V2000
    4.1842  -50.3553  -25.0286 C   0  0  0  0  0  0  0  0  0  0  0  0
    2.9883  -49.8103  -25.4596 C   0  0  0  0  0  0  0  0  0  0  0  0
    1.8550  -50.6080  -25.6140 C   0  0  0  0  0  0  0  0  0  0  0  0
    1.9375  -51.9413  -25.3343 C   0  0  0  0  0  0  0  0  0  0  0  0
    3.1634  -52.4562  -24.9003 C   0  0  0  0  0  0  0  0  0  0  0  0
    4.2256  -51.6666  -24.7634 N   0  0  0  0  0  0  0  0  0  0  0  0
    8.8326  -49.1021  -20.5272 N   0  0  0  0  0  0  0  0  0  0  0  0
    7.8158  -48.7808  -21.5172 C   0  0  0  0  0  0  0  0  0  0  0  0
    6.5547  -49.5363  -21.2553 C   0  0  0  0  0  0  0  0  0  0  0  0
    5.7486  -49.8528  -22.4448 C   0  0  0  0  0  0  0  0  0  0  0  0
    6.0765  -49.2802  -23.6995 N   0  0  0  0  0  0  0  0  0  0  0  0
    7.2479  -48.3951  -23.8189 C   0  0  0  0  0  0  0  0  0  0  0  0
    8.2945  -49.0801  -22.9181 C   0  0  0  0  0  0  0  0  0  0  0  0
    5.3496  -49.5136  -24.8777 C   0  0  0  0  0  0  0  0  0  0  0  0
    5.7583  -48.9210  -25.9340 O   0  0  0  0  0  0  0  0  0  0  0  0
    9.7306  -49.2637  -21.0254 H   0  0  0  0  0  0  0  0  0  0  0  0
    8.8719  -48.3208  -19.8356 H   0  0  0  0  0  0  0  0  0  0  0  0
    0.8861  -52.8323  -25.4811 N   0  0  0  0  0  0  0  0  0  0  0  0
    0.6049  -53.0777  -26.4836 H   0  0  0  0  0  0  0  0  0  0  0  0
    0.1621  -53.4460  -24.4500 C   0  0  0  0  0  0  0  0  0  0  0  0
   -0.5992  -54.5374  -24.5629 N   0  0  0  0  0  0  0  0  0  0  0  0
   -1.2792  -55.1076  -23.5657 C   0  0  0  0  0  0  0  0  0  0  0  0
   -1.1735  -54.4999  -22.3129 C   0  0  0  0  0  0  0  0  0  0  0  0
   -0.4032  -53.3716  -22.1334 C   0  0  0  0  0  0  0  0  0  0  0  0
    0.2440  -52.8746  -23.2064 N   0  0  0  0  0  0  0  0  0  0  0  0
   -0.2914  -52.7338  -20.8277 C   0  0  0  0  0  0  0  0  0  0  0  0
    0.4548  -51.5826  -20.6891 C   0  0  0  0  0  0  0  0  0  0  0  0
    0.5666  -50.9711  -19.4512 C   0  0  0  0  0  0  0  0  0  0  0  0
   -0.0579  -51.4932  -18.3433 C   0  0  0  0  0  0  0  0  0  0  0  0
   -0.1368  -51.1228  -16.9939 O   0  0  0  0  0  0  0  0  0  0  0  0
   -1.1785  -51.8538  -16.3652 C   0  0  0  0  0  0  0  0  0  0  0  0
   -1.3417  -52.9864  -17.2298 O   0  0  0  0  0  0  0  0  0  0  0  0
   -0.7985  -52.6313  -18.4688 C   0  0  0  0  0  0  0  0  0  0  0  0
   -0.9023  -53.2334  -19.7131 C   0  0  0  0  0  0  0  0  0  0  0  0
  7  8  1  0  0  0
  8  9  1  0  0  0
  9 10  1  0  0  0
 10 11  1  0  0  0
 11 12  1  0  0  0
 12 13  1  0  0  0
 11 14  1  0  0  0
 14 15  2  0  0  0
 14  1  1  0  0  0
  1  2  2  0  0  0
  2  3  1  0  0  0
  3  4  2  0  0  0
  4 18  1  0  0  0
 18 20  1  0  0  0
 20 21  2  0  0  0
 21 22  1  0  0  0
 22 23  2  0  0  0
 23 24  1  0  0  0
 24 25  2  0  0  0
 24 26  1  0  0  0
 26 27  2  0  0  0
 27 28  1  0  0  0
 28 29  2  0  0  0
 29 30  1  0  0  0
 30 31  1  0  0  0
 31 32  1  0  0  0
 32 33  1  0  0  0
 33 34  2  0  0  0
  4  5  1  0  0  0
  5  6  2  0  0  0
 13  8  1  0  0  0
  6  1  1  0  0  0
 25 20  1  0  0  0
 34 26  1  0  0  0
 33 29  1  0  0  0
  7 16  1  0  0  0
  7 17  1  0  0  0
 18 19  1  0  0  0
M  END
> <minimizedAffinity>
-7.96364

> <CNNscore>
0.1409822553

> <CNNaffinity>
6.2185602188

> <CNN_VS>
0.8767066598

> <CNNaffinity_variance>
0.2252833098

$$$$
[H]c1nn2c(C([H])([H])[H])c([H])c(C([H])([H])[H])c(N([H])c3c([H])c([H])c(C4([H])C([H])([H])C([H])([H])N([H])C([H])([H])C4([H])[H])c([H])c3[H])c2c1N1C([H])([H])C([H])([H])C2([H])N([H])C1([H])C([H])([H])C2([H])[H]


 35 40  0  0  0  0  0  0  0  0999 V2000
   -0.1286  -48.2572  -22.5394 C   0  0  0  0  0  0  0  0  0  0  0  0
    0.8921  -48.7749  -21.5975 C   0  0  0  0  0  0  0  0  0  0  0  0
    0.9704  -48.3015  -20.2899 C   0  0  0  0  0  0  0  0  0  0  0  0
    1.9303  -48.8091  -19.4579 C   0  0  0  0  0  0  0  0  0  0  0  0
    2.0316  -48.3237  -18.0692 C   0  0  0  0  0  0  0  0  0  0  0  0
    2.7828  -49.7522  -19.9075 N   0  0  0  0  0  0  0  0  0  0  0  0
    3.7972  -50.3530  -19.2837 N   0  0  0  0  0  0  0  0  0  0  0  0
    4.3993  -51.1962  -20.0965 C   0  0  0  0  0  0  0  0  0  0  0  0
    3.7218  -51.1420  -21.3533 C   0  0  0  0  0  0  0  0  0  0  0  0
    2.7141  -50.2251  -21.1920 C   0  0  0  0  0  0  0  0  0  0  0  0
    1.7642  -49.7417  -22.0572 C   0  0  0  0  0  0  0  0  0  0  0  0
    4.1112  -51.9316  -22.4390 N   0  0  0  0  0  0  0  0  0  0  0  0
    4.0895  -53.3585  -22.4516 C   0  0  0  0  0  0  0  0  0  0  0  0
    3.7185  -53.9023  -23.8075 C   0  0  0  0  0  0  0  0  0  0  0  0
    5.0333  -54.0966  -24.5090 C   0  0  0  0  0  0  0  0  0  0  0  0
    6.0421  -53.3844  -23.5973 C   0  0  0  0  0  0  0  0  0  0  0  0
    5.5289  -53.7311  -22.3104 N   0  0  0  0  0  0  0  0  0  0  0  0
    5.9951  -51.9386  -23.9662 C   0  0  0  0  0  0  0  0  0  0  0  0
    4.6479  -51.2908  -23.6350 C   0  0  0  0  0  0  0  0  0  0  0  0
    5.6129  -54.7434  -22.1856 H   0  0  0  0  0  0  0  0  0  0  0  0
    1.6257  -50.1350  -23.3873 N   0  0  0  0  0  0  0  0  0  0  0  0
    1.0605  -50.9824  -23.6009 H   0  0  0  0  0  0  0  0  0  0  0  0
    2.2148  -49.4416  -24.4841 C   0  0  0  0  0  0  0  0  0  0  0  0
    2.6081  -50.1707  -25.5774 C   0  0  0  0  0  0  0  0  0  0  0  0
    3.1945  -49.5782  -26.7000 C   0  0  0  0  0  0  0  0  0  0  0  0
    3.3892  -48.2182  -26.7214 C   0  0  0  0  0  0  0  0  0  0  0  0
    2.9928  -47.4949  -25.6230 C   0  0  0  0  0  0  0  0  0  0  0  0
    2.4142  -48.0809  -24.5160 C   0  0  0  0  0  0  0  0  0  0  0  0
    4.0088  -47.5831  -27.9050 C   0  0  0  0  0  0  0  0  0  0  0  0
    5.2071  -48.4099  -28.3853 C   0  0  0  0  0  0  0  0  0  0  0  0
    5.6061  -47.9356  -29.7501 C   0  0  0  0  0  0  0  0  0  0  0  0
    5.2356  -46.5629  -29.9358 N   0  0  0  0  0  0  0  0  0  0  0  0
    5.4136  -45.7583  -28.7453 C   0  0  0  0  0  0  0  0  0  0  0  0
    4.5482  -46.1972  -27.6006 C   0  0  0  0  0  0  0  0  0  0  0  0
    4.3252  -46.4216  -30.3959 H   0  0  0  0  0  0  0  0  0  0  0  0
  1  2  1  0  0  0
  2  3  1  0  0  0
  3  4  2  0  0  0
  4  5  1  0  0  0
  4  6  1  0  0  0
  6  7  1  0  0  0
  7  8  2  0  0  0
  8  9  1  0  0  0
  9 12  1  0  0  0
 12 13  1  0  0  0
 13 14  1  0  0  0
 14 15  1  0  0  0
 15 16  1  0  0  0
 16 17  1  0  0  0
 16 18  1  0  0  0
 18 19  1  0  0  0
  9 10  2  0  0  0
 10 11  1  0  0  0
 11 21  1  0  0  0
 21 23  1  0  0  0
 23 24  2  0  0  0
 24 25  1  0  0  0
 25 26  2  0  0  0
 26 27  1  0  0  0
 27 28  2  0  0  0
 26 29  1  0  0  0
 29 30  1  0  0  0
 30 31  1  0  0  0
 31 32  1  0  0  0
 32 33  1  0  0  0
 33 34  1  0  0  0
 11  2  2  0  0  0
 28 23  1  0  0  0
 34 29  1  0  0  0
 10  6  1  0  0  0
 19 12  1  0  0  0
 17 13  1  0  0  0
 17 20  1  0  0  0
 21 22  1  0  0  0
 32 35  1  0  0  0
M  END
> <minimizedAffinity>
10.24030

> <CNNscore>
0.3954211473

> <CNNaffinity>
6.1646785736

> <CNN_VS>
2.4376442432

> <CNNaffinity_variance>
1.1058403254

$$$$
[H]c1nn2c(C([H])([H])[H])c([H])c(C([H])([H])[H])c(N([H])c3c([H])c([H])c(C4([H])C([H])([H])C([H])([H])N([H])C([H])([H])C4([H])[H])c([H])c3[H])c2c1N1C([H])([H])C([H])([H])C2([H])N([H])C1([H])C([H])([H])C2([H])[H]


 35 40  0  0  0  0  0  0  0  0999 V2000
   -1.0070  -54.1888  -23.0390 C   0  0  0  0  0  0  0  0  0  0  0  0
   -0.3581  -53.4382  -24.1402 C   0  0  0  0  0  0  0  0  0  0  0  0
   -0.9662  -53.3223  -25.3879 C   0  0  0  0  0  0  0  0  0  0  0  0
   -0.3278  -52.6204  -26.3734 C   0  0  0  0  0  0  0  0  0  0  0  0
   -0.9529  -52.4836  -27.7019 C   0  0  0  0  0  0  0  0  0  0  0  0
    0.8716  -52.0543  -26.1298 N   0  0  0  0  0  0  0  0  0  0  0  0
    1.6698  -51.3622  -26.9440 N   0  0  0  0  0  0  0  0  0  0  0  0
    2.7722  -51.0115  -26.3147 C   0  0  0  0  0  0  0  0  0  0  0  0
    2.6859  -51.5152  -24.9805 C   0  0  0  0  0  0  0  0  0  0  0  0
    1.4783  -52.1620  -24.9057 C   0  0  0  0  0  0  0  0  0  0  0  0
    0.8693  -52.8572  -23.8906 C   0  0  0  0  0  0  0  0  0  0  0  0
    3.7005  -51.3043  -24.0423 N   0  0  0  0  0  0  0  0  0  0  0  0
    3.8797  -50.0983  -23.3006 C   0  0  0  0  0  0  0  0  0  0  0  0
    4.3749  -50.3674  -21.9027 C   0  0  0  0  0  0  0  0  0  0  0  0
    5.8724  -50.3076  -22.0146 C   0  0  0  0  0  0  0  0  0  0  0  0
    6.1246  -50.2842  -23.5286 C   0  0  0  0  0  0  0  0  0  0  0  0
    5.0502  -49.4504  -23.9646 N   0  0  0  0  0  0  0  0  0  0  0  0
    6.0915  -51.7060  -23.9827 C   0  0  0  0  0  0  0  0  0  0  0  0
    4.7062  -52.3400  -23.8297 C   0  0  0  0  0  0  0  0  0  0  0  0
    5.1878  -48.5112  -23.5821 H   0  0  0  0  0  0  0  0  0  0  0  0
    1.4109  -53.0481  -22.6204 N   0  0  0  0  0  0  0  0  0  0  0  0
    1.9542  -53.9161  -22.4349 H   0  0  0  0  0  0  0  0  0  0  0  0
    1.2666  -52.1189  -21.5496 C   0  0  0  0  0  0  0  0  0  0  0  0
    1.7798  -52.4567  -20.3232 C   0  0  0  0  0  0  0  0  0  0  0  0
    1.6868  -51.6099  -19.2145 C   0  0  0  0  0  0  0  0  0  0  0  0
    1.0616  -50.3932  -19.3447 C   0  0  0  0  0  0  0  0  0  0  0  0
    0.5504  -50.0620  -20.5759 C   0  0  0  0  0  0  0  0  0  0  0  0
    0.6430  -50.8986  -21.6691 C   0  0  0  0  0  0  0  0  0  0  0  0
    0.9588  -49.4912  -18.1769 C   0  0  0  0  0  0  0  0  0  0  0  0
    2.3422  -49.2657  -17.5561 C   0  0  0  0  0  0  0  0  0  0  0  0
    2.2615  -48.1144  -16.5998 C   0  0  0  0  0  0  0  0  0  0  0  0
    0.9309  -47.9800  -16.0828 N   0  0  0  0  0  0  0  0  0  0  0  0
    0.2856  -49.2517  -15.8319 C   0  0  0  0  0  0  0  0  0  0  0  0
    0.0917  -50.0710  -17.0740 C   0  0  0  0  0  0  0  0  0  0  0  0
    0.3370  -47.3104  -16.5922 H   0  0  0  0  0  0  0  0  0  0  0  0
  1  2  1  0  0  0
  2  3  1  0  0  0
  3  4  2  0  0  0
  4  5  1  0  0  0
  4  6  1  0  0  0
  6  7  1  0  0  0
  7  8  2  0  0  0
  8  9  1  0  0  0
  9 12  1  0  0  0
 12 13  1  0  0  0
 13 14  1  0  0  0
 14 15  1  0  0  0
 15 16  1  0  0  0
 16 17  1  0  0  0
 16 18  1  0  0  0
 18 19  1  0  0  0
  9 10  2  0  0  0
 10 11  1  0  0  0
 11 21  1  0  0  0
 21 23  1  0  0  0
 23 24  2  0  0  0
 24 25  1  0  0  0
 25 26  2  0  0  0
 26 27  1  0  0  0
 27 28  2  0  0  0
 26 29  1  0  0  0
 29 30  1  0  0  0
 30 31  1  0  0  0
 31 32  1  0  0  0
 32 33  1  0  0  0
 33 34  1  0  0  0
 11  2  2  0  0  0
 28 23  1  0  0  0
 34 29  1  0  0  0
 10  6  1  0  0  0
 19 12  1  0  0  0
 17 13  1  0  0  0
 17 20  1  0  0  0
 21 22  1  0  0  0
 32 35  1  0  0  0
M  END
> <minimizedAffinity>
-7.76359

> <CNNscore>
0.3017426431

> <CNNaffinity>
6.9573621750

> <CNN_VS>
2.0993328094

> <CNNaffinity_variance>
0.1127112880

$$$$
[H]c1nn2c(C([H])([H])[H])c([H])c(C([H])([H])[H])c(N([H])c3c([H])c([H])c(C4([H])C([H])([H])C([H])([H])N([H])C([H])([H])C4([H])[H])c([H])c3[H])c2c1N1C([H])([H])C([H])([H])C2([H])N([H])C1([H])C([H])([H])C2([H])[H]


 35 40  0  0  0  0  0  0  0  0999 V2000
    2.3424  -51.6698  -29.9189 C   0  0  0  0  0  0  0  0  0  0  0  0
    1.0702  -52.4263  -29.9979 C   0  0  0  0  0  0  0  0  0  0  0  0
    0.7733  -53.2211  -31.1026 C   0  0  0  0  0  0  0  0  0  0  0  0
   -0.4142  -53.8997  -31.1305 C   0  0  0  0  0  0  0  0  0  0  0  0
   -0.7497  -54.7479  -32.2891 C   0  0  0  0  0  0  0  0  0  0  0  0
   -1.2767  -53.7928  -30.0995 N   0  0  0  0  0  0  0  0  0  0  0  0
   -2.4841  -54.3360  -29.9371 N   0  0  0  0  0  0  0  0  0  0  0  0
   -3.0090  -53.9503  -28.7925 C   0  0  0  0  0  0  0  0  0  0  0  0
   -2.0668  -53.0855  -28.1556 C   0  0  0  0  0  0  0  0  0  0  0  0
   -0.9942  -53.0140  -29.0079 C   0  0  0  0  0  0  0  0  0  0  0  0
    0.1875  -52.3183  -28.9417 C   0  0  0  0  0  0  0  0  0  0  0  0
   -2.3176  -52.5081  -26.9075 N   0  0  0  0  0  0  0  0  0  0  0  0
   -2.3612  -51.1035  -26.6592 C   0  0  0  0  0  0  0  0  0  0  0  0
   -3.3974  -50.7484  -25.6237 C   0  0  0  0  0  0  0  0  0  0  0  0
   -2.6514  -50.7726  -24.3193 C   0  0  0  0  0  0  0  0  0  0  0  0
   -1.3046  -51.4140  -24.6810 C   0  0  0  0  0  0  0  0  0  0  0  0
   -1.0680  -50.8314  -25.9632 N   0  0  0  0  0  0  0  0  0  0  0  0
   -1.5200  -52.8910  -24.6494 C   0  0  0  0  0  0  0  0  0  0  0  0
   -2.4826  -53.3682  -25.7403 C   0  0  0  0  0  0  0  0  0  0  0  0
   -0.9440  -49.8222  -25.8472 H   0  0  0  0  0  0  0  0  0  0  0  0
    0.5595  -51.4801  -27.8920 N   0  0  0  0  0  0  0  0  0  0  0  0
    0.1226  -50.5378  -27.8269 H   0  0  0  0  0  0  0  0  0  0  0  0
    1.5097  -51.8368  -26.8916 C   0  0  0  0  0  0  0  0  0  0  0  0
    2.1101  -50.8308  -26.1781 C   0  0  0  0  0  0  0  0  0  0  0  0
    3.0534  -51.0836  -25.1775 C   0  0  0  0  0  0  0  0  0  0  0  0
    3.4001  -52.3815  -24.8888 C   0  0  0  0  0  0  0  0  0  0  0  0
    2.7947  -53.3834  -25.6075 C   0  0  0  0  0  0  0  0  0  0  0  0
    1.8639  -53.1324  -26.5946 C   0  0  0  0  0  0  0  0  0  0  0  0
    4.3972  -52.6580  -23.8317 C   0  0  0  0  0  0  0  0  0  0  0  0
    3.6961  -52.9009  -22.4903 C   0  0  0  0  0  0  0  0  0  0  0  0
    4.6829  -53.4907  -21.5285 C   0  0  0  0  0  0  0  0  0  0  0  0
    6.0183  -53.0950  -21.8693 N   0  0  0  0  0  0  0  0  0  0  0  0
    6.1055  -51.7283  -22.3394 C   0  0  0  0  0  0  0  0  0  0  0  0
    5.3408  -51.4900  -23.6084 C   0  0  0  0  0  0  0  0  0  0  0  0
    6.5285  -53.7669  -22.4599 H   0  0  0  0  0  0  0  0  0  0  0  0
  1  2  1  0  0  0
  2  3  1  0  0  0
  3  4  2  0  0  0
  4  5  1  0  0  0
  4  6  1  0  0  0
  6  7  1  0  0  0
  7  8  2  0  0  0
  8  9  1  0  0  0
  9 12  1  0  0  0
 12 13  1  0  0  0
 13 14  1  0  0  0
 14 15  1  0  0  0
 15 16  1  0  0  0
 16 17  1  0  0  0
 16 18  1  0  0  0
 18 19  1  0  0  0
  9 10  2  0  0  0
 10 11  1  0  0  0
 11 21  1  0  0  0
 21 23  1  0  0  0
 23 24  2  0  0  0
 24 25  1  0  0  0
 25 26  2  0  0  0
 26 27  1  0  0  0
 27 28  2  0  0  0
 26 29  1  0  0  0
 29 30  1  0  0  0
 30 31  1  0  0  0
 31 32  1  0  0  0
 32 33  1  0  0  0
 33 34  1  0  0  0
 11  2  2  0  0  0
 28 23  1  0  0  0
 34 29  1  0  0  0
 10  6  1  0  0  0
 19 12  1  0  0  0
 17 13  1  0  0  0
 17 20  1  0  0  0
 21 22  1  0  0  0
 32 35  1  0  0  0
M  END
> <minimizedAffinity>
35.53474

> <CNNscore>
0.2516821921

> <CNNaffinity>
6.1117148399

> <CNN_VS>
1.5382097960

> <CNNaffinity_variance>
0.2577508092

$$$$
[H]c1nn2c(C([H])([H])[H])c([H])c(C([H])([H])[H])c(N([H])c3c([H])c([H])c(C4([H])C([H])([H])C([H])([H])N([H])C([H])([H])C4([H])[H])c([H])c3[H])c2c1N1C([H])([H])C([H])([H])C2([H])N([H])C1([H])C([H])([H])C2([H])[H]


 35 40  0  0  0  0  0  0  0  0999 V2000
   -0.6235  -54.0923  -22.4085 C   0  0  0  0  0  0  0  0  0  0  0  0
   -0.1562  -53.2741  -23.5528 C   0  0  0  0  0  0  0  0  0  0  0  0
   -0.8782  -53.2229  -24.7429 C   0  0  0  0  0  0  0  0  0  0  0  0
   -0.4062  -52.4544  -25.7715 C   0  0  0  0  0  0  0  0  0  0  0  0
   -1.1541  -52.3841  -27.0404 C   0  0  0  0  0  0  0  0  0  0  0  0
    0.7416  -51.7621  -25.6248 N   0  0  0  0  0  0  0  0  0  0  0  0
    1.3877  -50.9862  -26.4966 N   0  0  0  0  0  0  0  0  0  0  0  0
    2.4957  -50.5191  -25.9596 C   0  0  0  0  0  0  0  0  0  0  0  0
    2.5791  -51.0312  -24.6285 C   0  0  0  0  0  0  0  0  0  0  0  0
    1.4593  -51.8052  -24.4582 C   0  0  0  0  0  0  0  0  0  0  0  0
    1.0182  -52.5639  -23.4024 C   0  0  0  0  0  0  0  0  0  0  0  0
    3.6419  -50.7131  -23.7780 N   0  0  0  0  0  0  0  0  0  0  0  0
    4.7776  -51.5477  -23.5541 C   0  0  0  0  0  0  0  0  0  0  0  0
    6.0372  -50.7422  -23.3632 C   0  0  0  0  0  0  0  0  0  0  0  0
    6.1277  -50.5292  -21.8783 C   0  0  0  0  0  0  0  0  0  0  0  0
    4.7600  -50.9936  -21.3589 C   0  0  0  0  0  0  0  0  0  0  0  0
    4.5260  -52.1243  -22.1995 N   0  0  0  0  0  0  0  0  0  0  0  0
    3.8318  -49.8362  -21.5248 C   0  0  0  0  0  0  0  0  0  0  0  0
    3.5892  -49.4831  -22.9947 C   0  0  0  0  0  0  0  0  0  0  0  0
    5.2291  -52.8383  -21.9920 H   0  0  0  0  0  0  0  0  0  0  0  0
    1.6843  -52.6969  -22.1851 N   0  0  0  0  0  0  0  0  0  0  0  0
    2.6171  -53.1583  -22.1745 H   0  0  0  0  0  0  0  0  0  0  0  0
    1.1629  -52.2349  -20.9419 C   0  0  0  0  0  0  0  0  0  0  0  0
    0.8940  -50.8965  -20.8078 C   0  0  0  0  0  0  0  0  0  0  0  0
    0.3807  -50.3515  -19.6270 C   0  0  0  0  0  0  0  0  0  0  0  0
    0.1322  -51.1750  -18.5554 C   0  0  0  0  0  0  0  0  0  0  0  0
    0.4040  -52.5139  -18.6973 C   0  0  0  0  0  0  0  0  0  0  0  0
    0.9105  -53.0504  -19.8632 C   0  0  0  0  0  0  0  0  0  0  0  0
   -0.4109  -50.6066  -17.3023 C   0  0  0  0  0  0  0  0  0  0  0  0
    0.4993  -49.4847  -16.7894 C   0  0  0  0  0  0  0  0  0  0  0  0
   -0.2278  -48.7209  -15.7242 C   0  0  0  0  0  0  0  0  0  0  0  0
   -1.2000  -49.5548  -15.0795 N   0  0  0  0  0  0  0  0  0  0  0  0
   -0.7486  -50.9181  -14.8943 C   0  0  0  0  0  0  0  0  0  0  0  0
   -0.4835  -51.6334  -16.1865 C   0  0  0  0  0  0  0  0  0  0  0  0
   -2.1514  -49.4852  -15.4674 H   0  0  0  0  0  0  0  0  0  0  0  0
  1  2  1  0  0  0
  2  3  1  0  0  0
  3  4  2  0  0  0
  4  5  1  0  0  0
  4  6  1  0  0  0
  6  7  1  0  0  0
  7  8  2  0  0  0
  8  9  1  0  0  0
  9 12  1  0  0  0
 12 13  1  0  0  0
 13 14  1  0  0  0
 14 15  1  0  0  0
 15 16  1  0  0  0
 16 17  1  0  0  0
 16 18  1  0  0  0
 18 19  1  0  0  0
  9 10  2  0  0  0
 10 11  1  0  0  0
 11 21  1  0  0  0
 21 23  1  0  0  0
 23 24  2  0  0  0
 24 25  1  0  0  0
 25 26  2  0  0  0
 26 27  1  0  0  0
 27 28  2  0  0  0
 26 29  1  0  0  0
 29 30  1  0  0  0
 30 31  1  0  0  0
 31 32  1  0  0  0
 32 33  1  0  0  0
 33 34  1  0  0  0
 11  2  2  0  0  0
 28 23  1  0  0  0
 34 29  1  0  0  0
 10  6  1  0  0  0
 19 12  1  0  0  0
 17 13  1  0  0  0
 17 20  1  0  0  0
 21 22  1  0  0  0
 32 35  1  0  0  0
M  END
> <minimizedAffinity>
-7.55517

> <CNNscore>
0.2347698957

> <CNNaffinity>
6.8599944115

> <CNN_VS>
1.6105201244

> <CNNaffinity_variance>
0.0675478876

$$$$
[H]c1nn2c(C([H])([H])[H])c([H])c(C([H])([H])[H])c(N([H])c3c([H])c([H])c(C4([H])C([H])([H])C([H])([H])N([H])C([H])([H])C4([H])[H])c([H])c3[H])c2c1N1C([H])([H])C([H])([H])C2([H])N([H])C1([H])C([H])([H])C2([H])[H]


 35 40  0  0  0  0  0  0  0  0999 V2000
   -1.6106  -51.7217  -25.9550 C   0  0  0  0  0  0  0  0  0  0  0  0
   -0.2403  -52.1842  -26.2798 C   0  0  0  0  0  0  0  0  0  0  0  0
   -0.0065  -53.0468  -27.3481 C   0  0  0  0  0  0  0  0  0  0  0  0
    1.2755  -53.4470  -27.6082 C   0  0  0  0  0  0  0  0  0  0  0  0
    1.5472  -54.3591  -28.7345 C   0  0  0  0  0  0  0  0  0  0  0  0
    2.2894  -53.0077  -26.8353 N   0  0  0  0  0  0  0  0  0  0  0  0
    3.5913  -53.2920  -26.8925 N   0  0  0  0  0  0  0  0  0  0  0  0
    4.2378  -52.6722  -25.9269 C   0  0  0  0  0  0  0  0  0  0  0  0
    3.2795  -51.9214  -25.1791 C   0  0  0  0  0  0  0  0  0  0  0  0
    2.0703  -52.1586  -25.7821 C   0  0  0  0  0  0  0  0  0  0  0  0
    0.7982  -51.7333  -25.4895 C   0  0  0  0  0  0  0  0  0  0  0  0
    3.6466  -51.1365  -24.0821 N   0  0  0  0  0  0  0  0  0  0  0  0
    3.9482  -49.7432  -24.1481 C   0  0  0  0  0  0  0  0  0  0  0  0
    3.4842  -49.0095  -22.9159 C   0  0  0  0  0  0  0  0  0  0  0  0
    4.6688  -49.0374  -21.9914 C   0  0  0  0  0  0  0  0  0  0  0  0
    5.6299  -50.0303  -22.6596 C   0  0  0  0  0  0  0  0  0  0  0  0
    5.4369  -49.7023  -24.0362 N   0  0  0  0  0  0  0  0  0  0  0  0
    5.1929  -51.3921  -22.2314 C   0  0  0  0  0  0  0  0  0  0  0  0
    3.8107  -51.7641  -22.7750 C   0  0  0  0  0  0  0  0  0  0  0  0
    5.7691  -48.7475  -24.1955 H   0  0  0  0  0  0  0  0  0  0  0  0
    0.4645  -50.8934  -24.4282 N   0  0  0  0  0  0  0  0  0  0  0  0
    0.3602  -49.8744  -24.6121 H   0  0  0  0  0  0  0  0  0  0  0  0
    0.2541  -51.3477  -23.0940 C   0  0  0  0  0  0  0  0  0  0  0  0
    0.4125  -50.4493  -22.0696 C   0  0  0  0  0  0  0  0  0  0  0  0
    0.2270  -50.8026  -20.7295 C   0  0  0  0  0  0  0  0  0  0  0  0
   -0.1267  -52.0924  -20.4141 C   0  0  0  0  0  0  0  0  0  0  0  0
   -0.2836  -52.9862  -21.4453 C   0  0  0  0  0  0  0  0  0  0  0  0
   -0.1002  -52.6361  -22.7672 C   0  0  0  0  0  0  0  0  0  0  0  0
   -0.3250  -52.4748  -18.9989 C   0  0  0  0  0  0  0  0  0  0  0  0
   -1.8194  -52.6323  -18.6954 C   0  0  0  0  0  0  0  0  0  0  0  0
   -1.9744  -53.3252  -17.3754 C   0  0  0  0  0  0  0  0  0  0  0  0
   -0.8337  -53.0831  -16.5411 N   0  0  0  0  0  0  0  0  0  0  0  0
   -0.3150  -51.7366  -16.6613 C   0  0  0  0  0  0  0  0  0  0  0  0
    0.1910  -51.4190  -18.0379 C   0  0  0  0  0  0  0  0  0  0  0  0
   -0.1058  -53.8102  -16.5860 H   0  0  0  0  0  0  0  0  0  0  0  0
  1  2  1  0  0  0
  2  3  1  0  0  0
  3  4  2  0  0  0
  4  5  1  0  0  0
  4  6  1  0  0  0
  6  7  1  0  0  0
  7  8  2  0  0  0
  8  9  1  0  0  0
  9 12  1  0  0  0
 12 13  1  0  0  0
 13 14  1  0  0  0
 14 15  1  0  0  0
 15 16  1  0  0  0
 16 17  1  0  0  0
 16 18  1  0  0  0
 18 19  1  0  0  0
  9 10  2  0  0  0
 10 11  1  0  0  0
 11 21  1  0  0  0
 21 23  1  0  0  0
 23 24  2  0  0  0
 24 25  1  0  0  0
 25 26  2  0  0  0
 26 27  1  0  0  0
 27 28  2  0  0  0
 26 29  1  0  0  0
 29 30  1  0  0  0
 30 31  1  0  0  0
 31 32  1  0  0  0
 32 33  1  0  0  0
 33 34  1  0  0  0
 11  2  2  0  0  0
 28 23  1  0  0  0
 34 29  1  0  0  0
 10  6  1  0  0  0
 19 12  1  0  0  0
 17 13  1  0  0  0
 17 20  1  0  0  0
 21 22  1  0  0  0
 32 35  1  0  0  0
M  END
> <minimizedAffinity>
-6.79331

> <CNNscore>
0.2034376264

> <CNNaffinity>
6.9642019272

> <CNN_VS>
1.4167807102

> <CNNaffinity_variance>
0.1148949414

$$$$
[H]c1nn2c(C([H])([H])[H])c([H])c(C([H])([H])[H])c(N([H])c3c([H])c([H])c(C4([H])C([H])([H])C([H])([H])N([H])C([H])([H])C4([H])[H])c([H])c3[H])c2c1N1C([H])([H])C([H])([H])C2([H])N([H])C1([H])C([H])([H])C2([H])[H]


 35 40  0  0  0  0  0  0  0  0999 V2000
   -0.9733  -52.0319  -22.3599 C   0  0  0  0  0  0  0  0  0  0  0  0
   -0.1286  -52.4845  -23.4907 C   0  0  0  0  0  0  0  0  0  0  0  0
   -0.4666  -53.6124  -24.2348 C   0  0  0  0  0  0  0  0  0  0  0  0
    0.3450  -53.9917  -25.2686 C   0  0  0  0  0  0  0  0  0  0  0  0
    0.0067  -55.1818  -26.0709 C   0  0  0  0  0  0  0  0  0  0  0  0
    1.4529  -53.2779  -25.5535 N   0  0  0  0  0  0  0  0  0  0  0  0
    2.3855  -53.4846  -26.4845 N   0  0  0  0  0  0  0  0  0  0  0  0
    3.3238  -52.5640  -26.4046 C   0  0  0  0  0  0  0  0  0  0  0  0
    2.9745  -51.6841  -25.3346 C   0  0  0  0  0  0  0  0  0  0  0  0
    1.7944  -52.1665  -24.8280 C   0  0  0  0  0  0  0  0  0  0  0  0
    1.0052  -51.7529  -23.7836 C   0  0  0  0  0  0  0  0  0  0  0  0
    3.7663  -50.5841  -24.9920 N   0  0  0  0  0  0  0  0  0  0  0  0
    4.9305  -50.6493  -24.1692 C   0  0  0  0  0  0  0  0  0  0  0  0
    5.9895  -49.6746  -24.6168 C   0  0  0  0  0  0  0  0  0  0  0  0
    5.7174  -48.4295  -23.8203 C   0  0  0  0  0  0  0  0  0  0  0  0
    4.3484  -48.6977  -23.1800 C   0  0  0  0  0  0  0  0  0  0  0  0
    4.4690  -50.0856  -22.8654 N   0  0  0  0  0  0  0  0  0  0  0  0
    3.3258  -48.3329  -24.2047 C   0  0  0  0  0  0  0  0  0  0  0  0
    3.3678  -49.2504  -25.4297 C   0  0  0  0  0  0  0  0  0  0  0  0
    5.2024  -50.1997  -22.1608 H   0  0  0  0  0  0  0  0  0  0  0  0
    1.2754  -50.6549  -22.9684 N   0  0  0  0  0  0  0  0  0  0  0  0
    1.3321  -49.7117  -23.4043 H   0  0  0  0  0  0  0  0  0  0  0  0
    1.4798  -50.7442  -21.5609 C   0  0  0  0  0  0  0  0  0  0  0  0
    0.9837  -49.7410  -20.7678 C   0  0  0  0  0  0  0  0  0  0  0  0
    1.1347  -49.7426  -19.3777 C   0  0  0  0  0  0  0  0  0  0  0  0
    1.8017  -50.7802  -18.7722 C   0  0  0  0  0  0  0  0  0  0  0  0
    2.2956  -51.7811  -19.5730 C   0  0  0  0  0  0  0  0  0  0  0  0
    2.1458  -51.7782  -20.9445 C   0  0  0  0  0  0  0  0  0  0  0  0
    1.9661  -50.7899  -17.3021 C   0  0  0  0  0  0  0  0  0  0  0  0
    1.4063  -49.4976  -16.6964 C   0  0  0  0  0  0  0  0  0  0  0  0
    1.2871  -49.6710  -15.2124 C   0  0  0  0  0  0  0  0  0  0  0  0
    2.2383  -50.6338  -14.7387 N   0  0  0  0  0  0  0  0  0  0  0  0
    3.5152  -50.5551  -15.4168 C   0  0  0  0  0  0  0  0  0  0  0  0
    3.4241  -50.8537  -16.8846 C   0  0  0  0  0  0  0  0  0  0  0  0
    1.8742  -51.5936  -14.6565 H   0  0  0  0  0  0  0  0  0  0  0  0
  1  2  1  0  0  0
  2  3  1  0  0  0
  3  4  2  0  0  0
  4  5  1  0  0  0
  4  6  1  0  0  0
  6  7  1  0  0  0
  7  8  2  0  0  0
  8  9  1  0  0  0
  9 12  1  0  0  0
 12 13  1  0  0  0
 13 14  1  0  0  0
 14 15  1  0  0  0
 15 16  1  0  0  0
 16 17  1  0  0  0
 16 18  1  0  0  0
 18 19  1  0  0  0
  9 10  2  0  0  0
 10 11  1  0  0  0
 11 21  1  0  0  0
 21 23  1  0  0  0
 23 24  2  0  0  0
 24 25  1  0  0  0
 25 26  2  0  0  0
 26 27  1  0  0  0
 27 28  2  0  0  0
 26 29  1  0  0  0
 29 30  1  0  0  0
 30 31  1  0  0  0
 31 32  1  0  0  0
 32 33  1  0  0  0
 33 34  1  0  0  0
 11  2  2  0  0  0
 28 23  1  0  0  0
 34 29  1  0  0  0
 10  6  1  0  0  0
 19 12  1  0  0  0
 17 13  1  0  0  0
 17 20  1  0  0  0
 21 22  1  0  0  0
 32 35  1  0  0  0
M  END
> <minimizedAffinity>
-7.73453

> <CNNscore>
0.1900635213

> <CNNaffinity>
6.6228079796

> <CNN_VS>
1.2587542534

> <CNNaffinity_variance>
0.1476805806

$$$$
[H]c1nn2c(C([H])([H])[H])c([H])c(C([H])([H])[H])c(N([H])c3c([H])c([H])c(C4([H])C([H])([H])C([H])([H])N([H])C([H])([H])C4([H])[H])c([H])c3[H])c2c1N1C([H])([H])C([H])([H])C2([H])N([H])C1([H])C([H])([H])C2([H])[H]


 35 40  0  0  0  0  0  0  0  0999 V2000
   -0.7070  -54.1792  -21.4412 C   0  0  0  0  0  0  0  0  0  0  0  0
   -0.1261  -53.2498  -22.4392 C   0  0  0  0  0  0  0  0  0  0  0  0
   -0.6517  -53.1552  -23.7256 C   0  0  0  0  0  0  0  0  0  0  0  0
   -0.0808  -52.2837  -24.6121 C   0  0  0  0  0  0  0  0  0  0  0  0
   -0.6209  -52.1659  -25.9792 C   0  0  0  0  0  0  0  0  0  0  0  0
    0.9746  -51.5335  -24.2360 N   0  0  0  0  0  0  0  0  0  0  0  0
    1.6915  -50.6555  -24.9391 N   0  0  0  0  0  0  0  0  0  0  0  0
    2.6626  -50.1611  -24.1996 C   0  0  0  0  0  0  0  0  0  0  0  0
    2.5714  -50.7652  -22.9081 C   0  0  0  0  0  0  0  0  0  0  0  0
    1.4992  -51.6186  -22.9728 C   0  0  0  0  0  0  0  0  0  0  0  0
    0.9537  -52.4804  -22.0539 C   0  0  0  0  0  0  0  0  0  0  0  0
    3.4591  -50.4454  -21.8767 N   0  0  0  0  0  0  0  0  0  0  0  0
    3.5494  -49.1644  -21.2542 C   0  0  0  0  0  0  0  0  0  0  0  0
    3.8604  -49.2756  -19.7835 C   0  0  0  0  0  0  0  0  0  0  0  0
    5.3602  -49.2166  -19.7092 C   0  0  0  0  0  0  0  0  0  0  0  0
    5.8039  -49.3563  -21.1720 C   0  0  0  0  0  0  0  0  0  0  0  0
    4.7991  -48.5834  -21.8299 N   0  0  0  0  0  0  0  0  0  0  0  0
    5.8203  -50.8193  -21.4688 C   0  0  0  0  0  0  0  0  0  0  0  0
    4.4230  -51.4437  -21.4257 C   0  0  0  0  0  0  0  0  0  0  0  0
    4.8926  -47.6071  -21.5377 H   0  0  0  0  0  0  0  0  0  0  0  0
    1.4261  -52.6620  -20.7550 N   0  0  0  0  0  0  0  0  0  0  0  0
    2.2393  -53.2935  -20.6035 H   0  0  0  0  0  0  0  0  0  0  0  0
    0.8600  -52.0296  -19.6103 C   0  0  0  0  0  0  0  0  0  0  0  0
    0.0282  -52.7666  -18.8062 C   0  0  0  0  0  0  0  0  0  0  0  0
   -0.5727  -52.2325  -17.6623 C   0  0  0  0  0  0  0  0  0  0  0  0
   -0.3295  -50.9240  -17.3203 C   0  0  0  0  0  0  0  0  0  0  0  0
    0.5044  -50.1924  -18.1303 C   0  0  0  0  0  0  0  0  0  0  0  0
    1.0967  -50.7209  -19.2588 C   0  0  0  0  0  0  0  0  0  0  0  0
   -0.9612  -50.3508  -16.1117 C   0  0  0  0  0  0  0  0  0  0  0  0
   -0.5930  -48.8693  -15.9715 C   0  0  0  0  0  0  0  0  0  0  0  0
   -1.4902  -48.2428  -14.9473 C   0  0  0  0  0  0  0  0  0  0  0  0
   -1.9446  -49.2244  -14.0060 N   0  0  0  0  0  0  0  0  0  0  0  0
   -0.9302  -50.1998  -13.6651 C   0  0  0  0  0  0  0  0  0  0  0  0
   -0.4867  -51.0252  -14.8372 C   0  0  0  0  0  0  0  0  0  0  0  0
   -2.8593  -49.6421  -14.2279 H   0  0  0  0  0  0  0  0  0  0  0  0
  1  2  1  0  0  0
  2  3  1  0  0  0
  3  4  2  0  0  0
  4  5  1  0  0  0
  4  6  1  0  0  0
  6  7  1  0  0  0
  7  8  2  0  0  0
  8  9  1  0  0  0
  9 12  1  0  0  0
 12 13  1  0  0  0
 13 14  1  0  0  0
 14 15  1  0  0  0
 15 16  1  0  0  0
 16 17  1  0  0  0
 16 18  1  0  0  0
 18 19  1  0  0  0
  9 10  2  0  0  0
 10 11  1  0  0  0
 11 21  1  0  0  0
 21 23  1  0  0  0
 23 24  2  0  0  0
 24 25  1  0  0  0
 25 26  2  0  0  0
 26 27  1  0  0  0
 27 28  2  0  0  0
 26 29  1  0  0  0
 29 30  1  0  0  0
 30 31  1  0  0  0
 31 32  1  0  0  0
 32 33  1  0  0  0
 33 34  1  0  0  0
 11  2  2  0  0  0
 28 23  1  0  0  0
 34 29  1  0  0  0
 10  6  1  0  0  0
 19 12  1  0  0  0
 17 13  1  0  0  0
 17 20  1  0  0  0
 21 22  1  0  0  0
 32 35  1  0  0  0
M  END
> <minimizedAffinity>
-7.86677

> <CNNscore>
0.1747281402

> <CNNaffinity>
6.4742531776

> <CNN_VS>
1.1312341690

> <CNNaffinity_variance>
0.1226715446

$$$$
[H]c1nn2c(C([H])([H])[H])c([H])c(C([H])([H])[H])c(N([H])c3c([H])c([H])c(C4([H])C([H])([H])C([H])([H])N([H])C([H])([H])C4([H])[H])c([H])c3[H])c2c1N1C([H])([H])C([H])([H])C2([H])N([H])C1([H])C([H])([H])C2([H])[H]


 35 40  0  0  0  0  0  0  0  0999 V2000
   -0.6547  -54.0134  -22.4922 C   0  0  0  0  0  0  0  0  0  0  0  0
   -0.1629  -53.2531  -23.6657 C   0  0  0  0  0  0  0  0  0  0  0  0
   -0.8681  -53.2484  -24.8668 C   0  0  0  0  0  0  0  0  0  0  0  0
   -0.3738  -52.5325  -25.9225 C   0  0  0  0  0  0  0  0  0  0  0  0
   -1.1037  -52.5121  -27.2036 C   0  0  0  0  0  0  0  0  0  0  0  0
    0.7796  -51.8464  -25.7914 N   0  0  0  0  0  0  0  0  0  0  0  0
    1.4460  -51.1179  -26.6883 N   0  0  0  0  0  0  0  0  0  0  0  0
    2.5519  -50.6386  -26.1577 C   0  0  0  0  0  0  0  0  0  0  0  0
    2.6116  -51.0905  -24.8037 C   0  0  0  0  0  0  0  0  0  0  0  0
    1.4810  -51.8441  -24.6141 C   0  0  0  0  0  0  0  0  0  0  0  0
    1.0173  -52.5492  -23.5313 C   0  0  0  0  0  0  0  0  0  0  0  0
    3.6663  -50.7453  -23.9537 N   0  0  0  0  0  0  0  0  0  0  0  0
    4.7899  -51.5806  -23.6769 C   0  0  0  0  0  0  0  0  0  0  0  0
    6.0555  -50.7802  -23.5050 C   0  0  0  0  0  0  0  0  0  0  0  0
    6.1285  -50.5015  -22.0300 C   0  0  0  0  0  0  0  0  0  0  0  0
    4.7491  -50.9282  -21.5093 C   0  0  0  0  0  0  0  0  0  0  0  0
    4.5140  -52.0930  -22.3014 N   0  0  0  0  0  0  0  0  0  0  0  0
    3.8357  -49.7699  -21.7397 C   0  0  0  0  0  0  0  0  0  0  0  0
    3.6166  -49.4808  -23.2272 C   0  0  0  0  0  0  0  0  0  0  0  0
    5.2066  -52.8042  -22.0525 H   0  0  0  0  0  0  0  0  0  0  0  0
    1.6654  -52.6338  -22.3001 N   0  0  0  0  0  0  0  0  0  0  0  0
    2.4491  -53.3103  -22.1941 H   0  0  0  0  0  0  0  0  0  0  0  0
    1.3190  -51.8430  -21.1663 C   0  0  0  0  0  0  0  0  0  0  0  0
    1.7127  -52.2781  -19.9264 C   0  0  0  0  0  0  0  0  0  0  0  0
    1.4197  -51.5695  -18.7572 C   0  0  0  0  0  0  0  0  0  0  0  0
    0.7129  -50.3940  -18.8394 C   0  0  0  0  0  0  0  0  0  0  0  0
    0.3222  -49.9647  -20.0844 C   0  0  0  0  0  0  0  0  0  0  0  0
    0.6121  -50.6650  -21.2372 C   0  0  0  0  0  0  0  0  0  0  0  0
    0.3986  -49.6379  -17.6074 C   0  0  0  0  0  0  0  0  0  0  0  0
    1.6835  -49.3321  -16.8292 C   0  0  0  0  0  0  0  0  0  0  0  0
    1.3810  -48.3047  -15.7806 C   0  0  0  0  0  0  0  0  0  0  0  0
    0.0022  -48.3705  -15.3924 N   0  0  0  0  0  0  0  0  0  0  0  0
   -0.5092  -49.7237  -15.3319 C   0  0  0  0  0  0  0  0  0  0  0  0
   -0.4912  -50.4221  -16.6599 C   0  0  0  0  0  0  0  0  0  0  0  0
   -0.6174  -47.7183  -15.8938 H   0  0  0  0  0  0  0  0  0  0  0  0
  1  2  1  0  0  0
  2  3  1  0  0  0
  3  4  2  0  0  0
  4  5  1  0  0  0
  4  6  1  0  0  0
  6  7  1  0  0  0
  7  8  2  0  0  0
  8  9  1  0  0  0
  9 12  1  0  0  0
 12 13  1  0  0  0
 13 14  1  0  0  0
 14 15  1  0  0  0
 15 16  1  0  0  0
 16 17  1  0  0  0
 16 18  1  0  0  0
 18 19  1  0  0  0
  9 10  2  0  0  0
 10 11  1  0  0  0
 11 21  1  0  0  0
 21 23  1  0  0  0
 23 24  2  0  0  0
 24 25  1  0  0  0
 25 26  2  0  0  0
 26 27  1  0  0  0
 27 28  2  0  0  0
 26 29  1  0  0  0
 29 30  1  0  0  0
 30 31  1  0  0  0
 31 32  1  0  0  0
 32 33  1  0  0  0
 33 34  1  0  0  0
 11  2  2  0  0  0
 28 23  1  0  0  0
 34 29  1  0  0  0
 10  6  1  0  0  0
 19 12  1  0  0  0
 17 13  1  0  0  0
 17 20  1  0  0  0
 21 22  1  0  0  0
 32 35  1  0  0  0
M  END
> <minimizedAffinity>
-7.54251

> <CNNscore>
0.1701306254

> <CNNaffinity>
6.7100820541

> <CNN_VS>
1.1415904760

> <CNNaffinity_variance>
0.1083491892

$$$$
[H]c1nn2c(C([H])([H])[H])c([H])c(C([H])([H])[H])c(N([H])c3c([H])c([H])c(C4([H])C([H])([H])C([H])([H])N([H])C([H])([H])C4([H])[H])c([H])c3[H])c2c1N1C([H])([H])C([H])([H])C2([H])N([H])C1([H])C([H])([H])C2([H])[H]


 35 40  0  0  0  0  0  0  0  0999 V2000
   -0.6737  -54.2495  -21.0290 C   0  0  0  0  0  0  0  0  0  0  0  0
   -0.1270  -53.2891  -22.0169 C   0  0  0  0  0  0  0  0  0  0  0  0
   -0.6377  -53.2191  -23.3108 C   0  0  0  0  0  0  0  0  0  0  0  0
   -0.0997  -52.3173  -24.1875 C   0  0  0  0  0  0  0  0  0  0  0  0
   -0.6248  -52.2246  -25.5623 C   0  0  0  0  0  0  0  0  0  0  0  0
    0.9097  -51.5142  -23.7946 N   0  0  0  0  0  0  0  0  0  0  0  0
    1.5905  -50.5987  -24.4857 N   0  0  0  0  0  0  0  0  0  0  0  0
    2.5235  -50.0562  -23.7311 C   0  0  0  0  0  0  0  0  0  0  0  0
    2.4446  -50.6669  -22.4419 C   0  0  0  0  0  0  0  0  0  0  0  0
    1.4192  -51.5747  -22.5238 C   0  0  0  0  0  0  0  0  0  0  0  0
    0.9055  -52.4656  -21.6144 C   0  0  0  0  0  0  0  0  0  0  0  0
    3.2991  -50.3038  -21.3969 N   0  0  0  0  0  0  0  0  0  0  0  0
    3.2358  -49.0640  -20.6929 C   0  0  0  0  0  0  0  0  0  0  0  0
    3.5787  -49.2287  -19.2343 C   0  0  0  0  0  0  0  0  0  0  0  0
    5.0600  -48.9850  -19.1648 C   0  0  0  0  0  0  0  0  0  0  0  0
    5.4974  -48.9736  -20.6361 C   0  0  0  0  0  0  0  0  0  0  0  0
    4.3942  -48.2939  -21.2366 N   0  0  0  0  0  0  0  0  0  0  0  0
    5.6941  -50.4008  -21.0277 C   0  0  0  0  0  0  0  0  0  0  0  0
    4.3874  -51.1987  -21.0174 C   0  0  0  0  0  0  0  0  0  0  0  0
    4.3678  -47.3342  -20.8820 H   0  0  0  0  0  0  0  0  0  0  0  0
    1.3674  -52.6252  -20.3089 N   0  0  0  0  0  0  0  0  0  0  0  0
    2.2232  -53.1952  -20.1485 H   0  0  0  0  0  0  0  0  0  0  0  0
    0.7350  -52.0500  -19.1687 C   0  0  0  0  0  0  0  0  0  0  0  0
   -0.1448  -52.8234  -18.4550 C   0  0  0  0  0  0  0  0  0  0  0  0
   -0.8121  -52.3460  -17.3228 C   0  0  0  0  0  0  0  0  0  0  0  0
   -0.5873  -51.0581  -16.8996 C   0  0  0  0  0  0  0  0  0  0  0  0
    0.2950  -50.2899  -17.6193 C   0  0  0  0  0  0  0  0  0  0  0  0
    0.9528  -50.7623  -18.7364 C   0  0  0  0  0  0  0  0  0  0  0  0
   -1.2891  -50.5450  -15.7027 C   0  0  0  0  0  0  0  0  0  0  0  0
   -2.7230  -51.0851  -15.6552 C   0  0  0  0  0  0  0  0  0  0  0  0
   -3.2936  -50.8233  -14.2941 C   0  0  0  0  0  0  0  0  0  0  0  0
   -2.6642  -49.6835  -13.6935 N   0  0  0  0  0  0  0  0  0  0  0  0
   -2.3804  -48.6246  -14.6394 C   0  0  0  0  0  0  0  0  0  0  0  0
   -1.4089  -49.0317  -15.7082 C   0  0  0  0  0  0  0  0  0  0  0  0
   -1.8717  -49.9061  -13.0748 H   0  0  0  0  0  0  0  0  0  0  0  0
  1  2  1  0  0  0
  2  3  1  0  0  0
  3  4  2  0  0  0
  4  5  1  0  0  0
  4  6  1  0  0  0
  6  7  1  0  0  0
  7  8  2  0  0  0
  8  9  1  0  0  0
  9 12  1  0  0  0
 12 13  1  0  0  0
 13 14  1  0  0  0
 14 15  1  0  0  0
 15 16  1  0  0  0
 16 17  1  0  0  0
 16 18  1  0  0  0
 18 19  1  0  0  0
  9 10  2  0  0  0
 10 11  1  0  0  0
 11 21  1  0  0  0
 21 23  1  0  0  0
 23 24  2  0  0  0
 24 25  1  0  0  0
 25 26  2  0  0  0
 26 27  1  0  0  0
 27 28  2  0  0  0
 26 29  1  0  0  0
 29 30  1  0  0  0
 30 31  1  0  0  0
 31 32  1  0  0  0
 32 33  1  0  0  0
 33 34  1  0  0  0
 11  2  2  0  0  0
 28 23  1  0  0  0
 34 29  1  0  0  0
 10  6  1  0  0  0
 19 12  1  0  0  0
 17 13  1  0  0  0
 17 20  1  0  0  0
 21 22  1  0  0  0
 32 35  1  0  0  0
M  END
> <minimizedAffinity>
-7.92080

> <CNNscore>
0.1675431132

> <CNNaffinity>
6.4410600662

> <CNN_VS>
1.0791552067

> <CNNaffinity_variance>
0.1279245317

$$$$
[H]c1nc(N([H])c2c([H])c([H])c3nc([H])c(C([H])([H])C(=O)N4C([H])([H])C([H])([H])[C@@]([H])(C(F)(F)F)C4([H])[H])c(C#N)c3c2[H])nc(-c2c([H])c([H])c(=O)n(C([H])([H])[H])c2[H])c1C([H])([H])[H]


 41 45  0  0  0  0  0  0  0  0999 V2000
   -0.7985  -52.7153  -19.4747 C   0  0  0  0  0  0  0  0  0  0  0  0
   -0.8137  -52.7161  -18.0937 C   0  0  0  0  0  0  0  0  0  0  0  0
   -0.1193  -51.7886  -17.3409 C   0  0  0  0  0  0  0  0  0  0  0  0
    0.6381  -50.7970  -17.9530 C   0  0  0  0  0  0  0  0  0  0  0  0
    1.3090  -49.8905  -17.2204 N   0  0  0  0  0  0  0  0  0  0  0  0
    2.0450  -48.9118  -17.7682 C   0  0  0  0  0  0  0  0  0  0  0  0
    2.1071  -48.8457  -19.1403 C   0  0  0  0  0  0  0  0  0  0  0  0
    1.4239  -49.7717  -19.9280 C   0  0  0  0  0  0  0  0  0  0  0  0
    0.6659  -50.7798  -19.3281 C   0  0  0  0  0  0  0  0  0  0  0  0
   -0.0313  -51.7115  -20.0716 C   0  0  0  0  0  0  0  0  0  0  0  0
   -1.5264  -53.6472  -20.2460 N   0  0  0  0  0  0  0  0  0  0  0  0
   -2.3383  -54.1226  -19.8045 H   0  0  0  0  0  0  0  0  0  0  0  0
   -0.1840  -54.9607  -25.6293 C   0  0  0  0  0  0  0  0  0  0  0  0
   -0.5370  -54.5880  -24.2297 C   0  0  0  0  0  0  0  0  0  0  0  0
   -1.3809  -55.3832  -23.4696 C   0  0  0  0  0  0  0  0  0  0  0  0
   -1.7006  -55.0803  -22.2085 N   0  0  0  0  0  0  0  0  0  0  0  0
   -1.2267  -53.9850  -21.5939 C   0  0  0  0  0  0  0  0  0  0  0  0
   -0.4026  -53.2098  -22.3399 N   0  0  0  0  0  0  0  0  0  0  0  0
   -0.0457  -53.4614  -23.6044 C   0  0  0  0  0  0  0  0  0  0  0  0
    0.8944  -52.5849  -24.3135 C   0  0  0  0  0  0  0  0  0  0  0  0
    0.4690  -51.6621  -25.2187 C   0  0  0  0  0  0  0  0  0  0  0  0
    1.4007  -50.8877  -25.8891 C   0  0  0  0  0  0  0  0  0  0  0  0
    2.7373  -51.0883  -25.6066 C   0  0  0  0  0  0  0  0  0  0  0  0
    3.5811  -50.3778  -26.2229 O   0  0  0  0  0  0  0  0  0  0  0  0
    3.1753  -51.9956  -24.7156 N   0  0  0  0  0  0  0  0  0  0  0  0
    4.6019  -52.1358  -24.4950 C   0  0  0  0  0  0  0  0  0  0  0  0
    2.2491  -52.7257  -24.0860 C   0  0  0  0  0  0  0  0  0  0  0  0
    1.4575  -49.7456  -21.3497 C   0  0  0  0  0  0  0  0  0  0  0  0
    1.4980  -49.7208  -22.4976 N   0  0  0  0  0  0  0  0  0  0  0  0
    2.8796  -47.7530  -19.7885 C   0  0  0  0  0  0  0  0  0  0  0  0
    4.2718  -47.8250  -19.3074 C   0  0  0  0  0  0  0  0  0  0  0  0
    4.6384  -47.0232  -18.3978 O   0  0  0  0  0  0  0  0  0  0  0  0
    5.2222  -48.7456  -19.8122 N   0  0  0  0  0  0  0  0  0  0  0  0
    4.9497  -49.7276  -20.8452 C   0  0  0  0  0  0  0  0  0  0  0  0
    6.2932  -50.2187  -21.2926 C   0  0  0  0  0  0  0  0  0  0  0  0
    7.3185  -49.4104  -20.5351 C   0  0  0  0  0  0  0  0  0  0  0  0
    6.5887  -48.8368  -19.3790 C   0  0  0  0  0  0  0  0  0  0  0  0
    7.8928  -48.3445  -21.4252 C   0  0  0  0  0  0  0  0  0  0  0  0
    7.5210  -48.5355  -22.7294 F   0  0  0  0  0  0  0  0  0  0  0  0
    9.2792  -48.4197  -21.3280 F   0  0  0  0  0  0  0  0  0  0  0  0
    7.4716  -47.0944  -21.0098 F   0  0  0  0  0  0  0  0  0  0  0  0
 13 14  1  0  0  0
 14 15  2  0  0  0
 15 16  1  0  0  0
 16 17  2  0  0  0
 17 11  1  0  0  0
 11  1  1  0  0  0
  1  2  2  0  0  0
  2  3  1  0  0  0
  3  4  2  0  0  0
  4  5  1  0  0  0
  5  6  2  0  0  0
  6  7  1  0  0  0
  7 30  1  0  0  0
 30 31  1  0  0  0
 31 32  2  0  0  0
 31 33  1  0  0  0
 33 34  1  0  0  0
 34 35  1  0  0  0
 35 36  1  0  0  0
 36 37  1  0  0  0
 36 38  1  0  0  0
 38 39  1  0  0  0
 38 40  1  0  0  0
 38 41  1  0  0  0
  7  8  2  0  0  0
  8  9  1  0  0  0
  9 10  2  0  0  0
  8 28  1  0  0  0
 28 29  3  0  0  0
 17 18  1  0  0  0
 18 19  2  0  0  0
 19 20  1  0  0  0
 20 21  1  0  0  0
 21 22  2  0  0  0
 22 23  1  0  0  0
 23 24  2  0  0  0
 23 25  1  0  0  0
 25 26  1  0  0  0
 25 27  1  0  0  0
 19 14  1  0  0  0
 27 20  2  0  0  0
 10  1  1  0  0  0
  9  4  1  0  0  0
 37 33  1  0  0  0
 11 12  1  0  0  0
M  END
> <minimizedAffinity>
-8.52245

> <CNNscore>
0.7649425864

> <CNNaffinity>
7.7588896751

> <CNN_VS>
5.9351053238

> <CNNaffinity_variance>
0.0672285110

$$$$
[H]c1nc(N([H])c2c([H])c([H])c3nc([H])c(C([H])([H])C(=O)N4C([H])([H])C([H])([H])[C@@]([H])(C(F)(F)F)C4([H])[H])c(C#N)c3c2[H])nc(-c2c([H])c([H])c(=O)n(C([H])([H])[H])c2[H])c1C([H])([H])[H]


 41 45  0  0  0  0  0  0  0  0999 V2000
   -0.1786  -53.1071  -19.3648 C   0  0  0  0  0  0  0  0  0  0  0  0
   -0.9070  -52.6428  -18.2872 C   0  0  0  0  0  0  0  0  0  0  0  0
   -0.4730  -51.6030  -17.4875 C   0  0  0  0  0  0  0  0  0  0  0  0
    0.7377  -50.9683  -17.7384 C   0  0  0  0  0  0  0  0  0  0  0  0
    1.1573  -49.9521  -16.9638 N   0  0  0  0  0  0  0  0  0  0  0  0
    2.3137  -49.3055  -17.1738 C   0  0  0  0  0  0  0  0  0  0  0  0
    3.0939  -49.7111  -18.2310 C   0  0  0  0  0  0  0  0  0  0  0  0
    2.6875  -50.7625  -19.0520 C   0  0  0  0  0  0  0  0  0  0  0  0
    1.4779  -51.4167  -18.8076 C   0  0  0  0  0  0  0  0  0  0  0  0
    1.0355  -52.4569  -19.6006 C   0  0  0  0  0  0  0  0  0  0  0  0
   -0.6315  -54.1533  -20.1975 N   0  0  0  0  0  0  0  0  0  0  0  0
   -1.0578  -54.9884  -19.7494 H   0  0  0  0  0  0  0  0  0  0  0  0
   -0.1406  -54.1125  -25.8778 C   0  0  0  0  0  0  0  0  0  0  0  0
   -0.2671  -54.0928  -24.3925 C   0  0  0  0  0  0  0  0  0  0  0  0
   -1.1371  -54.9513  -23.7379 C   0  0  0  0  0  0  0  0  0  0  0  0
   -1.2580  -54.9648  -22.4077 N   0  0  0  0  0  0  0  0  0  0  0  0
   -0.5457  -54.1470  -21.6165 C   0  0  0  0  0  0  0  0  0  0  0  0
    0.3032  -53.3090  -22.2596 N   0  0  0  0  0  0  0  0  0  0  0  0
    0.4685  -53.2503  -23.5859 C   0  0  0  0  0  0  0  0  0  0  0  0
    1.4518  -52.3404  -24.1859 C   0  0  0  0  0  0  0  0  0  0  0  0
    1.0721  -51.2358  -24.8842 C   0  0  0  0  0  0  0  0  0  0  0  0
    2.0394  -50.4323  -25.4638 C   0  0  0  0  0  0  0  0  0  0  0  0
    3.3633  -50.7914  -25.3063 C   0  0  0  0  0  0  0  0  0  0  0  0
    4.2397  -50.0531  -25.8385 O   0  0  0  0  0  0  0  0  0  0  0  0
    3.7563  -51.8793  -24.6200 N   0  0  0  0  0  0  0  0  0  0  0  0
    5.1724  -52.1756  -24.5182 C   0  0  0  0  0  0  0  0  0  0  0  0
    2.7967  -52.6325  -24.0729 C   0  0  0  0  0  0  0  0  0  0  0  0
    3.4590  -51.2188  -20.1563 C   0  0  0  0  0  0  0  0  0  0  0  0
    4.0934  -51.5881  -21.0401 N   0  0  0  0  0  0  0  0  0  0  0  0
    4.3644  -48.9957  -18.5229 C   0  0  0  0  0  0  0  0  0  0  0  0
    4.0422  -47.7807  -19.2941 C   0  0  0  0  0  0  0  0  0  0  0  0
    3.3052  -46.9020  -18.7563 O   0  0  0  0  0  0  0  0  0  0  0  0
    4.5145  -47.5462  -20.6085 N   0  0  0  0  0  0  0  0  0  0  0  0
    5.3707  -48.4530  -21.3502 C   0  0  0  0  0  0  0  0  0  0  0  0
    5.3209  -47.9763  -22.7703 C   0  0  0  0  0  0  0  0  0  0  0  0
    4.3386  -46.8308  -22.8031 C   0  0  0  0  0  0  0  0  0  0  0  0
    4.2117  -46.3832  -21.3954 C   0  0  0  0  0  0  0  0  0  0  0  0
    3.0258  -47.2951  -23.3682 C   0  0  0  0  0  0  0  0  0  0  0  0
    2.7255  -48.5625  -22.9450 F   0  0  0  0  0  0  0  0  0  0  0  0
    3.1416  -47.2903  -24.7552 F   0  0  0  0  0  0  0  0  0  0  0  0
    2.0101  -46.4359  -22.9903 F   0  0  0  0  0  0  0  0  0  0  0  0
 13 14  1  0  0  0
 14 15  2  0  0  0
 15 16  1  0  0  0
 16 17  2  0  0  0
 17 11  1  0  0  0
 11  1  1  0  0  0
  1  2  2  0  0  0
  2  3  1  0  0  0
  3  4  2  0  0  0
  4  5  1  0  0  0
  5  6  2  0  0  0
  6  7  1  0  0  0
  7 30  1  0  0  0
 30 31  1  0  0  0
 31 32  2  0  0  0
 31 33  1  0  0  0
 33 34  1  0  0  0
 34 35  1  0  0  0
 35 36  1  0  0  0
 36 37  1  0  0  0
 36 38  1  0  0  0
 38 39  1  0  0  0
 38 40  1  0  0  0
 38 41  1  0  0  0
  7  8  2  0  0  0
  8  9  1  0  0  0
  9 10  2  0  0  0
  8 28  1  0  0  0
 28 29  3  0  0  0
 17 18  1  0  0  0
 18 19  2  0  0  0
 19 20  1  0  0  0
 20 21  1  0  0  0
 21 22  2  0  0  0
 22 23  1  0  0  0
 23 24  2  0  0  0
 23 25  1  0  0  0
 25 26  1  0  0  0
 25 27  1  0  0  0
 19 14  1  0  0  0
 27 20  2  0  0  0
 10  1  1  0  0  0
  9  4  1  0  0  0
 37 33  1  0  0  0
 11 12  1  0  0  0
M  END
> <minimizedAffinity>
-8.54084

> <CNNscore>
0.6310982108

> <CNNaffinity>
7.8031320572

> <CNN_VS>
4.9245429039

> <CNNaffinity_variance>
0.1742947251

$$$$
[H]c1nc(N([H])c2c([H])c([H])c3nc([H])c(C([H])([H])C(=O)N4C([H])([H])C([H])([H])[C@@]([H])(C(F)(F)F)C4([H])[H])c(C#N)c3c2[H])nc(-c2c([H])c([H])c(=O)n(C([H])([H])[H])c2[H])c1C([H])([H])[H]


 41 45  0  0  0  0  0  0  0  0999 V2000
   -0.8794  -52.7673  -19.4119 C   0  0  0  0  0  0  0  0  0  0  0  0
   -0.9382  -52.8054  -18.0326 C   0  0  0  0  0  0  0  0  0  0  0  0
   -0.2805  -51.8899  -17.2336 C   0  0  0  0  0  0  0  0  0  0  0  0
    0.4824  -50.8726  -17.7947 C   0  0  0  0  0  0  0  0  0  0  0  0
    1.1174  -49.9778  -17.0173 N   0  0  0  0  0  0  0  0  0  0  0  0
    1.8571  -48.9754  -17.5152 C   0  0  0  0  0  0  0  0  0  0  0  0
    1.9616  -48.8716  -18.8824 C   0  0  0  0  0  0  0  0  0  0  0  0
    1.3162  -49.7846  -19.7158 C   0  0  0  0  0  0  0  0  0  0  0  0
    0.5533  -50.8180  -19.1674 C   0  0  0  0  0  0  0  0  0  0  0  0
   -0.1074  -51.7381  -19.9571 C   0  0  0  0  0  0  0  0  0  0  0  0
   -1.5700  -53.6872  -20.2304 N   0  0  0  0  0  0  0  0  0  0  0  0
   -2.3870  -54.1868  -19.8269 H   0  0  0  0  0  0  0  0  0  0  0  0
   -0.0499  -54.8286  -25.6057 C   0  0  0  0  0  0  0  0  0  0  0  0
   -0.4490  -54.5006  -24.2073 C   0  0  0  0  0  0  0  0  0  0  0  0
   -1.3195  -55.3177  -23.5023 C   0  0  0  0  0  0  0  0  0  0  0  0
   -1.6808  -55.0551  -22.2434 N   0  0  0  0  0  0  0  0  0  0  0  0
   -1.2258  -53.9818  -21.5778 C   0  0  0  0  0  0  0  0  0  0  0  0
   -0.3757  -53.1851  -22.2701 N   0  0  0  0  0  0  0  0  0  0  0  0
    0.0230  -53.3964  -23.5295 C   0  0  0  0  0  0  0  0  0  0  0  0
    0.9880  -52.5000  -24.1777 C   0  0  0  0  0  0  0  0  0  0  0  0
    0.5954  -51.5502  -25.0697 C   0  0  0  0  0  0  0  0  0  0  0  0
    1.5507  -50.7570  -25.6825 C   0  0  0  0  0  0  0  0  0  0  0  0
    2.8762  -50.9672  -25.3581 C   0  0  0  0  0  0  0  0  0  0  0  0
    3.7416  -50.2395  -25.9220 O   0  0  0  0  0  0  0  0  0  0  0  0
    3.2819  -51.9012  -24.4794 N   0  0  0  0  0  0  0  0  0  0  0  0
    4.6996  -52.0493  -24.2117 C   0  0  0  0  0  0  0  0  0  0  0  0
    2.3337  -52.6489  -23.9057 C   0  0  0  0  0  0  0  0  0  0  0  0
    1.3943  -49.7197  -21.1345 C   0  0  0  0  0  0  0  0  0  0  0  0
    1.4659  -49.6783  -22.2804 N   0  0  0  0  0  0  0  0  0  0  0  0
    2.7394  -47.7521  -19.4764 C   0  0  0  0  0  0  0  0  0  0  0  0
    4.0180  -47.6430  -18.7498 C   0  0  0  0  0  0  0  0  0  0  0  0
    4.8839  -48.5532  -18.9117 O   0  0  0  0  0  0  0  0  0  0  0  0
    4.3274  -46.5712  -17.8774 N   0  0  0  0  0  0  0  0  0  0  0  0
    3.4434  -45.4549  -17.5981 C   0  0  0  0  0  0  0  0  0  0  0  0
    4.0220  -44.7805  -16.3912 C   0  0  0  0  0  0  0  0  0  0  0  0
    5.2043  -45.6143  -15.9605 C   0  0  0  0  0  0  0  0  0  0  0  0
    5.5546  -46.4373  -17.1429 C   0  0  0  0  0  0  0  0  0  0  0  0
    4.8329  -46.4593  -14.7747 C   0  0  0  0  0  0  0  0  0  0  0  0
    3.6439  -46.0527  -14.2301 F   0  0  0  0  0  0  0  0  0  0  0  0
    5.8429  -46.3188  -13.8274 F   0  0  0  0  0  0  0  0  0  0  0  0
    4.7336  -47.7882  -15.1448 F   0  0  0  0  0  0  0  0  0  0  0  0
 13 14  1  0  0  0
 14 15  2  0  0  0
 15 16  1  0  0  0
 16 17  2  0  0  0
 17 11  1  0  0  0
 11  1  1  0  0  0
  1  2  2  0  0  0
  2  3  1  0  0  0
  3  4  2  0  0  0
  4  5  1  0  0  0
  5  6  2  0  0  0
  6  7  1  0  0  0
  7 30  1  0  0  0
 30 31  1  0  0  0
 31 32  2  0  0  0
 31 33  1  0  0  0
 33 34  1  0  0  0
 34 35  1  0  0  0
 35 36  1  0  0  0
 36 37  1  0  0  0
 36 38  1  0  0  0
 38 39  1  0  0  0
 38 40  1  0  0  0
 38 41  1  0  0  0
  7  8  2  0  0  0
  8  9  1  0  0  0
  9 10  2  0  0  0
  8 28  1  0  0  0
 28 29  3  0  0  0
 17 18  1  0  0  0
 18 19  2  0  0  0
 19 20  1  0  0  0
 20 21  1  0  0  0
 21 22  2  0  0  0
 22 23  1  0  0  0
 23 24  2  0  0  0
 23 25  1  0  0  0
 25 26  1  0  0  0
 25 27  1  0  0  0
 19 14  1  0  0  0
 27 20  2  0  0  0
 10  1  1  0  0  0
  9  4  1  0  0  0
 37 33  1  0  0  0
 11 12  1  0  0  0
M  END
> <minimizedAffinity>
-8.01575

> <CNNscore>
0.6173341870

> <CNNaffinity>
7.5097770691

> <CNN_VS>
4.6360421181

> <CNNaffinity_variance>
0.0804179758

$$$$
[H]c1nc(N([H])c2c([H])c([H])c3nc([H])c(C([H])([H])C(=O)N4C([H])([H])C([H])([H])[C@@]([H])(C(F)(F)F)C4([H])[H])c(C#N)c3c2[H])nc(-c2c([H])c([H])c(=O)n(C([H])([H])[H])c2[H])c1C([H])([H])[H]


 41 45  0  0  0  0  0  0  0  0999 V2000
    0.3804  -52.8664  -24.4667 C   0  0  0  0  0  0  0  0  0  0  0  0
    0.6105  -53.2190  -25.7820 C   0  0  0  0  0  0  0  0  0  0  0  0
    1.4581  -52.5048  -26.6071 C   0  0  0  0  0  0  0  0  0  0  0  0
    2.1276  -51.3802  -26.1395 C   0  0  0  0  0  0  0  0  0  0  0  0
    2.9573  -50.6887  -26.9406 N   0  0  0  0  0  0  0  0  0  0  0  0
    3.6300  -49.6032  -26.5297 C   0  0  0  0  0  0  0  0  0  0  0  0
    3.4528  -49.1914  -25.2297 C   0  0  0  0  0  0  0  0  0  0  0  0
    2.5984  -49.8862  -24.3743 C   0  0  0  0  0  0  0  0  0  0  0  0
    1.9112  -51.0129  -24.8316 C   0  0  0  0  0  0  0  0  0  0  0  0
    1.0619  -51.7331  -24.0152 C   0  0  0  0  0  0  0  0  0  0  0  0
   -0.4664  -53.6086  -23.6151 N   0  0  0  0  0  0  0  0  0  0  0  0
   -1.0685  -54.3420  -24.0386 H   0  0  0  0  0  0  0  0  0  0  0  0
   -0.7788  -52.7268  -17.9908 C   0  0  0  0  0  0  0  0  0  0  0  0
   -0.6671  -52.9615  -19.4587 C   0  0  0  0  0  0  0  0  0  0  0  0
   -1.6282  -53.6916  -20.1409 C   0  0  0  0  0  0  0  0  0  0  0  0
   -1.5601  -53.9032  -21.4581 N   0  0  0  0  0  0  0  0  0  0  0  0
   -0.5556  -53.4236  -22.2084 C   0  0  0  0  0  0  0  0  0  0  0  0
    0.3823  -52.7108  -21.5384 N   0  0  0  0  0  0  0  0  0  0  0  0
    0.3675  -52.4650  -20.2235 C   0  0  0  0  0  0  0  0  0  0  0  0
    1.4061  -51.6380  -19.5970 C   0  0  0  0  0  0  0  0  0  0  0  0
    2.7287  -51.8408  -19.8447 C   0  0  0  0  0  0  0  0  0  0  0  0
    3.6694  -51.0581  -19.1968 C   0  0  0  0  0  0  0  0  0  0  0  0
    3.2188  -50.0944  -18.3167 C   0  0  0  0  0  0  0  0  0  0  0  0
    4.0836  -49.3847  -17.7293 O   0  0  0  0  0  0  0  0  0  0  0  0
    1.9160  -49.8806  -18.0598 N   0  0  0  0  0  0  0  0  0  0  0  0
    1.5442  -48.8479  -17.1117 C   0  0  0  0  0  0  0  0  0  0  0  0
    1.0347  -50.6535  -18.7028 C   0  0  0  0  0  0  0  0  0  0  0  0
    2.3816  -49.4996  -23.0228 C   0  0  0  0  0  0  0  0  0  0  0  0
    2.2070  -49.1740  -21.9349 N   0  0  0  0  0  0  0  0  0  0  0  0
    4.2097  -48.0163  -24.7222 C   0  0  0  0  0  0  0  0  0  0  0  0
    3.5669  -46.7950  -25.2418 C   0  0  0  0  0  0  0  0  0  0  0  0
    2.5679  -46.3270  -24.6192 O   0  0  0  0  0  0  0  0  0  0  0  0
    4.0094  -46.1179  -26.4042 N   0  0  0  0  0  0  0  0  0  0  0  0
    5.1407  -46.5273  -27.2156 C   0  0  0  0  0  0  0  0  0  0  0  0
    5.0179  -45.7506  -28.4915 C   0  0  0  0  0  0  0  0  0  0  0  0
    3.7323  -44.9658  -28.3930 C   0  0  0  0  0  0  0  0  0  0  0  0
    3.4019  -44.9352  -26.9479 C   0  0  0  0  0  0  0  0  0  0  0  0
    2.6581  -45.6347  -29.2034 C   0  0  0  0  0  0  0  0  0  0  0  0
    3.0559  -46.8758  -29.6240 F   0  0  0  0  0  0  0  0  0  0  0  0
    2.4097  -44.8323  -30.3132 F   0  0  0  0  0  0  0  0  0  0  0  0
    1.4998  -45.7561  -28.4574 F   0  0  0  0  0  0  0  0  0  0  0  0
 13 14  1  0  0  0
 14 15  2  0  0  0
 15 16  1  0  0  0
 16 17  2  0  0  0
 17 11  1  0  0  0
 11  1  1  0  0  0
  1  2  2  0  0  0
  2  3  1  0  0  0
  3  4  2  0  0  0
  4  5  1  0  0  0
  5  6  2  0  0  0
  6  7  1  0  0  0
  7 30  1  0  0  0
 30 31  1  0  0  0
 31 32  2  0  0  0
 31 33  1  0  0  0
 33 34  1  0  0  0
 34 35  1  0  0  0
 35 36  1  0  0  0
 36 37  1  0  0  0
 36 38  1  0  0  0
 38 39  1  0  0  0
 38 40  1  0  0  0
 38 41  1  0  0  0
  7  8  2  0  0  0
  8  9  1  0  0  0
  9 10  2  0  0  0
  8 28  1  0  0  0
 28 29  3  0  0  0
 17 18  1  0  0  0
 18 19  2  0  0  0
 19 20  1  0  0  0
 20 21  1  0  0  0
 21 22  2  0  0  0
 22 23  1  0  0  0
 23 24  2  0  0  0
 23 25  1  0  0  0
 25 26  1  0  0  0
 25 27  1  0  0  0
 19 14  1  0  0  0
 27 20  2  0  0  0
 10  1  1  0  0  0
  9  4  1  0  0  0
 37 33  1  0  0  0
 11 12  1  0  0  0
M  END
> <minimizedAffinity>
-8.28024

> <CNNscore>
0.5377373099

> <CNNaffinity>
7.7596030235

> <CNN_VS>
4.1726279259

> <CNNaffinity_variance>
0.3597399890

$$$$
[H]c1nc(N([H])c2c([H])c([H])c3nc([H])c(C([H])([H])C(=O)N4C([H])([H])C([H])([H])[C@@]([H])(C(F)(F)F)C4([H])[H])c(C#N)c3c2[H])nc(-c2c([H])c([H])c(=O)n(C([H])([H])[H])c2[H])c1C([H])([H])[H]


 41 45  0  0  0  0  0  0  0  0999 V2000
   -0.1173  -52.5416  -18.7209 C   0  0  0  0  0  0  0  0  0  0  0  0
   -0.8373  -52.0602  -17.6452 C   0  0  0  0  0  0  0  0  0  0  0  0
   -0.4335  -50.9620  -16.9103 C   0  0  0  0  0  0  0  0  0  0  0  0
    0.7363  -50.2823  -17.2287 C   0  0  0  0  0  0  0  0  0  0  0  0
    1.1261  -49.2097  -16.5174 N   0  0  0  0  0  0  0  0  0  0  0  0
    2.2423  -48.5188  -16.7938 C   0  0  0  0  0  0  0  0  0  0  0  0
    3.0117  -48.9381  -17.8536 C   0  0  0  0  0  0  0  0  0  0  0  0
    2.6353  -50.0476  -18.6100 C   0  0  0  0  0  0  0  0  0  0  0  0
    1.4675  -50.7469  -18.2972 C   0  0  0  0  0  0  0  0  0  0  0  0
    1.0556  -51.8456  -19.0251 C   0  0  0  0  0  0  0  0  0  0  0  0
   -0.5405  -53.6488  -19.4878 N   0  0  0  0  0  0  0  0  0  0  0  0
   -0.9341  -54.4707  -18.9884 H   0  0  0  0  0  0  0  0  0  0  0  0
   -0.0960  -53.9412  -25.1645 C   0  0  0  0  0  0  0  0  0  0  0  0
   -0.2067  -53.8349  -23.6817 C   0  0  0  0  0  0  0  0  0  0  0  0
   -1.1688  -54.5488  -22.9838 C   0  0  0  0  0  0  0  0  0  0  0  0
   -1.2793  -54.4835  -21.6542 N   0  0  0  0  0  0  0  0  0  0  0  0
   -0.4665  -53.7212  -20.9056 C   0  0  0  0  0  0  0  0  0  0  0  0
    0.4723  -53.0244  -21.5910 N   0  0  0  0  0  0  0  0  0  0  0  0
    0.6323  -53.0501  -22.9189 C   0  0  0  0  0  0  0  0  0  0  0  0
    1.7136  -52.2963  -23.5651 C   0  0  0  0  0  0  0  0  0  0  0  0
    2.6365  -52.9058  -24.3580 C   0  0  0  0  0  0  0  0  0  0  0  0
    3.6595  -52.1546  -24.9114 C   0  0  0  0  0  0  0  0  0  0  0  0
    3.6993  -50.8032  -24.6310 C   0  0  0  0  0  0  0  0  0  0  0  0
    4.6361  -50.1249  -25.1396 O   0  0  0  0  0  0  0  0  0  0  0  0
    2.7960  -50.1847  -23.8496 N   0  0  0  0  0  0  0  0  0  0  0  0
    2.9291  -48.7607  -23.6089 C   0  0  0  0  0  0  0  0  0  0  0  0
    1.8215  -50.9395  -23.3320 C   0  0  0  0  0  0  0  0  0  0  0  0
    3.3972  -50.5202  -19.7141 C   0  0  0  0  0  0  0  0  0  0  0  0
    4.0108  -50.9150  -20.6016 N   0  0  0  0  0  0  0  0  0  0  0  0
    4.2359  -48.1771  -18.2186 C   0  0  0  0  0  0  0  0  0  0  0  0
    3.8201  -46.9104  -18.8489 C   0  0  0  0  0  0  0  0  0  0  0  0
    3.1742  -46.9612  -19.9374 O   0  0  0  0  0  0  0  0  0  0  0  0
    4.1076  -45.6374  -18.2991 N   0  0  0  0  0  0  0  0  0  0  0  0
    4.8290  -45.4194  -17.0591 C   0  0  0  0  0  0  0  0  0  0  0  0
    5.1940  -43.9658  -17.0604 C   0  0  0  0  0  0  0  0  0  0  0  0
    4.7279  -43.4086  -18.3835 C   0  0  0  0  0  0  0  0  0  0  0  0
    3.7317  -44.3830  -18.8897 C   0  0  0  0  0  0  0  0  0  0  0  0
    5.8951  -43.2579  -19.3179 C   0  0  0  0  0  0  0  0  0  0  0  0
    6.9950  -42.7730  -18.6617 F   0  0  0  0  0  0  0  0  0  0  0  0
    5.5218  -42.3591  -20.3130 F   0  0  0  0  0  0  0  0  0  0  0  0
    6.2085  -44.4753  -19.8943 F   0  0  0  0  0  0  0  0  0  0  0  0
 13 14  1  0  0  0
 14 15  2  0  0  0
 15 16  1  0  0  0
 16 17  2  0  0  0
 17 11  1  0  0  0
 11  1  1  0  0  0
  1  2  2  0  0  0
  2  3  1  0  0  0
  3  4  2  0  0  0
  4  5  1  0  0  0
  5  6  2  0  0  0
  6  7  1  0  0  0
  7 30  1  0  0  0
 30 31  1  0  0  0
 31 32  2  0  0  0
 31 33  1  0  0  0
 33 34  1  0  0  0
 34 35  1  0  0  0
 35 36  1  0  0  0
 36 37  1  0  0  0
 36 38  1  0  0  0
 38 39  1  0  0  0
 38 40  1  0  0  0
 38 41  1  0  0  0
  7  8  2  0  0  0
  8  9  1  0  0  0
  9 10  2  0  0  0
  8 28  1  0  0  0
 28 29  3  0  0  0
 17 18  1  0  0  0
 18 19  2  0  0  0
 19 20  1  0  0  0
 20 21  1  0  0  0
 21 22  2  0  0  0
 22 23  1  0  0  0
 23 24  2  0  0  0
 23 25  1  0  0  0
 25 26  1  0  0  0
 25 27  1  0  0  0
 19 14  1  0  0  0
 27 20  2  0  0  0
 10  1  1  0  0  0
  9  4  1  0  0  0
 37 33  1  0  0  0
 11 12  1  0  0  0
M  END
> <minimizedAffinity>
-7.42300

> <CNNscore>
0.3371531963

> <CNNaffinity>
7.1413698196

> <CNN_VS>
2.4077355862

> <CNNaffinity_variance>
0.1250515431

$$$$
[H]c1nc(N([H])c2c([H])c([H])c3nc([H])c(C([H])([H])C(=O)N4C([H])([H])C([H])([H])[C@@]([H])(C(F)(F)F)C4([H])[H])c(C#N)c3c2[H])nc(-c2c([H])c([H])c(=O)n(C([H])([H])[H])c2[H])c1C([H])([H])[H]


 41 45  0  0  0  0  0  0  0  0999 V2000
   -0.8099  -54.0100  -21.2536 C   0  0  0  0  0  0  0  0  0  0  0  0
   -1.6396  -54.7328  -22.0882 C   0  0  0  0  0  0  0  0  0  0  0  0
   -1.4195  -54.8380  -23.4482 C   0  0  0  0  0  0  0  0  0  0  0  0
   -0.3332  -54.2092  -24.0452 C   0  0  0  0  0  0  0  0  0  0  0  0
   -0.1154  -54.3168  -25.3678 N   0  0  0  0  0  0  0  0  0  0  0  0
    0.9238  -53.7344  -25.9847 C   0  0  0  0  0  0  0  0  0  0  0  0
    1.7958  -52.9980  -25.2177 C   0  0  0  0  0  0  0  0  0  0  0  0
    1.5968  -52.8662  -23.8437 C   0  0  0  0  0  0  0  0  0  0  0  0
    0.5049  -53.4843  -23.2302 C   0  0  0  0  0  0  0  0  0  0  0  0
    0.2760  -53.3848  -21.8721 C   0  0  0  0  0  0  0  0  0  0  0  0
   -1.0194  -53.9209  -19.8603 N   0  0  0  0  0  0  0  0  0  0  0  0
   -1.5072  -54.7063  -19.3857 H   0  0  0  0  0  0  0  0  0  0  0  0
    0.6191  -49.4391  -16.7401 C   0  0  0  0  0  0  0  0  0  0  0  0
    0.2189  -50.6133  -17.5669 C   0  0  0  0  0  0  0  0  0  0  0  0
   -0.6449  -51.5767  -17.0691 C   0  0  0  0  0  0  0  0  0  0  0  0
   -1.0314  -52.6298  -17.7943 N   0  0  0  0  0  0  0  0  0  0  0  0
   -0.6079  -52.8257  -19.0530 C   0  0  0  0  0  0  0  0  0  0  0  0
    0.2367  -51.8824  -19.5361 N   0  0  0  0  0  0  0  0  0  0  0  0
    0.6575  -50.8076  -18.8598 C   0  0  0  0  0  0  0  0  0  0  0  0
    1.5358  -49.8140  -19.4893 C   0  0  0  0  0  0  0  0  0  0  0  0
    1.0765  -48.9494  -20.4345 C   0  0  0  0  0  0  0  0  0  0  0  0
    1.9563  -48.0583  -21.0255 C   0  0  0  0  0  0  0  0  0  0  0  0
    3.2774  -48.0864  -20.6252 C   0  0  0  0  0  0  0  0  0  0  0  0
    4.0737  -47.2703  -21.1695 O   0  0  0  0  0  0  0  0  0  0  0  0
    3.7484  -48.9339  -19.6930 N   0  0  0  0  0  0  0  0  0  0  0  0
    5.1561  -48.8902  -19.3468 C   0  0  0  0  0  0  0  0  0  0  0  0
    2.8720  -49.7802  -19.1425 C   0  0  0  0  0  0  0  0  0  0  0  0
    2.4695  -52.1153  -23.0086 C   0  0  0  0  0  0  0  0  0  0  0  0
    3.1734  -51.5185  -22.3242 N   0  0  0  0  0  0  0  0  0  0  0  0
    2.9827  -52.3686  -25.8551 C   0  0  0  0  0  0  0  0  0  0  0  0
    2.6284  -50.9852  -26.2233 C   0  0  0  0  0  0  0  0  0  0  0  0
    1.5695  -50.7904  -26.8906 O   0  0  0  0  0  0  0  0  0  0  0  0
    3.4138  -49.8612  -25.8695 N   0  0  0  0  0  0  0  0  0  0  0  0
    4.6443  -49.9243  -25.1029 C   0  0  0  0  0  0  0  0  0  0  0  0
    5.2898  -48.5826  -25.2739 C   0  0  0  0  0  0  0  0  0  0  0  0
    4.4190  -47.8076  -26.2327 C   0  0  0  0  0  0  0  0  0  0  0  0
    3.1091  -48.5021  -26.2209 C   0  0  0  0  0  0  0  0  0  0  0  0
    5.0410  -47.7995  -27.6006 C   0  0  0  0  0  0  0  0  0  0  0  0
    5.2259  -46.5200  -28.0526 F   0  0  0  0  0  0  0  0  0  0  0  0
    4.1735  -48.4681  -28.4593 F   0  0  0  0  0  0  0  0  0  0  0  0
    6.2586  -48.4550  -27.5778 F   0  0  0  0  0  0  0  0  0  0  0  0
 13 14  1  0  0  0
 14 15  2  0  0  0
 15 16  1  0  0  0
 16 17  2  0  0  0
 17 11  1  0  0  0
 11  1  1  0  0  0
  1  2  2  0  0  0
  2  3  1  0  0  0
  3  4  2  0  0  0
  4  5  1  0  0  0
  5  6  2  0  0  0
  6  7  1  0  0  0
  7 30  1  0  0  0
 30 31  1  0  0  0
 31 32  2  0  0  0
 31 33  1  0  0  0
 33 34  1  0  0  0
 34 35  1  0  0  0
 35 36  1  0  0  0
 36 37  1  0  0  0
 36 38  1  0  0  0
 38 39  1  0  0  0
 38 40  1  0  0  0
 38 41  1  0  0  0
  7  8  2  0  0  0
  8  9  1  0  0  0
  9 10  2  0  0  0
  8 28  1  0  0  0
 28 29  3  0  0  0
 17 18  1  0  0  0
 18 19  2  0  0  0
 19 20  1  0  0  0
 20 21  1  0  0  0
 21 22  2  0  0  0
 22 23  1  0  0  0
 23 24  2  0  0  0
 23 25  1  0  0  0
 25 26  1  0  0  0
 25 27  1  0  0  0
 19 14  1  0  0  0
 27 20  2  0  0  0
 10  1  1  0  0  0
  9  4  1  0  0  0
 37 33  1  0  0  0
 11 12  1  0  0  0
M  END
> <minimizedAffinity>
-8.49349

> <CNNscore>
0.2589995265

> <CNNaffinity>
7.2647194862

> <CNN_VS>
1.8815588951

> <CNNaffinity_variance>
0.2387764752

$$$$
[H]c1nc(N([H])c2c([H])c([H])c3nc([H])c(C([H])([H])C(=O)N4C([H])([H])C([H])([H])[C@@]([H])(C(F)(F)F)C4([H])[H])c(C#N)c3c2[H])nc(-c2c([H])c([H])c(=O)n(C([H])([H])[H])c2[H])c1C([H])([H])[H]


 41 45  0  0  0  0  0  0  0  0999 V2000
   -0.6950  -53.9593  -21.2876 C   0  0  0  0  0  0  0  0  0  0  0  0
   -1.3328  -54.7148  -22.2519 C   0  0  0  0  0  0  0  0  0  0  0  0
   -1.1172  -54.5318  -23.6044 C   0  0  0  0  0  0  0  0  0  0  0  0
   -0.2328  -53.5615  -24.0603 C   0  0  0  0  0  0  0  0  0  0  0  0
   -0.0182  -53.3875  -25.3764 N   0  0  0  0  0  0  0  0  0  0  0  0
    0.8320  -52.4698  -25.8608 C   0  0  0  0  0  0  0  0  0  0  0  0
    1.5060  -51.6794  -24.9598 C   0  0  0  0  0  0  0  0  0  0  0  0
    1.3046  -51.8342  -23.5886 C   0  0  0  0  0  0  0  0  0  0  0  0
    0.4123  -52.7985  -23.1148 C   0  0  0  0  0  0  0  0  0  0  0  0
    0.1896  -52.9889  -21.7654 C   0  0  0  0  0  0  0  0  0  0  0  0
   -0.8957  -54.1608  -19.9048 N   0  0  0  0  0  0  0  0  0  0  0  0
   -1.1698  -55.1095  -19.5812 H   0  0  0  0  0  0  0  0  0  0  0  0
   -0.2497  -50.0217  -16.0372 C   0  0  0  0  0  0  0  0  0  0  0  0
   -0.3891  -51.1108  -17.0456 C   0  0  0  0  0  0  0  0  0  0  0  0
   -1.5123  -51.9233  -17.0693 C   0  0  0  0  0  0  0  0  0  0  0  0
   -1.6691  -52.8957  -17.9716 N   0  0  0  0  0  0  0  0  0  0  0  0
   -0.7487  -53.1513  -18.9148 C   0  0  0  0  0  0  0  0  0  0  0  0
    0.3481  -52.3557  -18.8883 N   0  0  0  0  0  0  0  0  0  0  0  0
    0.5604  -51.3673  -18.0122 C   0  0  0  0  0  0  0  0  0  0  0  0
    1.7609  -50.5267  -18.0966 C   0  0  0  0  0  0  0  0  0  0  0  0
    2.9061  -50.8456  -17.4343 C   0  0  0  0  0  0  0  0  0  0  0  0
    3.9974  -49.9973  -17.5160 C   0  0  0  0  0  0  0  0  0  0  0  0
    3.8744  -48.8505  -18.2750 C   0  0  0  0  0  0  0  0  0  0  0  0
    4.8746  -48.0816  -18.3442 O   0  0  0  0  0  0  0  0  0  0  0  0
    2.7505  -48.5196  -18.9357 N   0  0  0  0  0  0  0  0  0  0  0  0
    2.7186  -47.2878  -19.7005 C   0  0  0  0  0  0  0  0  0  0  0  0
    1.7164  -49.3611  -18.8358 C   0  0  0  0  0  0  0  0  0  0  0  0
    1.9769  -51.0413  -22.6180 C   0  0  0  0  0  0  0  0  0  0  0  0
    2.5119  -50.4061  -21.8241 N   0  0  0  0  0  0  0  0  0  0  0  0
    2.4870  -50.6766  -25.4529 C   0  0  0  0  0  0  0  0  0  0  0  0
    3.8423  -51.1622  -25.1333 C   0  0  0  0  0  0  0  0  0  0  0  0
    4.1261  -52.3704  -25.3870 O   0  0  0  0  0  0  0  0  0  0  0  0
    4.8444  -50.3457  -24.5550 N   0  0  0  0  0  0  0  0  0  0  0  0
    4.6721  -48.9452  -24.2165 C   0  0  0  0  0  0  0  0  0  0  0  0
    5.8341  -48.6024  -23.3342 C   0  0  0  0  0  0  0  0  0  0  0  0
    6.6049  -49.8831  -23.1246 C   0  0  0  0  0  0  0  0  0  0  0  0
    6.1696  -50.7855  -24.2174 C   0  0  0  0  0  0  0  0  0  0  0  0
    6.2987  -50.4515  -21.7676 C   0  0  0  0  0  0  0  0  0  0  0  0
    5.5472  -49.5805  -21.0245 F   0  0  0  0  0  0  0  0  0  0  0  0
    7.5120  -50.6750  -21.1235 F   0  0  0  0  0  0  0  0  0  0  0  0
    5.6183  -51.6491  -21.8916 F   0  0  0  0  0  0  0  0  0  0  0  0
 13 14  1  0  0  0
 14 15  2  0  0  0
 15 16  1  0  0  0
 16 17  2  0  0  0
 17 11  1  0  0  0
 11  1  1  0  0  0
  1  2  2  0  0  0
  2  3  1  0  0  0
  3  4  2  0  0  0
  4  5  1  0  0  0
  5  6  2  0  0  0
  6  7  1  0  0  0
  7 30  1  0  0  0
 30 31  1  0  0  0
 31 32  2  0  0  0
 31 33  1  0  0  0
 33 34  1  0  0  0
 34 35  1  0  0  0
 35 36  1  0  0  0
 36 37  1  0  0  0
 36 38  1  0  0  0
 38 39  1  0  0  0
 38 40  1  0  0  0
 38 41  1  0  0  0
  7  8  2  0  0  0
  8  9  1  0  0  0
  9 10  2  0  0  0
  8 28  1  0  0  0
 28 29  3  0  0  0
 17 18  1  0  0  0
 18 19  2  0  0  0
 19 20  1  0  0  0
 20 21  1  0  0  0
 21 22  2  0  0  0
 22 23  1  0  0  0
 23 24  2  0  0  0
 23 25  1  0  0  0
 25 26  1  0  0  0
 25 27  1  0  0  0
 19 14  1  0  0  0
 27 20  2  0  0  0
 10  1  1  0  0  0
  9  4  1  0  0  0
 37 33  1  0  0  0
 11 12  1  0  0  0
M  END
> <minimizedAffinity>
-8.33290

> <CNNscore>
0.2450416386

> <CNNaffinity>
7.5080137253

> <CNN_VS>
1.8397760391

> <CNNaffinity_variance>
0.0863470584

$$$$
[H]c1nc(N([H])c2c([H])c([H])c3nc([H])c(C([H])([H])C(=O)N4C([H])([H])C([H])([H])[C@@]([H])(C(F)(F)F)C4([H])[H])c(C#N)c3c2[H])nc(-c2c([H])c([H])c(=O)n(C([H])([H])[H])c2[H])c1C([H])([H])[H]


 41 45  0  0  0  0  0  0  0  0999 V2000
    3.6224  -49.2987  -25.1224 C   0  0  0  0  0  0  0  0  0  0  0  0
    3.5241  -47.9342  -25.3112 C   0  0  0  0  0  0  0  0  0  0  0  0
    3.4033  -47.0440  -24.2613 C   0  0  0  0  0  0  0  0  0  0  0  0
    3.3750  -47.4925  -22.9461 C   0  0  0  0  0  0  0  0  0  0  0  0
    3.2637  -46.6257  -21.9241 N   0  0  0  0  0  0  0  0  0  0  0  0
    3.2408  -47.0128  -20.6398 C   0  0  0  0  0  0  0  0  0  0  0  0
    3.3358  -48.3584  -20.3725 C   0  0  0  0  0  0  0  0  0  0  0  0
    3.4510  -49.2827  -21.4103 C   0  0  0  0  0  0  0  0  0  0  0  0
    3.4716  -48.8488  -22.7377 C   0  0  0  0  0  0  0  0  0  0  0  0
    3.5916  -49.7303  -23.7937 C   0  0  0  0  0  0  0  0  0  0  0  0
    3.7700  -50.2080  -26.1922 N   0  0  0  0  0  0  0  0  0  0  0  0
    4.5791  -50.0856  -26.8329 H   0  0  0  0  0  0  0  0  0  0  0  0
    0.1210  -54.4789  -27.1676 C   0  0  0  0  0  0  0  0  0  0  0  0
    1.0837  -53.3759  -26.8868 C   0  0  0  0  0  0  0  0  0  0  0  0
    1.8295  -52.8018  -27.9049 C   0  0  0  0  0  0  0  0  0  0  0  0
    2.6872  -51.8021  -27.6829 N   0  0  0  0  0  0  0  0  0  0  0  0
    2.8847  -51.2878  -26.4588 C   0  0  0  0  0  0  0  0  0  0  0  0
    2.1545  -51.8516  -25.4659 N   0  0  0  0  0  0  0  0  0  0  0  0
    1.2809  -52.8520  -25.6265 C   0  0  0  0  0  0  0  0  0  0  0  0
    0.4993  -53.3626  -24.4937 C   0  0  0  0  0  0  0  0  0  0  0  0
   -0.3711  -54.3992  -24.6341 C   0  0  0  0  0  0  0  0  0  0  0  0
   -1.1133  -54.8161  -23.5420 C   0  0  0  0  0  0  0  0  0  0  0  0
   -0.9359  -54.1536  -22.3437 C   0  0  0  0  0  0  0  0  0  0  0  0
   -1.6172  -54.5400  -21.3522 O   0  0  0  0  0  0  0  0  0  0  0  0
   -0.0806  -53.1274  -22.1873 N   0  0  0  0  0  0  0  0  0  0  0  0
    0.0279  -52.4915  -20.8883 C   0  0  0  0  0  0  0  0  0  0  0  0
    0.6204  -52.7510  -23.2616 C   0  0  0  0  0  0  0  0  0  0  0  0
    3.5513  -50.6835  -21.1852 C   0  0  0  0  0  0  0  0  0  0  0  0
    3.6398  -51.8163  -21.0149 N   0  0  0  0  0  0  0  0  0  0  0  0
    3.3540  -48.8271  -18.9615 C   0  0  0  0  0  0  0  0  0  0  0  0
    1.9972  -49.2865  -18.6111 C   0  0  0  0  0  0  0  0  0  0  0  0
    1.0399  -48.9871  -19.3847 O   0  0  0  0  0  0  0  0  0  0  0  0
    1.7090  -50.0460  -17.4511 N   0  0  0  0  0  0  0  0  0  0  0  0
    2.6979  -50.4711  -16.4780 C   0  0  0  0  0  0  0  0  0  0  0  0
    1.9133  -50.9225  -15.2834 C   0  0  0  0  0  0  0  0  0  0  0  0
    0.4622  -50.6488  -15.5960 C   0  0  0  0  0  0  0  0  0  0  0  0
    0.4004  -50.4996  -17.0697 C   0  0  0  0  0  0  0  0  0  0  0  0
    0.0082  -49.4061  -14.8834 C   0  0  0  0  0  0  0  0  0  0  0  0
   -1.1183  -49.6444  -14.1419 F   0  0  0  0  0  0  0  0  0  0  0  0
   -0.2748  -48.4475  -15.8520 F   0  0  0  0  0  0  0  0  0  0  0  0
    1.0094  -48.9364  -14.0529 F   0  0  0  0  0  0  0  0  0  0  0  0
 13 14  1  0  0  0
 14 15  2  0  0  0
 15 16  1  0  0  0
 16 17  2  0  0  0
 17 11  1  0  0  0
 11  1  1  0  0  0
  1  2  2  0  0  0
  2  3  1  0  0  0
  3  4  2  0  0  0
  4  5  1  0  0  0
  5  6  2  0  0  0
  6  7  1  0  0  0
  7 30  1  0  0  0
 30 31  1  0  0  0
 31 32  2  0  0  0
 31 33  1  0  0  0
 33 34  1  0  0  0
 34 35  1  0  0  0
 35 36  1  0  0  0
 36 37  1  0  0  0
 36 38  1  0  0  0
 38 39  1  0  0  0
 38 40  1  0  0  0
 38 41  1  0  0  0
  7  8  2  0  0  0
  8  9  1  0  0  0
  9 10  2  0  0  0
  8 28  1  0  0  0
 28 29  3  0  0  0
 17 18  1  0  0  0
 18 19  2  0  0  0
 19 20  1  0  0  0
 20 21  1  0  0  0
 21 22  2  0  0  0
 22 23  1  0  0  0
 23 24  2  0  0  0
 23 25  1  0  0  0
 25 26  1  0  0  0
 25 27  1  0  0  0
 19 14  1  0  0  0
 27 20  2  0  0  0
 10  1  1  0  0  0
  9  4  1  0  0  0
 37 33  1  0  0  0
 11 12  1  0  0  0
M  END
> <minimizedAffinity>
-8.14643

> <CNNscore>
0.2223134935

> <CNNaffinity>
7.3591971397

> <CNN_VS>
1.6360487938

> <CNNaffinity_variance>
0.0953871012

$$$$
[H]c1nc(N([H])c2c([H])c([H])c3nc([H])c(C([H])([H])C(=O)N4C([H])([H])C([H])([H])[C@@]([H])(C(F)(F)F)C4([H])[H])c(C#N)c3c2[H])nc(-c2c([H])c([H])c(=O)n(C([H])([H])[H])c2[H])c1C([H])([H])[H]


 41 45  0  0  0  0  0  0  0  0999 V2000
    0.2360  -51.5175  -20.0037 C   0  0  0  0  0  0  0  0  0  0  0  0
    0.3088  -51.3859  -18.6309 C   0  0  0  0  0  0  0  0  0  0  0  0
    1.4360  -50.9130  -17.9869 C   0  0  0  0  0  0  0  0  0  0  0  0
    2.5657  -50.5427  -18.7069 C   0  0  0  0  0  0  0  0  0  0  0  0
    3.6607  -50.0766  -18.0806 N   0  0  0  0  0  0  0  0  0  0  0  0
    4.7694  -49.6999  -18.7352 C   0  0  0  0  0  0  0  0  0  0  0  0
    4.7716  -49.8011  -20.1066 C   0  0  0  0  0  0  0  0  0  0  0  0
    3.6523  -50.2818  -20.7855 C   0  0  0  0  0  0  0  0  0  0  0  0
    2.5127  -50.6667  -20.0758 C   0  0  0  0  0  0  0  0  0  0  0  0
    1.3814  -51.1408  -20.7100 C   0  0  0  0  0  0  0  0  0  0  0  0
   -0.9231  -51.9777  -20.6654 N   0  0  0  0  0  0  0  0  0  0  0  0
   -1.8375  -51.5597  -20.4025 H   0  0  0  0  0  0  0  0  0  0  0  0
   -0.8090  -55.9649  -24.7393 C   0  0  0  0  0  0  0  0  0  0  0  0
   -0.8430  -54.9011  -23.6955 C   0  0  0  0  0  0  0  0  0  0  0  0
   -1.4844  -55.1089  -22.4840 C   0  0  0  0  0  0  0  0  0  0  0  0
   -1.5162  -54.1784  -21.5261 N   0  0  0  0  0  0  0  0  0  0  0  0
   -0.9299  -52.9798  -21.6736 C   0  0  0  0  0  0  0  0  0  0  0  0
   -0.3044  -52.7800  -22.8591 N   0  0  0  0  0  0  0  0  0  0  0  0
   -0.2378  -53.6722  -23.8537 C   0  0  0  0  0  0  0  0  0  0  0  0
    0.5078  -53.3792  -25.0838 C   0  0  0  0  0  0  0  0  0  0  0  0
    1.8526  -53.1712  -25.0733 C   0  0  0  0  0  0  0  0  0  0  0  0
    2.5014  -52.8590  -26.2560 C   0  0  0  0  0  0  0  0  0  0  0  0
    1.7462  -52.7708  -27.4085 C   0  0  0  0  0  0  0  0  0  0  0  0
    2.3458  -52.4851  -28.4834 O   0  0  0  0  0  0  0  0  0  0  0  0
    0.4168  -52.9729  -27.4371 N   0  0  0  0  0  0  0  0  0  0  0  0
   -0.2884  -52.8494  -28.6984 C   0  0  0  0  0  0  0  0  0  0  0  0
   -0.1776  -53.2731  -26.2778 C   0  0  0  0  0  0  0  0  0  0  0  0
    3.6061  -50.4056  -22.2016 C   0  0  0  0  0  0  0  0  0  0  0  0
    3.5754  -50.5178  -23.3446 N   0  0  0  0  0  0  0  0  0  0  0  0
    5.9656  -49.3573  -20.8736 C   0  0  0  0  0  0  0  0  0  0  0  0
    6.4318  -48.0803  -20.3021 C   0  0  0  0  0  0  0  0  0  0  0  0
    7.4687  -48.0873  -19.5744 O   0  0  0  0  0  0  0  0  0  0  0  0
    5.7776  -46.8442  -20.5244 N   0  0  0  0  0  0  0  0  0  0  0  0
    4.5882  -46.6764  -21.3385 C   0  0  0  0  0  0  0  0  0  0  0  0
    4.0668  -45.3112  -21.0058 C   0  0  0  0  0  0  0  0  0  0  0  0
    4.9574  -44.7667  -19.9155 C   0  0  0  0  0  0  0  0  0  0  0  0
    6.1932  -45.5837  -19.9748 C   0  0  0  0  0  0  0  0  0  0  0  0
    4.2690  -44.8805  -18.5846 C   0  0  0  0  0  0  0  0  0  0  0  0
    2.9551  -45.2360  -18.7357 F   0  0  0  0  0  0  0  0  0  0  0  0
    4.3388  -43.6341  -17.9690 F   0  0  0  0  0  0  0  0  0  0  0  0
    4.9067  -45.8185  -17.7933 F   0  0  0  0  0  0  0  0  0  0  0  0
 13 14  1  0  0  0
 14 15  2  0  0  0
 15 16  1  0  0  0
 16 17  2  0  0  0
 17 11  1  0  0  0
 11  1  1  0  0  0
  1  2  2  0  0  0
  2  3  1  0  0  0
  3  4  2  0  0  0
  4  5  1  0  0  0
  5  6  2  0  0  0
  6  7  1  0  0  0
  7 30  1  0  0  0
 30 31  1  0  0  0
 31 32  2  0  0  0
 31 33  1  0  0  0
 33 34  1  0  0  0
 34 35  1  0  0  0
 35 36  1  0  0  0
 36 37  1  0  0  0
 36 38  1  0  0  0
 38 39  1  0  0  0
 38 40  1  0  0  0
 38 41  1  0  0  0
  7  8  2  0  0  0
  8  9  1  0  0  0
  9 10  2  0  0  0
  8 28  1  0  0  0
 28 29  3  0  0  0
 17 18  1  0  0  0
 18 19  2  0  0  0
 19 20  1  0  0  0
 20 21  1  0  0  0
 21 22  2  0  0  0
 22 23  1  0  0  0
 23 24  2  0  0  0
 23 25  1  0  0  0
 25 26  1  0  0  0
 25 27  1  0  0  0
 19 14  1  0  0  0
 27 20  2  0  0  0
 10  1  1  0  0  0
  9  4  1  0  0  0
 37 33  1  0  0  0
 11 12  1  0  0  0
M  END
> <minimizedAffinity>
-7.25966

> <CNNscore>
0.2181873024

> <CNNaffinity>
7.3826265335

> <CNN_VS>
1.6107953787

> <CNNaffinity_variance>
0.0945417359

$$$$
[H]c1nc2c(c([H])c1C(=O)N([H])c1c([H])c(C(=O)N([H])C([H])([H])c3sc(C([H])([H])N4C([H])([H])C([H])([H])OC([H])([H])C4([H])[H])c([H])c3[H])c([H])c([H])c1OC([H])([H])[H])c(-c1c([H])c([H])c([H])c(C(F)(F)F)c1[H])c([H])n2[H]


 49 54  0  0  0  0  0  0  0  0999 V2000
    1.4612  -52.6180  -25.4081 C   0  0  0  0  0  0  0  0  0  0  0  0
    2.1591  -52.3840  -26.5630 C   0  0  0  0  0  0  0  0  0  0  0  0
    2.8826  -51.2085  -26.7493 C   0  0  0  0  0  0  0  0  0  0  0  0
    2.8903  -50.2629  -25.7431 C   0  0  0  0  0  0  0  0  0  0  0  0
    2.1930  -50.4965  -24.5957 C   0  0  0  0  0  0  0  0  0  0  0  0
    1.4633  -51.6571  -24.3769 C   0  0  0  0  0  0  0  0  0  0  0  0
    0.7712  -51.9655  -23.1968 N   0  0  0  0  0  0  0  0  0  0  0  0
    1.2214  -52.0018  -21.8812 C   0  0  0  0  0  0  0  0  0  0  0  0
    2.4033  -51.7211  -21.5778 O   0  0  0  0  0  0  0  0  0  0  0  0
   -0.2653  -52.2200  -23.3091 H   0  0  0  0  0  0  0  0  0  0  0  0
    0.3351  -52.3733  -20.7586 C   0  0  0  0  0  0  0  0  0  0  0  0
   -0.6812  -53.2897  -20.9335 C   0  0  0  0  0  0  0  0  0  0  0  0
   -1.5044  -53.6451  -19.9401 N   0  0  0  0  0  0  0  0  0  0  0  0
   -1.3499  -53.0989  -18.7197 C   0  0  0  0  0  0  0  0  0  0  0  0
   -2.0084  -53.2512  -17.5455 N   0  0  0  0  0  0  0  0  0  0  0  0
   -1.4660  -52.4698  -16.6063 C   0  0  0  0  0  0  0  0  0  0  0  0
   -0.3948  -51.7599  -17.1740 C   0  0  0  0  0  0  0  0  0  0  0  0
   -0.3419  -52.1642  -18.4742 C   0  0  0  0  0  0  0  0  0  0  0  0
    0.5111  -51.8059  -19.5318 C   0  0  0  0  0  0  0  0  0  0  0  0
   -2.8154  -53.9022  -17.4486 H   0  0  0  0  0  0  0  0  0  0  0  0
    0.4409  -50.7853  -16.4963 C   0  0  0  0  0  0  0  0  0  0  0  0
    0.0027  -49.4486  -16.5586 C   0  0  0  0  0  0  0  0  0  0  0  0
    0.6659  -48.4191  -15.9744 C   0  0  0  0  0  0  0  0  0  0  0  0
    1.8158  -48.6830  -15.2905 C   0  0  0  0  0  0  0  0  0  0  0  0
    2.2675  -50.0059  -15.2183 C   0  0  0  0  0  0  0  0  0  0  0  0
    1.5835  -51.0524  -15.8175 C   0  0  0  0  0  0  0  0  0  0  0  0
    3.5248  -50.1974  -14.4624 C   0  0  0  0  0  0  0  0  0  0  0  0
    4.2672  -49.0231  -14.5343 F   0  0  0  0  0  0  0  0  0  0  0  0
    3.3171  -50.5804  -13.1718 F   0  0  0  0  0  0  0  0  0  0  0  0
    4.2643  -51.1781  -15.1442 F   0  0  0  0  0  0  0  0  0  0  0  0
    3.7079  -49.0424  -25.8941 C   0  0  0  0  0  0  0  0  0  0  0  0
    3.2741  -47.9982  -25.3648 O   0  0  0  0  0  0  0  0  0  0  0  0
    4.9229  -49.0460  -26.5940 N   0  0  0  0  0  0  0  0  0  0  0  0
    5.1927  -50.0008  -27.0181 H   0  0  0  0  0  0  0  0  0  0  0  0
    5.8424  -48.0107  -26.8419 C   0  0  0  0  0  0  0  0  0  0  0  0
    5.8220  -47.3865  -28.1898 C   0  0  0  0  0  0  0  0  0  0  0  0
    6.4218  -47.7861  -29.3564 C   0  0  0  0  0  0  0  0  0  0  0  0
    6.2067  -47.0570  -30.4575 C   0  0  0  0  0  0  0  0  0  0  0  0
    5.3982  -45.9563  -30.3370 C   0  0  0  0  0  0  0  0  0  0  0  0
    4.9665  -45.9716  -28.6958 S   0  0  0  0  0  0  0  0  0  0  0  0
    5.0170  -45.0294  -31.4419 C   0  0  0  0  0  0  0  0  0  0  0  0
    3.9963  -45.5206  -32.3052 N   0  0  0  0  0  0  0  0  0  0  0  0
    3.0845  -46.4732  -31.6977 C   0  0  0  0  0  0  0  0  0  0  0  0
    2.1109  -46.8502  -32.8289 C   0  0  0  0  0  0  0  0  0  0  0  0
    2.7957  -47.7315  -33.6645 O   0  0  0  0  0  0  0  0  0  0  0  0
    4.1472  -47.5056  -33.7315 C   0  0  0  0  0  0  0  0  0  0  0  0
    4.5159  -46.0417  -33.5608 C   0  0  0  0  0  0  0  0  0  0  0  0
    0.1105  -54.4591  -26.2731 C   0  0  0  0  0  0  0  0  0  0  0  0
    0.7450  -53.7827  -25.2147 O   0  0  0  0  0  0  0  0  0  0  0  0
 48 49  1  0  0  0
 49  1  1  0  0  0
  1  2  2  0  0  0
  2  3  1  0  0  0
  3  4  2  0  0  0
  4  5  1  0  0  0
  5  6  2  0  0  0
  6  7  1  0  0  0
  7  8  1  0  0  0
  8  9  2  0  0  0
  8 11  1  0  0  0
 11 12  2  0  0  0
 12 13  1  0  0  0
 13 14  2  0  0  0
 14 15  1  0  0  0
 15 16  1  0  0  0
 16 17  2  0  0  0
 17 21  1  0  0  0
 21 22  2  0  0  0
 22 23  1  0  0  0
 23 24  2  0  0  0
 24 25  1  0  0  0
 25 26  2  0  0  0
 25 27  1  0  0  0
 27 28  1  0  0  0
 27 29  1  0  0  0
 27 30  1  0  0  0
 17 18  1  0  0  0
 18 19  2  0  0  0
  4 31  1  0  0  0
 31 32  2  0  0  0
 31 33  1  0  0  0
 33 35  1  0  0  0
 35 36  1  0  0  0
 36 37  2  0  0  0
 37 38  1  0  0  0
 38 39  2  0  0  0
 39 41  1  0  0  0
 41 42  1  0  0  0
 42 43  1  0  0  0
 43 44  1  0  0  0
 44 45  1  0  0  0
 45 46  1  0  0  0
 46 47  1  0  0  0
 39 40  1  0  0  0
  6  1  1  0  0  0
 19 11  1  0  0  0
 40 36  1  0  0  0
 18 14  1  0  0  0
 47 42  1  0  0  0
 26 21  1  0  0  0
  7 10  1  0  0  0
 15 20  1  0  0  0
 33 34  1  0  0  0
M  END
> <minimizedAffinity>
-8.32326

> <CNNscore>
0.2564942837

> <CNNaffinity>
6.8024916649

> <CNN_VS>
1.7448002100

> <CNNaffinity_variance>
0.4998124540

$$$$
[H]c1nc2c(c([H])c1C(=O)N([H])c1c([H])c(C(=O)N([H])C([H])([H])c3sc(C([H])([H])N4C([H])([H])C([H])([H])OC([H])([H])C4([H])[H])c([H])c3[H])c([H])c([H])c1OC([H])([H])[H])c(-c1c([H])c([H])c([H])c(C(F)(F)F)c1[H])c([H])n2[H]


 49 54  0  0  0  0  0  0  0  0999 V2000
    3.5481  -48.0521  -19.5339 C   0  0  0  0  0  0  0  0  0  0  0  0
    4.1820  -46.8703  -19.2561 C   0  0  0  0  0  0  0  0  0  0  0  0
    4.3246  -45.8776  -20.2227 C   0  0  0  0  0  0  0  0  0  0  0  0
    3.8138  -46.0981  -21.4864 C   0  0  0  0  0  0  0  0  0  0  0  0
    3.1857  -47.2759  -21.7615 C   0  0  0  0  0  0  0  0  0  0  0  0
    3.0250  -48.2851  -20.8218 C   0  0  0  0  0  0  0  0  0  0  0  0
    2.3448  -49.4917  -21.0409 N   0  0  0  0  0  0  0  0  0  0  0  0
    0.9791  -49.7494  -21.0969 C   0  0  0  0  0  0  0  0  0  0  0  0
    0.1278  -48.8415  -20.9597 O   0  0  0  0  0  0  0  0  0  0  0  0
    2.9577  -50.3610  -21.1841 H   0  0  0  0  0  0  0  0  0  0  0  0
    0.4457  -51.1090  -21.3215 C   0  0  0  0  0  0  0  0  0  0  0  0
    0.0191  -51.8850  -20.2636 C   0  0  0  0  0  0  0  0  0  0  0  0
   -0.4647  -53.1213  -20.4311 N   0  0  0  0  0  0  0  0  0  0  0  0
   -0.5452  -53.6429  -21.6693 C   0  0  0  0  0  0  0  0  0  0  0  0
   -0.9762  -54.8351  -22.1472 N   0  0  0  0  0  0  0  0  0  0  0  0
   -0.8481  -54.8740  -23.4771 C   0  0  0  0  0  0  0  0  0  0  0  0
   -0.3065  -53.6534  -23.9137 C   0  0  0  0  0  0  0  0  0  0  0  0
   -0.1298  -52.9118  -22.7842 C   0  0  0  0  0  0  0  0  0  0  0  0
    0.3747  -51.6155  -22.5851 C   0  0  0  0  0  0  0  0  0  0  0  0
   -1.3469  -55.5775  -21.5180 H   0  0  0  0  0  0  0  0  0  0  0  0
    0.0130  -53.3005  -25.2852 C   0  0  0  0  0  0  0  0  0  0  0  0
    1.3777  -53.0983  -25.5673 C   0  0  0  0  0  0  0  0  0  0  0  0
    1.8431  -52.7688  -26.7984 C   0  0  0  0  0  0  0  0  0  0  0  0
    0.9515  -52.6239  -27.8200 C   0  0  0  0  0  0  0  0  0  0  0  0
   -0.4096  -52.8204  -27.5585 C   0  0  0  0  0  0  0  0  0  0  0  0
   -0.8770  -53.1577  -26.2976 C   0  0  0  0  0  0  0  0  0  0  0  0
   -1.3034  -52.6365  -28.7230 C   0  0  0  0  0  0  0  0  0  0  0  0
   -2.5932  -52.4016  -28.2576 F   0  0  0  0  0  0  0  0  0  0  0  0
   -0.8866  -51.6489  -29.5635 F   0  0  0  0  0  0  0  0  0  0  0  0
   -1.3434  -53.8648  -29.4035 F   0  0  0  0  0  0  0  0  0  0  0  0
    3.8937  -45.0300  -22.5032 C   0  0  0  0  0  0  0  0  0  0  0  0
    4.1547  -43.8782  -22.0985 O   0  0  0  0  0  0  0  0  0  0  0  0
    3.6929  -45.2880  -23.8667 N   0  0  0  0  0  0  0  0  0  0  0  0
    3.4630  -46.3164  -24.0988 H   0  0  0  0  0  0  0  0  0  0  0  0
    3.7328  -44.4281  -24.9791 C   0  0  0  0  0  0  0  0  0  0  0  0
    3.3545  -44.9979  -26.2978 C   0  0  0  0  0  0  0  0  0  0  0  0
    2.2595  -45.7416  -26.6562 C   0  0  0  0  0  0  0  0  0  0  0  0
    2.1335  -46.0996  -27.9392 C   0  0  0  0  0  0  0  0  0  0  0  0
    3.1155  -45.6951  -28.8062 C   0  0  0  0  0  0  0  0  0  0  0  0
    4.1819  -44.8322  -27.8069 S   0  0  0  0  0  0  0  0  0  0  0  0
    3.1513  -45.9689  -30.2722 C   0  0  0  0  0  0  0  0  0  0  0  0
    3.6715  -47.2466  -30.6264 N   0  0  0  0  0  0  0  0  0  0  0  0
    4.9782  -47.5522  -30.0724 C   0  0  0  0  0  0  0  0  0  0  0  0
    5.3076  -48.9553  -30.6135 C   0  0  0  0  0  0  0  0  0  0  0  0
    5.6871  -48.7881  -31.9446 O   0  0  0  0  0  0  0  0  0  0  0  0
    5.0614  -47.7455  -32.5799 C   0  0  0  0  0  0  0  0  0  0  0  0
    3.6567  -47.4884  -32.0614 C   0  0  0  0  0  0  0  0  0  0  0  0
    3.0443  -48.7505  -17.2490 C   0  0  0  0  0  0  0  0  0  0  0  0
    3.3996  -49.0391  -18.5797 O   0  0  0  0  0  0  0  0  0  0  0  0
 48 49  1  0  0  0
 49  1  1  0  0  0
  1  2  2  0  0  0
  2  3  1  0  0  0
  3  4  2  0  0  0
  4  5  1  0  0  0
  5  6  2  0  0  0
  6  7  1  0  0  0
  7  8  1  0  0  0
  8  9  2  0  0  0
  8 11  1  0  0  0
 11 12  2  0  0  0
 12 13  1  0  0  0
 13 14  2  0  0  0
 14 15  1  0  0  0
 15 16  1  0  0  0
 16 17  2  0  0  0
 17 21  1  0  0  0
 21 22  2  0  0  0
 22 23  1  0  0  0
 23 24  2  0  0  0
 24 25  1  0  0  0
 25 26  2  0  0  0
 25 27  1  0  0  0
 27 28  1  0  0  0
 27 29  1  0  0  0
 27 30  1  0  0  0
 17 18  1  0  0  0
 18 19  2  0  0  0
  4 31  1  0  0  0
 31 32  2  0  0  0
 31 33  1  0  0  0
 33 35  1  0  0  0
 35 36  1  0  0  0
 36 37  2  0  0  0
 37 38  1  0  0  0
 38 39  2  0  0  0
 39 41  1  0  0  0
 41 42  1  0  0  0
 42 43  1  0  0  0
 43 44  1  0  0  0
 44 45  1  0  0  0
 45 46  1  0  0  0
 46 47  1  0  0  0
 39 40  1  0  0  0
  6  1  1  0  0  0
 19 11  1  0  0  0
 40 36  1  0  0  0
 18 14  1  0  0  0
 47 42  1  0  0  0
 26 21  1  0  0  0
  7 10  1  0  0  0
 15 20  1  0  0  0
 33 34  1  0  0  0
M  END
> <minimizedAffinity>
-9.13473

> <CNNscore>
0.2343805730

> <CNNaffinity>
7.1380453110

> <CNN_VS>
1.6730191708

> <CNNaffinity_variance>
0.2358956784

$$$$
[H]c1nc2c(c([H])c1C(=O)N([H])c1c([H])c(C(=O)N([H])C([H])([H])c3sc(C([H])([H])N4C([H])([H])C([H])([H])OC([H])([H])C4([H])[H])c([H])c3[H])c([H])c([H])c1OC([H])([H])[H])c(-c1c([H])c([H])c([H])c(C(F)(F)F)c1[H])c([H])n2[H]


 49 54  0  0  0  0  0  0  0  0999 V2000
    4.6559  -48.1182  -28.0292 C   0  0  0  0  0  0  0  0  0  0  0  0
    5.4861  -47.0372  -28.1614 C   0  0  0  0  0  0  0  0  0  0  0  0
    5.7011  -46.1529  -27.1069 C   0  0  0  0  0  0  0  0  0  0  0  0
    5.0583  -46.3776  -25.9057 C   0  0  0  0  0  0  0  0  0  0  0  0
    4.2304  -47.4525  -25.7771 C   0  0  0  0  0  0  0  0  0  0  0  0
    3.9953  -48.3538  -26.8066 C   0  0  0  0  0  0  0  0  0  0  0  0
    3.1931  -49.4998  -26.7090 N   0  0  0  0  0  0  0  0  0  0  0  0
    3.3357  -50.6236  -25.9018 C   0  0  0  0  0  0  0  0  0  0  0  0
    4.2784  -50.7372  -25.0856 O   0  0  0  0  0  0  0  0  0  0  0  0
    2.3355  -49.5332  -27.3535 H   0  0  0  0  0  0  0  0  0  0  0  0
    2.3855  -51.7540  -25.9555 C   0  0  0  0  0  0  0  0  0  0  0  0
    2.1730  -52.4439  -27.1312 C   0  0  0  0  0  0  0  0  0  0  0  0
    1.3168  -53.4688  -27.2158 N   0  0  0  0  0  0  0  0  0  0  0  0
    0.6294  -53.8542  -26.1247 C   0  0  0  0  0  0  0  0  0  0  0  0
   -0.2857  -54.8279  -25.9012 N   0  0  0  0  0  0  0  0  0  0  0  0
   -0.6843  -54.8041  -24.6255 C   0  0  0  0  0  0  0  0  0  0  0  0
   -0.0073  -53.7678  -23.9610 C   0  0  0  0  0  0  0  0  0  0  0  0
    0.7960  -53.1985  -24.9031 C   0  0  0  0  0  0  0  0  0  0  0  0
    1.7005  -52.1251  -24.8370 C   0  0  0  0  0  0  0  0  0  0  0  0
   -0.5945  -55.4753  -26.6562 H   0  0  0  0  0  0  0  0  0  0  0  0
   -0.1744  -53.3908  -22.5691 C   0  0  0  0  0  0  0  0  0  0  0  0
   -1.1168  -54.1386  -21.8373 C   0  0  0  0  0  0  0  0  0  0  0  0
   -1.3879  -53.9171  -20.5264 C   0  0  0  0  0  0  0  0  0  0  0  0
   -0.7189  -52.9221  -19.8769 C   0  0  0  0  0  0  0  0  0  0  0  0
    0.2214  -52.1675  -20.5882 C   0  0  0  0  0  0  0  0  0  0  0  0
    0.4932  -52.4007  -21.9276 C   0  0  0  0  0  0  0  0  0  0  0  0
    0.8935  -51.1068  -19.8059 C   0  0  0  0  0  0  0  0  0  0  0  0
    0.2657  -49.8946  -20.0739 F   0  0  0  0  0  0  0  0  0  0  0  0
    0.9252  -51.3697  -18.4697 F   0  0  0  0  0  0  0  0  0  0  0  0
    2.2010  -50.9973  -20.3078 F   0  0  0  0  0  0  0  0  0  0  0  0
    5.3283  -45.4910  -24.7558 C   0  0  0  0  0  0  0  0  0  0  0  0
    6.4679  -44.9868  -24.6818 O   0  0  0  0  0  0  0  0  0  0  0  0
    4.3527  -45.2159  -23.7870 N   0  0  0  0  0  0  0  0  0  0  0  0
    3.4094  -45.7148  -23.9469 H   0  0  0  0  0  0  0  0  0  0  0  0
    4.4029  -44.4055  -22.6384 C   0  0  0  0  0  0  0  0  0  0  0  0
    4.0856  -45.0454  -21.3358 C   0  0  0  0  0  0  0  0  0  0  0  0
    3.7826  -46.3508  -21.0446 C   0  0  0  0  0  0  0  0  0  0  0  0
    3.5764  -46.6792  -19.7641 C   0  0  0  0  0  0  0  0  0  0  0  0
    3.6827  -45.6797  -18.8316 C   0  0  0  0  0  0  0  0  0  0  0  0
    4.0638  -44.3165  -19.7680 S   0  0  0  0  0  0  0  0  0  0  0  0
    3.5132  -45.8401  -17.3583 C   0  0  0  0  0  0  0  0  0  0  0  0
    4.6477  -45.4630  -16.5842 N   0  0  0  0  0  0  0  0  0  0  0  0
    5.5768  -46.5398  -16.2923 C   0  0  0  0  0  0  0  0  0  0  0  0
    6.6798  -45.8784  -15.4463 C   0  0  0  0  0  0  0  0  0  0  0  0
    6.1530  -45.7140  -14.1659 O   0  0  0  0  0  0  0  0  0  0  0  0
    4.7993  -45.4930  -14.1402 C   0  0  0  0  0  0  0  0  0  0  0  0
    4.2932  -44.7510  -15.3655 C   0  0  0  0  0  0  0  0  0  0  0  0
    5.3431  -49.1337  -30.1408 C   0  0  0  0  0  0  0  0  0  0  0  0
    4.4411  -49.0013  -29.0689 O   0  0  0  0  0  0  0  0  0  0  0  0
 48 49  1  0  0  0
 49  1  1  0  0  0
  1  2  2  0  0  0
  2  3  1  0  0  0
  3  4  2  0  0  0
  4  5  1  0  0  0
  5  6  2  0  0  0
  6  7  1  0  0  0
  7  8  1  0  0  0
  8  9  2  0  0  0
  8 11  1  0  0  0
 11 12  2  0  0  0
 12 13  1  0  0  0
 13 14  2  0  0  0
 14 15  1  0  0  0
 15 16  1  0  0  0
 16 17  2  0  0  0
 17 21  1  0  0  0
 21 22  2  0  0  0
 22 23  1  0  0  0
 23 24  2  0  0  0
 24 25  1  0  0  0
 25 26  2  0  0  0
 25 27  1  0  0  0
 27 28  1  0  0  0
 27 29  1  0  0  0
 27 30  1  0  0  0
 17 18  1  0  0  0
 18 19  2  0  0  0
  4 31  1  0  0  0
 31 32  2  0  0  0
 31 33  1  0  0  0
 33 35  1  0  0  0
 35 36  1  0  0  0
 36 37  2  0  0  0
 37 38  1  0  0  0
 38 39  2  0  0  0
 39 41  1  0  0  0
 41 42  1  0  0  0
 42 43  1  0  0  0
 43 44  1  0  0  0
 44 45  1  0  0  0
 45 46  1  0  0  0
 46 47  1  0  0  0
 39 40  1  0  0  0
  6  1  1  0  0  0
 19 11  1  0  0  0
 40 36  1  0  0  0
 18 14  1  0  0  0
 47 42  1  0  0  0
 26 21  1  0  0  0
  7 10  1  0  0  0
 15 20  1  0  0  0
 33 34  1  0  0  0
M  END
> <minimizedAffinity>
-7.64583

> <CNNscore>
0.0900630951

> <CNNaffinity>
6.7311439514

> <CNN_VS>
0.6062276363

> <CNNaffinity_variance>
0.1682928056

$$$$
[H]c1nc2c(c([H])c1C(=O)N([H])c1c([H])c(C(=O)N([H])C([H])([H])c3sc(C([H])([H])N4C([H])([H])C([H])([H])OC([H])([H])C4([H])[H])c([H])c3[H])c([H])c([H])c1OC([H])([H])[H])c(-c1c([H])c([H])c([H])c(C(F)(F)F)c1[H])c([H])n2[H]


 49 54  0  0  0  0  0  0  0  0999 V2000
    0.9359  -52.5508  -23.1857 C   0  0  0  0  0  0  0  0  0  0  0  0
    1.6120  -52.5348  -24.3766 C   0  0  0  0  0  0  0  0  0  0  0  0
    2.4009  -51.4492  -24.7497 C   0  0  0  0  0  0  0  0  0  0  0  0
    2.4971  -50.3689  -23.8950 C   0  0  0  0  0  0  0  0  0  0  0  0
    1.8213  -50.3857  -22.7117 C   0  0  0  0  0  0  0  0  0  0  0  0
    1.0281  -51.4515  -22.3085 C   0  0  0  0  0  0  0  0  0  0  0  0
    0.3539  -51.5376  -21.0819 N   0  0  0  0  0  0  0  0  0  0  0  0
    0.8326  -51.8816  -19.8220 C   0  0  0  0  0  0  0  0  0  0  0  0
    2.0366  -52.1638  -19.6256 O   0  0  0  0  0  0  0  0  0  0  0  0
   -0.6951  -51.3114  -21.1018 H   0  0  0  0  0  0  0  0  0  0  0  0
   -0.0474  -51.9361  -18.6362 C   0  0  0  0  0  0  0  0  0  0  0  0
   -0.9395  -52.9744  -18.4647 C   0  0  0  0  0  0  0  0  0  0  0  0
   -1.7536  -53.0520  -17.4056 N   0  0  0  0  0  0  0  0  0  0  0  0
   -1.7145  -52.0914  -16.4637 C   0  0  0  0  0  0  0  0  0  0  0  0
   -2.3968  -51.8958  -15.3096 N   0  0  0  0  0  0  0  0  0  0  0  0
   -1.9895  -50.7692  -14.7168 C   0  0  0  0  0  0  0  0  0  0  0  0
   -0.9887  -50.1802  -15.5074 C   0  0  0  0  0  0  0  0  0  0  0  0
   -0.8357  -51.0119  -16.5758 C   0  0  0  0  0  0  0  0  0  0  0  0
    0.0103  -50.9507  -17.6961 C   0  0  0  0  0  0  0  0  0  0  0  0
   -3.1237  -52.5653  -14.9811 H   0  0  0  0  0  0  0  0  0  0  0  0
   -0.3028  -48.9312  -15.2295 C   0  0  0  0  0  0  0  0  0  0  0  0
    1.0892  -49.0222  -15.0374 C   0  0  0  0  0  0  0  0  0  0  0  0
    1.8768  -47.9492  -14.7745 C   0  0  0  0  0  0  0  0  0  0  0  0
    1.2998  -46.7165  -14.6900 C   0  0  0  0  0  0  0  0  0  0  0  0
   -0.0830  -46.6063  -14.8775 C   0  0  0  0  0  0  0  0  0  0  0  0
   -0.8808  -47.7078  -15.1466 C   0  0  0  0  0  0  0  0  0  0  0  0
   -0.6227  -45.2337  -14.7620 C   0  0  0  0  0  0  0  0  0  0  0  0
    0.4308  -44.3329  -14.8814 F   0  0  0  0  0  0  0  0  0  0  0  0
   -1.6099  -44.9720  -15.6634 F   0  0  0  0  0  0  0  0  0  0  0  0
   -1.1153  -45.0987  -13.4534 F   0  0  0  0  0  0  0  0  0  0  0  0
    3.3837  -49.2399  -24.2418 C   0  0  0  0  0  0  0  0  0  0  0  0
    2.9807  -48.0927  -23.9589 O   0  0  0  0  0  0  0  0  0  0  0  0
    4.6285  -49.4367  -24.8564 N   0  0  0  0  0  0  0  0  0  0  0  0
    4.8676  -50.4682  -25.0638 H   0  0  0  0  0  0  0  0  0  0  0  0
    5.6115  -48.5129  -25.2550 C   0  0  0  0  0  0  0  0  0  0  0  0
    5.8307  -48.3342  -26.7134 C   0  0  0  0  0  0  0  0  0  0  0  0
    6.9698  -47.9997  -27.3999 C   0  0  0  0  0  0  0  0  0  0  0  0
    6.9074  -47.9454  -28.7353 C   0  0  0  0  0  0  0  0  0  0  0  0
    5.7013  -48.2287  -29.3225 C   0  0  0  0  0  0  0  0  0  0  0  0
    4.6943  -48.5589  -27.9969 S   0  0  0  0  0  0  0  0  0  0  0  0
    5.4280  -48.2454  -30.7889 C   0  0  0  0  0  0  0  0  0  0  0  0
    4.1760  -47.6815  -31.1673 N   0  0  0  0  0  0  0  0  0  0  0  0
    3.7400  -48.0034  -32.5142 C   0  0  0  0  0  0  0  0  0  0  0  0
    2.3956  -47.2697  -32.6698 C   0  0  0  0  0  0  0  0  0  0  0  0
    2.6992  -45.9241  -32.8724 O   0  0  0  0  0  0  0  0  0  0  0  0
    3.8405  -45.5044  -32.2372 C   0  0  0  0  0  0  0  0  0  0  0  0
    4.1066  -46.2461  -30.9382 C   0  0  0  0  0  0  0  0  0  0  0  0
   -0.7724  -54.2241  -23.6799 C   0  0  0  0  0  0  0  0  0  0  0  0
    0.1552  -53.6252  -22.8075 O   0  0  0  0  0  0  0  0  0  0  0  0
 48 49  1  0  0  0
 49  1  1  0  0  0
  1  2  2  0  0  0
  2  3  1  0  0  0
  3  4  2  0  0  0
  4  5  1  0  0  0
  5  6  2  0  0  0
  6  7  1  0  0  0
  7  8  1  0  0  0
  8  9  2  0  0  0
  8 11  1  0  0  0
 11 12  2  0  0  0
 12 13  1  0  0  0
 13 14  2  0  0  0
 14 15  1  0  0  0
 15 16  1  0  0  0
 16 17  2  0  0  0
 17 21  1  0  0  0
 21 22  2  0  0  0
 22 23  1  0  0  0
 23 24  2  0  0  0
 24 25  1  0  0  0
 25 26  2  0  0  0
 25 27  1  0  0  0
 27 28  1  0  0  0
 27 29  1  0  0  0
 27 30  1  0  0  0
 17 18  1  0  0  0
 18 19  2  0  0  0
  4 31  1  0  0  0
 31 32  2  0  0  0
 31 33  1  0  0  0
 33 35  1  0  0  0
 35 36  1  0  0  0
 36 37  2  0  0  0
 37 38  1  0  0  0
 38 39  2  0  0  0
 39 41  1  0  0  0
 41 42  1  0  0  0
 42 43  1  0  0  0
 43 44  1  0  0  0
 44 45  1  0  0  0
 45 46  1  0  0  0
 46 47  1  0  0  0
 39 40  1  0  0  0
  6  1  1  0  0  0
 19 11  1  0  0  0
 40 36  1  0  0  0
 18 14  1  0  0  0
 47 42  1  0  0  0
 26 21  1  0  0  0
  7 10  1  0  0  0
 15 20  1  0  0  0
 33 34  1  0  0  0
M  END
> <minimizedAffinity>
-7.52168

> <CNNscore>
0.0854273662

> <CNNaffinity>
6.0544729233

> <CNN_VS>
0.5172176957

> <CNNaffinity_variance>
0.1039380655

$$$$
[H]c1nc2c(c([H])c1C(=O)N([H])c1c([H])c(C(=O)N([H])C([H])([H])c3sc(C([H])([H])N4C([H])([H])C([H])([H])OC([H])([H])C4([H])[H])c([H])c3[H])c([H])c([H])c1OC([H])([H])[H])c(-c1c([H])c([H])c([H])c(C(F)(F)F)c1[H])c([H])n2[H]


 49 54  0  0  0  0  0  0  0  0999 V2000
    1.0519  -52.0409  -23.6094 C   0  0  0  0  0  0  0  0  0  0  0  0
    0.4805  -53.2769  -23.4637 C   0  0  0  0  0  0  0  0  0  0  0  0
   -0.1228  -53.6623  -22.2689 C   0  0  0  0  0  0  0  0  0  0  0  0
   -0.1400  -52.7731  -21.2127 C   0  0  0  0  0  0  0  0  0  0  0  0
    0.4315  -51.5445  -21.3588 C   0  0  0  0  0  0  0  0  0  0  0  0
    1.0394  -51.1281  -22.5355 C   0  0  0  0  0  0  0  0  0  0  0  0
    1.5966  -49.8594  -22.7514 N   0  0  0  0  0  0  0  0  0  0  0  0
    2.7993  -49.3242  -22.3023 C   0  0  0  0  0  0  0  0  0  0  0  0
    3.5982  -49.9866  -21.6018 O   0  0  0  0  0  0  0  0  0  0  0  0
    1.0158  -49.1832  -23.3491 H   0  0  0  0  0  0  0  0  0  0  0  0
    3.2110  -47.9416  -22.6223 C   0  0  0  0  0  0  0  0  0  0  0  0
    3.3679  -47.0017  -21.6247 C   0  0  0  0  0  0  0  0  0  0  0  0
    3.7349  -45.7404  -21.8799 N   0  0  0  0  0  0  0  0  0  0  0  0
    3.9634  -45.3572  -23.1498 C   0  0  0  0  0  0  0  0  0  0  0  0
    4.3352  -44.1815  -23.7111 N   0  0  0  0  0  0  0  0  0  0  0  0
    4.4272  -44.3112  -25.0383 C   0  0  0  0  0  0  0  0  0  0  0  0
    4.1025  -45.6333  -25.3855 C   0  0  0  0  0  0  0  0  0  0  0  0
    3.8220  -46.2580  -24.2075 C   0  0  0  0  0  0  0  0  0  0  0  0
    3.4360  -47.5774  -23.9165 C   0  0  0  0  0  0  0  0  0  0  0  0
    4.5124  -43.3307  -23.1374 H   0  0  0  0  0  0  0  0  0  0  0  0
    4.0567  -46.1783  -26.7303 C   0  0  0  0  0  0  0  0  0  0  0  0
    4.9141  -47.2663  -26.9836 C   0  0  0  0  0  0  0  0  0  0  0  0
    4.9886  -47.8922  -28.1850 C   0  0  0  0  0  0  0  0  0  0  0  0
    4.1970  -47.4522  -29.2045 C   0  0  0  0  0  0  0  0  0  0  0  0
    3.3386  -46.3712  -28.9718 C   0  0  0  0  0  0  0  0  0  0  0  0
    3.2679  -45.7374  -27.7407 C   0  0  0  0  0  0  0  0  0  0  0  0
    2.5227  -45.9585  -30.1348 C   0  0  0  0  0  0  0  0  0  0  0  0
    2.8388  -44.6412  -30.4516 F   0  0  0  0  0  0  0  0  0  0  0  0
    2.6726  -46.7819  -31.2096 F   0  0  0  0  0  0  0  0  0  0  0  0
    1.1831  -45.9555  -29.7119 F   0  0  0  0  0  0  0  0  0  0  0  0
   -0.8362  -53.1376  -19.9623 C   0  0  0  0  0  0  0  0  0  0  0  0
   -1.6825  -54.0530  -20.0287 O   0  0  0  0  0  0  0  0  0  0  0  0
   -0.5621  -52.4946  -18.7468 N   0  0  0  0  0  0  0  0  0  0  0  0
    0.1785  -51.7126  -18.8108 H   0  0  0  0  0  0  0  0  0  0  0  0
   -1.0983  -52.6939  -17.4617 C   0  0  0  0  0  0  0  0  0  0  0  0
   -0.7422  -51.7055  -16.4114 C   0  0  0  0  0  0  0  0  0  0  0  0
   -0.8104  -51.8063  -15.0455 C   0  0  0  0  0  0  0  0  0  0  0  0
   -0.3817  -50.7705  -14.3151 C   0  0  0  0  0  0  0  0  0  0  0  0
    0.0959  -49.6772  -14.9905 C   0  0  0  0  0  0  0  0  0  0  0  0
   -0.0694  -50.1263  -16.6188 S   0  0  0  0  0  0  0  0  0  0  0  0
    0.6383  -48.4354  -14.3668 C   0  0  0  0  0  0  0  0  0  0  0  0
    1.7282  -47.8445  -15.0679 N   0  0  0  0  0  0  0  0  0  0  0  0
    3.0128  -48.4883  -14.8603 C   0  0  0  0  0  0  0  0  0  0  0  0
    4.0002  -47.6583  -15.7006 C   0  0  0  0  0  0  0  0  0  0  0  0
    4.2437  -46.4871  -14.9843 O   0  0  0  0  0  0  0  0  0  0  0  0
    3.1794  -46.0572  -14.2331 C   0  0  0  0  0  0  0  0  0  0  0  0
    1.8353  -46.4100  -14.8472 C   0  0  0  0  0  0  0  0  0  0  0  0
    2.2359  -52.5730  -25.6775 C   0  0  0  0  0  0  0  0  0  0  0  0
    1.6483  -51.6506  -24.7921 O   0  0  0  0  0  0  0  0  0  0  0  0
 48 49  1  0  0  0
 49  1  1  0  0  0
  1  2  2  0  0  0
  2  3  1  0  0  0
  3  4  2  0  0  0
  4  5  1  0  0  0
  5  6  2  0  0  0
  6  7  1  0  0  0
  7  8  1  0  0  0
  8  9  2  0  0  0
  8 11  1  0  0  0
 11 12  2  0  0  0
 12 13  1  0  0  0
 13 14  2  0  0  0
 14 15  1  0  0  0
 15 16  1  0  0  0
 16 17  2  0  0  0
 17 21  1  0  0  0
 21 22  2  0  0  0
 22 23  1  0  0  0
 23 24  2  0  0  0
 24 25  1  0  0  0
 25 26  2  0  0  0
 25 27  1  0  0  0
 27 28  1  0  0  0
 27 29  1  0  0  0
 27 30  1  0  0  0
 17 18  1  0  0  0
 18 19  2  0  0  0
  4 31  1  0  0  0
 31 32  2  0  0  0
 31 33  1  0  0  0
 33 35  1  0  0  0
 35 36  1  0  0  0
 36 37  2  0  0  0
 37 38  1  0  0  0
 38 39  2  0  0  0
 39 41  1  0  0  0
 41 42  1  0  0  0
 42 43  1  0  0  0
 43 44  1  0  0  0
 44 45  1  0  0  0
 45 46  1  0  0  0
 46 47  1  0  0  0
 39 40  1  0  0  0
  6  1  1  0  0  0
 19 11  1  0  0  0
 40 36  1  0  0  0
 18 14  1  0  0  0
 47 42  1  0  0  0
 26 21  1  0  0  0
  7 10  1  0  0  0
 15 20  1  0  0  0
 33 34  1  0  0  0
M  END
> <minimizedAffinity>
-7.55333

> <CNNscore>
0.0827995092

> <CNNaffinity>
6.6013612747

> <CNN_VS>
0.5465894938

> <CNNaffinity_variance>
0.0941670984

$$$$
[H]c1nc2c(c([H])c1C(=O)N([H])c1c([H])c(C(=O)N([H])C([H])([H])c3sc(C([H])([H])N4C([H])([H])C([H])([H])OC([H])([H])C4([H])[H])c([H])c3[H])c([H])c([H])c1OC([H])([H])[H])c(-c1c([H])c([H])c([H])c(C(F)(F)F)c1[H])c([H])n2[H]


 49 54  0  0  0  0  0  0  0  0999 V2000
    6.8883  -49.9175  -22.8030 C   0  0  0  0  0  0  0  0  0  0  0  0
    7.7302  -49.3645  -21.8751 C   0  0  0  0  0  0  0  0  0  0  0  0
    7.2579  -48.9053  -20.6479 C   0  0  0  0  0  0  0  0  0  0  0  0
    5.9098  -49.0126  -20.3690 C   0  0  0  0  0  0  0  0  0  0  0  0
    5.0733  -49.5608  -21.2948 C   0  0  0  0  0  0  0  0  0  0  0  0
    5.5108  -50.0295  -22.5262 C   0  0  0  0  0  0  0  0  0  0  0  0
    4.6999  -50.6452  -23.4904 N   0  0  0  0  0  0  0  0  0  0  0  0
    4.0413  -50.0962  -24.5857 C   0  0  0  0  0  0  0  0  0  0  0  0
    4.1217  -48.8781  -24.8644 O   0  0  0  0  0  0  0  0  0  0  0  0
    4.5498  -51.7019  -23.3775 H   0  0  0  0  0  0  0  0  0  0  0  0
    3.2055  -50.9137  -25.4895 C   0  0  0  0  0  0  0  0  0  0  0  0
    3.3811  -50.8598  -26.8568 C   0  0  0  0  0  0  0  0  0  0  0  0
    2.6390  -51.5829  -27.7036 N   0  0  0  0  0  0  0  0  0  0  0  0
    1.6820  -52.3975  -27.2217 C   0  0  0  0  0  0  0  0  0  0  0  0
    0.7909  -53.2311  -27.8103 N   0  0  0  0  0  0  0  0  0  0  0  0
    0.0354  -53.8293  -26.8840 C   0  0  0  0  0  0  0  0  0  0  0  0
    0.4360  -53.3779  -25.6153 C   0  0  0  0  0  0  0  0  0  0  0  0
    1.4508  -52.4989  -25.8482 C   0  0  0  0  0  0  0  0  0  0  0  0
    2.2421  -51.7308  -24.9774 C   0  0  0  0  0  0  0  0  0  0  0  0
    0.7491  -53.3492  -28.8442 H   0  0  0  0  0  0  0  0  0  0  0  0
   -0.1500  -53.7651  -24.3448 C   0  0  0  0  0  0  0  0  0  0  0  0
   -0.8999  -54.9569  -24.3500 C   0  0  0  0  0  0  0  0  0  0  0  0
   -1.5079  -55.4594  -23.2460 C   0  0  0  0  0  0  0  0  0  0  0  0
   -1.3923  -54.7828  -22.0677 C   0  0  0  0  0  0  0  0  0  0  0  0
   -0.6511  -53.5956  -22.0432 C   0  0  0  0  0  0  0  0  0  0  0  0
   -0.0323  -53.0891  -23.1757 C   0  0  0  0  0  0  0  0  0  0  0  0
   -0.5847  -52.9265  -20.7254 C   0  0  0  0  0  0  0  0  0  0  0  0
   -0.4906  -51.5538  -20.9306 F   0  0  0  0  0  0  0  0  0  0  0  0
   -1.6334  -53.2411  -19.9150 F   0  0  0  0  0  0  0  0  0  0  0  0
    0.6232  -53.3232  -20.1279 F   0  0  0  0  0  0  0  0  0  0  0  0
    5.4021  -48.5955  -19.0463 C   0  0  0  0  0  0  0  0  0  0  0  0
    6.0383  -47.7031  -18.4486 O   0  0  0  0  0  0  0  0  0  0  0  0
    4.2533  -49.1659  -18.4799 N   0  0  0  0  0  0  0  0  0  0  0  0
    3.7921  -49.9345  -19.0804 H   0  0  0  0  0  0  0  0  0  0  0  0
    3.6087  -48.9086  -17.2563 C   0  0  0  0  0  0  0  0  0  0  0  0
    2.2833  -49.5420  -17.0354 C   0  0  0  0  0  0  0  0  0  0  0  0
    1.3579  -49.9914  -17.9422 C   0  0  0  0  0  0  0  0  0  0  0  0
    0.2461  -50.5698  -17.4739 C   0  0  0  0  0  0  0  0  0  0  0  0
    0.1124  -50.6700  -16.1131 C   0  0  0  0  0  0  0  0  0  0  0  0
    1.5370  -49.9543  -15.5311 S   0  0  0  0  0  0  0  0  0  0  0  0
   -1.0339  -51.2969  -15.3933 C   0  0  0  0  0  0  0  0  0  0  0  0
   -2.2647  -50.5887  -15.5035 N   0  0  0  0  0  0  0  0  0  0  0  0
   -2.3680  -49.4044  -14.6701 C   0  0  0  0  0  0  0  0  0  0  0  0
   -3.7737  -48.8489  -14.9623 C   0  0  0  0  0  0  0  0  0  0  0  0
   -4.6725  -49.6606  -14.2715 O   0  0  0  0  0  0  0  0  0  0  0  0
   -4.2710  -50.9668  -14.1511 C   0  0  0  0  0  0  0  0  0  0  0  0
   -3.4297  -51.4421  -15.3235 C   0  0  0  0  0  0  0  0  0  0  0  0
    7.7707  -49.5082  -25.0427 C   0  0  0  0  0  0  0  0  0  0  0  0
    7.3500  -50.3785  -24.0201 O   0  0  0  0  0  0  0  0  0  0  0  0
 48 49  1  0  0  0
 49  1  1  0  0  0
  1  2  2  0  0  0
  2  3  1  0  0  0
  3  4  2  0  0  0
  4  5  1  0  0  0
  5  6  2  0  0  0
  6  7  1  0  0  0
  7  8  1  0  0  0
  8  9  2  0  0  0
  8 11  1  0  0  0
 11 12  2  0  0  0
 12 13  1  0  0  0
 13 14  2  0  0  0
 14 15  1  0  0  0
 15 16  1  0  0  0
 16 17  2  0  0  0
 17 21  1  0  0  0
 21 22  2  0  0  0
 22 23  1  0  0  0
 23 24  2  0  0  0
 24 25  1  0  0  0
 25 26  2  0  0  0
 25 27  1  0  0  0
 27 28  1  0  0  0
 27 29  1  0  0  0
 27 30  1  0  0  0
 17 18  1  0  0  0
 18 19  2  0  0  0
  4 31  1  0  0  0
 31 32  2  0  0  0
 31 33  1  0  0  0
 33 35  1  0  0  0
 35 36  1  0  0  0
 36 37  2  0  0  0
 37 38  1  0  0  0
 38 39  2  0  0  0
 39 41  1  0  0  0
 41 42  1  0  0  0
 42 43  1  0  0  0
 43 44  1  0  0  0
 44 45  1  0  0  0
 45 46  1  0  0  0
 46 47  1  0  0  0
 39 40  1  0  0  0
  6  1  1  0  0  0
 19 11  1  0  0  0
 40 36  1  0  0  0
 18 14  1  0  0  0
 47 42  1  0  0  0
 26 21  1  0  0  0
  7 10  1  0  0  0
 15 20  1  0  0  0
 33 34  1  0  0  0
M  END
> <minimizedAffinity>
-8.45178

> <CNNscore>
0.0765833929

> <CNNaffinity>
6.8038911819

> <CNN_VS>
0.5210650563

> <CNNaffinity_variance>
0.5063139200

$$$$
[H]c1nc2c(c([H])c1C(=O)N([H])c1c([H])c(C(=O)N([H])C([H])([H])c3sc(C([H])([H])N4C([H])([H])C([H])([H])OC([H])([H])C4([H])[H])c([H])c3[H])c([H])c([H])c1OC([H])([H])[H])c(-c1c([H])c([H])c([H])c(C(F)(F)F)c1[H])c([H])n2[H]


 49 54  0  0  0  0  0  0  0  0999 V2000
    5.3937  -48.2539  -28.6371 C   0  0  0  0  0  0  0  0  0  0  0  0
    6.2436  -47.1847  -28.7361 C   0  0  0  0  0  0  0  0  0  0  0  0
    6.4587  -46.3255  -27.6612 C   0  0  0  0  0  0  0  0  0  0  0  0
    5.7957  -46.5633  -26.4735 C   0  0  0  0  0  0  0  0  0  0  0  0
    4.9483  -47.6263  -26.3779 C   0  0  0  0  0  0  0  0  0  0  0  0
    4.7124  -48.5027  -27.4285 C   0  0  0  0  0  0  0  0  0  0  0  0
    3.8898  -49.6367  -27.3651 N   0  0  0  0  0  0  0  0  0  0  0  0
    3.2090  -50.1866  -26.2839 C   0  0  0  0  0  0  0  0  0  0  0  0
    3.2489  -49.6698  -25.1441 O   0  0  0  0  0  0  0  0  0  0  0  0
    3.7591  -50.1782  -28.2825 H   0  0  0  0  0  0  0  0  0  0  0  0
    2.3963  -51.4141  -26.4106 C   0  0  0  0  0  0  0  0  0  0  0  0
    2.3163  -52.0885  -27.6114 C   0  0  0  0  0  0  0  0  0  0  0  0
    1.5863  -53.1999  -27.7620 N   0  0  0  0  0  0  0  0  0  0  0  0
    0.8985  -53.6918  -26.7148 C   0  0  0  0  0  0  0  0  0  0  0  0
    0.0904  -54.7680  -26.5591 N   0  0  0  0  0  0  0  0  0  0  0  0
   -0.3653  -54.8265  -25.3039 C   0  0  0  0  0  0  0  0  0  0  0  0
    0.1595  -53.7411  -24.5827 C   0  0  0  0  0  0  0  0  0  0  0  0
    0.9347  -53.0579  -25.4710 C   0  0  0  0  0  0  0  0  0  0  0  0
    1.7080  -51.8925  -25.3355 C   0  0  0  0  0  0  0  0  0  0  0  0
   -0.1089  -55.4233  -27.3435 H   0  0  0  0  0  0  0  0  0  0  0  0
   -0.1117  -53.4264  -23.1917 C   0  0  0  0  0  0  0  0  0  0  0  0
   -0.9410  -54.3340  -22.5051 C   0  0  0  0  0  0  0  0  0  0  0  0
   -1.2865  -54.1880  -21.2012 C   0  0  0  0  0  0  0  0  0  0  0  0
   -0.8114  -53.1108  -20.5131 C   0  0  0  0  0  0  0  0  0  0  0  0
    0.0141  -52.1973  -21.1791 C   0  0  0  0  0  0  0  0  0  0  0  0
    0.3631  -52.3542  -22.5116 C   0  0  0  0  0  0  0  0  0  0  0  0
    0.4771  -51.0577  -20.3571 C   0  0  0  0  0  0  0  0  0  0  0  0
   -0.0278  -51.2073  -19.0694 F   0  0  0  0  0  0  0  0  0  0  0  0
    1.8325  -50.9216  -20.3509 F   0  0  0  0  0  0  0  0  0  0  0  0
   -0.1218  -49.9031  -20.8877 F   0  0  0  0  0  0  0  0  0  0  0  0
    6.0645  -45.7047  -25.3023 C   0  0  0  0  0  0  0  0  0  0  0  0
    7.2482  -45.6281  -24.9131 O   0  0  0  0  0  0  0  0  0  0  0  0
    5.0434  -44.9972  -24.6521 N   0  0  0  0  0  0  0  0  0  0  0  0
    4.0592  -45.1476  -25.0680 H   0  0  0  0  0  0  0  0  0  0  0  0
    5.0883  -44.1324  -23.5436 C   0  0  0  0  0  0  0  0  0  0  0  0
    5.1059  -44.7517  -22.1934 C   0  0  0  0  0  0  0  0  0  0  0  0
    4.0730  -45.2307  -21.4289 C   0  0  0  0  0  0  0  0  0  0  0  0
    4.3682  -45.7869  -20.2484 C   0  0  0  0  0  0  0  0  0  0  0  0
    5.6899  -45.8360  -19.8872 C   0  0  0  0  0  0  0  0  0  0  0  0
    6.4770  -45.1050  -21.2011 S   0  0  0  0  0  0  0  0  0  0  0  0
    6.2287  -46.4312  -18.6299 C   0  0  0  0  0  0  0  0  0  0  0  0
    6.8670  -47.6936  -18.7950 N   0  0  0  0  0  0  0  0  0  0  0  0
    8.2867  -47.6293  -19.0917 C   0  0  0  0  0  0  0  0  0  0  0  0
    8.7174  -49.1003  -19.2359 C   0  0  0  0  0  0  0  0  0  0  0  0
    8.2692  -49.5241  -20.4863 O   0  0  0  0  0  0  0  0  0  0  0  0
    7.1074  -48.9227  -20.8994 C   0  0  0  0  0  0  0  0  0  0  0  0
    6.1851  -48.5549  -19.7495 C   0  0  0  0  0  0  0  0  0  0  0  0
    5.7391  -48.8909  -30.9689 C   0  0  0  0  0  0  0  0  0  0  0  0
    5.1786  -49.1122  -29.6973 O   0  0  0  0  0  0  0  0  0  0  0  0
 48 49  1  0  0  0
 49  1  1  0  0  0
  1  2  2  0  0  0
  2  3  1  0  0  0
  3  4  2  0  0  0
  4  5  1  0  0  0
  5  6  2  0  0  0
  6  7  1  0  0  0
  7  8  1  0  0  0
  8  9  2  0  0  0
  8 11  1  0  0  0
 11 12  2  0  0  0
 12 13  1  0  0  0
 13 14  2  0  0  0
 14 15  1  0  0  0
 15 16  1  0  0  0
 16 17  2  0  0  0
 17 21  1  0  0  0
 21 22  2  0  0  0
 22 23  1  0  0  0
 23 24  2  0  0  0
 24 25  1  0  0  0
 25 26  2  0  0  0
 25 27  1  0  0  0
 27 28  1  0  0  0
 27 29  1  0  0  0
 27 30  1  0  0  0
 17 18  1  0  0  0
 18 19  2  0  0  0
  4 31  1  0  0  0
 31 32  2  0  0  0
 31 33  1  0  0  0
 33 35  1  0  0  0
 35 36  1  0  0  0
 36 37  2  0  0  0
 37 38  1  0  0  0
 38 39  2  0  0  0
 39 41  1  0  0  0
 41 42  1  0  0  0
 42 43  1  0  0  0
 43 44  1  0  0  0
 44 45  1  0  0  0
 45 46  1  0  0  0
 46 47  1  0  0  0
 39 40  1  0  0  0
  6  1  1  0  0  0
 19 11  1  0  0  0
 40 36  1  0  0  0
 18 14  1  0  0  0
 47 42  1  0  0  0
 26 21  1  0  0  0
  7 10  1  0  0  0
 15 20  1  0  0  0
 33 34  1  0  0  0
M  END
> <minimizedAffinity>
-7.94278

> <CNNscore>
0.0752475634

> <CNNaffinity>
6.7872924805

> <CNN_VS>
0.5107272267

> <CNNaffinity_variance>
0.2592534423

$$$$
[H]c1nc2c(c([H])c1C(=O)N([H])c1c([H])c(C(=O)N([H])C([H])([H])c3sc(C([H])([H])N4C([H])([H])C([H])([H])OC([H])([H])C4([H])[H])c([H])c3[H])c([H])c([H])c1OC([H])([H])[H])c(-c1c([H])c([H])c([H])c(C(F)(F)F)c1[H])c([H])n2[H]


 49 54  0  0  0  0  0  0  0  0999 V2000
   -0.0812  -53.1891  -21.3315 C   0  0  0  0  0  0  0  0  0  0  0  0
   -0.3894  -53.8610  -22.4842 C   0  0  0  0  0  0  0  0  0  0  0  0
   -0.1122  -53.3195  -23.7372 C   0  0  0  0  0  0  0  0  0  0  0  0
    0.4855  -52.0770  -23.8100 C   0  0  0  0  0  0  0  0  0  0  0  0
    0.7890  -51.4087  -22.6616 C   0  0  0  0  0  0  0  0  0  0  0  0
    0.5281  -51.9198  -21.3974 C   0  0  0  0  0  0  0  0  0  0  0  0
    0.8653  -51.2946  -20.1883 N   0  0  0  0  0  0  0  0  0  0  0  0
    1.9911  -51.4500  -19.3863 C   0  0  0  0  0  0  0  0  0  0  0  0
    2.9218  -52.2287  -19.6952 O   0  0  0  0  0  0  0  0  0  0  0  0
    0.1532  -50.5884  -19.8062 H   0  0  0  0  0  0  0  0  0  0  0  0
    2.1611  -50.7073  -18.1202 C   0  0  0  0  0  0  0  0  0  0  0  0
    3.4170  -50.3584  -17.6682 C   0  0  0  0  0  0  0  0  0  0  0  0
    3.6068  -49.6903  -16.5244 N   0  0  0  0  0  0  0  0  0  0  0  0
    2.5458  -49.3380  -15.7749 C   0  0  0  0  0  0  0  0  0  0  0  0
    2.4194  -48.6767  -14.5992 N   0  0  0  0  0  0  0  0  0  0  0  0
    1.1303  -48.5788  -14.2598 C   0  0  0  0  0  0  0  0  0  0  0  0
    0.3545  -49.2023  -15.2514 C   0  0  0  0  0  0  0  0  0  0  0  0
    1.2469  -49.6607  -16.1735 C   0  0  0  0  0  0  0  0  0  0  0  0
    1.0709  -50.3622  -17.3782 C   0  0  0  0  0  0  0  0  0  0  0  0
    3.2471  -48.3167  -14.0797 H   0  0  0  0  0  0  0  0  0  0  0  0
   -1.0909  -49.3378  -15.2480 C   0  0  0  0  0  0  0  0  0  0  0  0
   -1.8218  -48.1386  -15.1457 C   0  0  0  0  0  0  0  0  0  0  0  0
   -3.1777  -48.0911  -15.1336 C   0  0  0  0  0  0  0  0  0  0  0  0
   -3.8761  -49.2588  -15.2245 C   0  0  0  0  0  0  0  0  0  0  0  0
   -3.1667  -50.4613  -15.3264 C   0  0  0  0  0  0  0  0  0  0  0  0
   -1.7809  -50.5011  -15.3387 C   0  0  0  0  0  0  0  0  0  0  0  0
   -4.0052  -51.6769  -15.4141 C   0  0  0  0  0  0  0  0  0  0  0  0
   -5.2444  -51.4014  -14.8449 F   0  0  0  0  0  0  0  0  0  0  0  0
   -4.1318  -52.1457  -16.6868 F   0  0  0  0  0  0  0  0  0  0  0  0
   -3.4003  -52.6484  -14.5995 F   0  0  0  0  0  0  0  0  0  0  0  0
    0.8504  -51.5179  -25.1273 C   0  0  0  0  0  0  0  0  0  0  0  0
   -0.0778  -51.3228  -25.9391 O   0  0  0  0  0  0  0  0  0  0  0  0
    2.1773  -51.2103  -25.4602 N   0  0  0  0  0  0  0  0  0  0  0  0
    2.8959  -51.4306  -24.6861 H   0  0  0  0  0  0  0  0  0  0  0  0
    2.7267  -50.6714  -26.6376 C   0  0  0  0  0  0  0  0  0  0  0  0
    3.6952  -49.5545  -26.4912 C   0  0  0  0  0  0  0  0  0  0  0  0
    4.3081  -49.0595  -25.3688 C   0  0  0  0  0  0  0  0  0  0  0  0
    5.1846  -48.0598  -25.5185 C   0  0  0  0  0  0  0  0  0  0  0  0
    5.4059  -47.6002  -26.7910 C   0  0  0  0  0  0  0  0  0  0  0  0
    4.3854  -48.5728  -27.7360 S   0  0  0  0  0  0  0  0  0  0  0  0
    6.3546  -46.5144  -27.1734 C   0  0  0  0  0  0  0  0  0  0  0  0
    7.7008  -46.9397  -27.3623 N   0  0  0  0  0  0  0  0  0  0  0  0
    8.4971  -46.0892  -28.2285 C   0  0  0  0  0  0  0  0  0  0  0  0
    9.8766  -46.7710  -28.2756 C   0  0  0  0  0  0  0  0  0  0  0  0
    9.7492  -47.8656  -29.1297 O   0  0  0  0  0  0  0  0  0  0  0  0
    8.5041  -48.4416  -29.1219 C   0  0  0  0  0  0  0  0  0  0  0  0
    7.8045  -48.3305  -27.7778 C   0  0  0  0  0  0  0  0  0  0  0  0
   -1.5993  -53.5702  -19.4574 C   0  0  0  0  0  0  0  0  0  0  0  0
   -0.3494  -53.7214  -20.0858 O   0  0  0  0  0  0  0  0  0  0  0  0
 48 49  1  0  0  0
 49  1  1  0  0  0
  1  2  2  0  0  0
  2  3  1  0  0  0
  3  4  2  0  0  0
  4  5  1  0  0  0
  5  6  2  0  0  0
  6  7  1  0  0  0
  7  8  1  0  0  0
  8  9  2  0  0  0
  8 11  1  0  0  0
 11 12  2  0  0  0
 12 13  1  0  0  0
 13 14  2  0  0  0
 14 15  1  0  0  0
 15 16  1  0  0  0
 16 17  2  0  0  0
 17 21  1  0  0  0
 21 22  2  0  0  0
 22 23  1  0  0  0
 23 24  2  0  0  0
 24 25  1  0  0  0
 25 26  2  0  0  0
 25 27  1  0  0  0
 27 28  1  0  0  0
 27 29  1  0  0  0
 27 30  1  0  0  0
 17 18  1  0  0  0
 18 19  2  0  0  0
  4 31  1  0  0  0
 31 32  2  0  0  0
 31 33  1  0  0  0
 33 35  1  0  0  0
 35 36  1  0  0  0
 36 37  2  0  0  0
 37 38  1  0  0  0
 38 39  2  0  0  0
 39 41  1  0  0  0
 41 42  1  0  0  0
 42 43  1  0  0  0
 43 44  1  0  0  0
 44 45  1  0  0  0
 45 46  1  0  0  0
 46 47  1  0  0  0
 39 40  1  0  0  0
  6  1  1  0  0  0
 19 11  1  0  0  0
 40 36  1  0  0  0
 18 14  1  0  0  0
 47 42  1  0  0  0
 26 21  1  0  0  0
  7 10  1  0  0  0
 15 20  1  0  0  0
 33 34  1  0  0  0
M  END
> <minimizedAffinity>
-7.97458

> <CNNscore>
0.0695605874

> <CNNaffinity>
6.3158369064

> <CNN_VS>
0.4393333197

> <CNNaffinity_variance>
0.1459773630

$$$$
[H]c1nc2c(c([H])c1C(=O)N([H])c1c([H])c(C(=O)N([H])C([H])([H])c3sc(C([H])([H])N4C([H])([H])C([H])([H])OC([H])([H])C4([H])[H])c([H])c3[H])c([H])c([H])c1OC([H])([H])[H])c(-c1c([H])c([H])c([H])c(C(F)(F)F)c1[H])c([H])n2[H]


 49 54  0  0  0  0  0  0  0  0999 V2000
    0.3047  -52.9458  -20.9389 C   0  0  0  0  0  0  0  0  0  0  0  0
   -0.7853  -53.2891  -20.1844 C   0  0  0  0  0  0  0  0  0  0  0  0
   -0.9468  -52.8169  -18.8840 C   0  0  0  0  0  0  0  0  0  0  0  0
    0.0184  -51.9858  -18.3510 C   0  0  0  0  0  0  0  0  0  0  0  0
    1.1038  -51.6475  -19.1026 C   0  0  0  0  0  0  0  0  0  0  0  0
    1.2949  -52.0987  -20.4016 C   0  0  0  0  0  0  0  0  0  0  0  0
    2.3671  -51.7406  -21.2313 N   0  0  0  0  0  0  0  0  0  0  0  0
    2.4699  -50.7142  -22.1645 C   0  0  0  0  0  0  0  0  0  0  0  0
    1.5308  -49.9127  -22.3734 O   0  0  0  0  0  0  0  0  0  0  0  0
    3.2506  -52.3446  -21.1500 H   0  0  0  0  0  0  0  0  0  0  0  0
    3.6919  -50.5039  -22.9682 C   0  0  0  0  0  0  0  0  0  0  0  0
    4.7989  -51.3090  -22.7959 C   0  0  0  0  0  0  0  0  0  0  0  0
    5.9226  -51.1432  -23.5033 N   0  0  0  0  0  0  0  0  0  0  0  0
    5.9934  -50.1606  -24.4204 C   0  0  0  0  0  0  0  0  0  0  0  0
    6.9677  -49.7522  -25.2686 N   0  0  0  0  0  0  0  0  0  0  0  0
    6.5454  -48.7094  -25.9903 C   0  0  0  0  0  0  0  0  0  0  0  0
    5.2281  -48.4023  -25.6106 C   0  0  0  0  0  0  0  0  0  0  0  0
    4.9096  -49.3090  -24.6446 C   0  0  0  0  0  0  0  0  0  0  0  0
    3.7395  -49.5014  -23.8907 C   0  0  0  0  0  0  0  0  0  0  0  0
    7.8947  -50.2250  -25.3089 H   0  0  0  0  0  0  0  0  0  0  0  0
    4.4159  -47.3202  -26.1368 C   0  0  0  0  0  0  0  0  0  0  0  0
    4.0980  -46.2912  -25.2296 C   0  0  0  0  0  0  0  0  0  0  0  0
    3.3529  -45.2075  -25.5634 C   0  0  0  0  0  0  0  0  0  0  0  0
    2.8839  -45.1012  -26.8394 C   0  0  0  0  0  0  0  0  0  0  0  0
    3.1892  -46.1148  -27.7553 C   0  0  0  0  0  0  0  0  0  0  0  0
    3.9519  -47.2188  -27.4064 C   0  0  0  0  0  0  0  0  0  0  0  0
    2.6342  -45.9194  -29.1127 C   0  0  0  0  0  0  0  0  0  0  0  0
    3.0987  -44.7059  -29.6099 F   0  0  0  0  0  0  0  0  0  0  0  0
    2.9194  -46.9489  -29.9579 F   0  0  0  0  0  0  0  0  0  0  0  0
    1.2435  -45.7840  -28.9684 F   0  0  0  0  0  0  0  0  0  0  0  0
   -0.1703  -51.4195  -17.0002 C   0  0  0  0  0  0  0  0  0  0  0  0
   -1.3445  -51.2933  -16.5954 O   0  0  0  0  0  0  0  0  0  0  0  0
    0.9150  -51.0424  -16.1963 N   0  0  0  0  0  0  0  0  0  0  0  0
    1.8819  -51.1861  -16.6530 H   0  0  0  0  0  0  0  0  0  0  0  0
    0.9513  -50.5005  -14.8988 C   0  0  0  0  0  0  0  0  0  0  0  0
    1.0711  -49.0247  -14.7773 C   0  0  0  0  0  0  0  0  0  0  0  0
    1.8563  -48.1429  -15.4748 C   0  0  0  0  0  0  0  0  0  0  0  0
    1.7415  -46.8396  -15.1950 C   0  0  0  0  0  0  0  0  0  0  0  0
    0.8425  -46.4796  -14.2245 C   0  0  0  0  0  0  0  0  0  0  0  0
    0.1889  -47.9666  -13.7326 S   0  0  0  0  0  0  0  0  0  0  0  0
    0.5490  -45.0858  -13.7815 C   0  0  0  0  0  0  0  0  0  0  0  0
   -0.1164  -44.2811  -14.7501 N   0  0  0  0  0  0  0  0  0  0  0  0
   -0.1300  -42.8584  -14.4611 C   0  0  0  0  0  0  0  0  0  0  0  0
   -0.9102  -42.2347  -15.6326 C   0  0  0  0  0  0  0  0  0  0  0  0
   -2.2585  -42.5010  -15.3977 O   0  0  0  0  0  0  0  0  0  0  0  0
   -2.4910  -43.6826  -14.7407 C   0  0  0  0  0  0  0  0  0  0  0  0
   -1.4590  -44.7524  -15.0552 C   0  0  0  0  0  0  0  0  0  0  0  0
   -0.3715  -53.0054  -23.2845 C   0  0  0  0  0  0  0  0  0  0  0  0
    0.4695  -53.4069  -22.2301 O   0  0  0  0  0  0  0  0  0  0  0  0
 48 49  1  0  0  0
 49  1  1  0  0  0
  1  2  2  0  0  0
  2  3  1  0  0  0
  3  4  2  0  0  0
  4  5  1  0  0  0
  5  6  2  0  0  0
  6  7  1  0  0  0
  7  8  1  0  0  0
  8  9  2  0  0  0
  8 11  1  0  0  0
 11 12  2  0  0  0
 12 13  1  0  0  0
 13 14  2  0  0  0
 14 15  1  0  0  0
 15 16  1  0  0  0
 16 17  2  0  0  0
 17 21  1  0  0  0
 21 22  2  0  0  0
 22 23  1  0  0  0
 23 24  2  0  0  0
 24 25  1  0  0  0
 25 26  2  0  0  0
 25 27  1  0  0  0
 27 28  1  0  0  0
 27 29  1  0  0  0
 27 30  1  0  0  0
 17 18  1  0  0  0
 18 19  2  0  0  0
  4 31  1  0  0  0
 31 32  2  0  0  0
 31 33  1  0  0  0
 33 35  1  0  0  0
 35 36  1  0  0  0
 36 37  2  0  0  0
 37 38  1  0  0  0
 38 39  2  0  0  0
 39 41  1  0  0  0
 41 42  1  0  0  0
 42 43  1  0  0  0
 43 44  1  0  0  0
 44 45  1  0  0  0
 45 46  1  0  0  0
 46 47  1  0  0  0
 39 40  1  0  0  0
  6  1  1  0  0  0
 19 11  1  0  0  0
 40 36  1  0  0  0
 18 14  1  0  0  0
 47 42  1  0  0  0
 26 21  1  0  0  0
  7 10  1  0  0  0
 15 20  1  0  0  0
 33 34  1  0  0  0
M  END
> <minimizedAffinity>
-7.16244

> <CNNscore>
0.0688419268

> <CNNaffinity>
6.2396531105

> <CNN_VS>
0.4295497537

> <CNNaffinity_variance>
0.1389441043

$$$$
[H]OC([H])([H])c1c([H])c(-c2c(OC([H])([H])C3([H])C([H])([H])C([H])([H])N(C(=O)C([H])([H])[H])C([H])([H])C3([H])[H])c([H])c([H])c3nc([H])c([H])nc23)c([H])n(C([H])([H])[H])c1=O


 32 35  0  0  0  0  0  0  0  0999 V2000
    1.6931  -52.4394  -20.1787 C   0  0  0  0  0  0  0  0  0  0  0  0
    0.7511  -53.4592  -19.8842 C   0  0  0  0  0  0  0  0  0  0  0  0
   -0.0758  -54.0249  -20.8020 C   0  0  0  0  0  0  0  0  0  0  0  0
   -0.0087  -53.5995  -22.1018 C   0  0  0  0  0  0  0  0  0  0  0  0
   -0.8031  -54.1623  -23.0487 N   0  0  0  0  0  0  0  0  0  0  0  0
   -0.7114  -53.7454  -24.3478 C   0  0  0  0  0  0  0  0  0  0  0  0
    0.1869  -52.7663  -24.6690 C   0  0  0  0  0  0  0  0  0  0  0  0
    0.9593  -52.2336  -23.7052 N   0  0  0  0  0  0  0  0  0  0  0  0
    0.8870  -52.6180  -22.4351 C   0  0  0  0  0  0  0  0  0  0  0  0
    1.7534  -52.0209  -21.4851 C   0  0  0  0  0  0  0  0  0  0  0  0
    2.7015  -51.0238  -21.9720 C   0  0  0  0  0  0  0  0  0  0  0  0
    2.3174  -49.6842  -22.0013 C   0  0  0  0  0  0  0  0  0  0  0  0
    3.1078  -48.6519  -22.4494 C   0  0  0  0  0  0  0  0  0  0  0  0
    4.3795  -49.0379  -22.9015 C   0  0  0  0  0  0  0  0  0  0  0  0
    5.1082  -48.0640  -23.3214 O   0  0  0  0  0  0  0  0  0  0  0  0
    4.7893  -50.2970  -22.8947 N   0  0  0  0  0  0  0  0  0  0  0  0
    6.1079  -50.6039  -23.3606 C   0  0  0  0  0  0  0  0  0  0  0  0
    3.9746  -51.2954  -22.4379 C   0  0  0  0  0  0  0  0  0  0  0  0
    2.6616  -47.2349  -22.5006 C   0  0  0  0  0  0  0  0  0  0  0  0
    3.3987  -46.4839  -21.5746 O   0  0  0  0  0  0  0  0  0  0  0  0
    3.7015  -47.0792  -20.8496 H   0  0  0  0  0  0  0  0  0  0  0  0
    2.4729  -51.9326  -19.2450 O   0  0  0  0  0  0  0  0  0  0  0  0
    2.9050  -50.9502  -18.4966 C   0  0  0  0  0  0  0  0  0  0  0  0
   -2.3816  -50.8492  -15.1418 C   0  0  0  0  0  0  0  0  0  0  0  0
   -0.9376  -50.9590  -14.8238 C   0  0  0  0  0  0  0  0  0  0  0  0
   -0.6229  -51.0244  -13.5855 O   0  0  0  0  0  0  0  0  0  0  0  0
    0.0741  -50.9890  -15.8090 N   0  0  0  0  0  0  0  0  0  0  0  0
   -0.2970  -50.9045  -17.2066 C   0  0  0  0  0  0  0  0  0  0  0  0
    0.6100  -49.9471  -17.8865 C   0  0  0  0  0  0  0  0  0  0  0  0
    2.0274  -50.0810  -17.6413 C   0  0  0  0  0  0  0  0  0  0  0  0
    2.4004  -50.2970  -16.1704 C   0  0  0  0  0  0  0  0  0  0  0  0
    1.4473  -51.1147  -15.3931 C   0  0  0  0  0  0  0  0  0  0  0  0
 24 25  1  0  0  0
 25 26  2  0  0  0
 25 27  1  0  0  0
 27 28  1  0  0  0
 28 29  1  0  0  0
 29 30  1  0  0  0
 30 23  1  0  0  0
 23 22  1  0  0  0
 22  1  1  0  0  0
  1  2  2  0  0  0
  2  3  1  0  0  0
  3  4  2  0  0  0
  4  5  1  0  0  0
  5  6  2  0  0  0
  6  7  1  0  0  0
  7  8  2  0  0  0
  8  9  1  0  0  0
  9 10  2  0  0  0
 10 11  1  0  0  0
 11 12  1  0  0  0
 12 13  2  0  0  0
 13 19  1  0  0  0
 19 20  1  0  0  0
 13 14  1  0  0  0
 14 15  2  0  0  0
 14 16  1  0  0  0
 16 17  1  0  0  0
 16 18  1  0  0  0
 30 31  1  0  0  0
 31 32  1  0  0  0
 32 27  1  0  0  0
 10  1  1  0  0  0
 18 11  2  0  0  0
  9  4  1  0  0  0
 20 21  1  0  0  0
M  END
> <minimizedAffinity>
-6.96157

> <CNNscore>
0.3131994903

> <CNNaffinity>
6.3376283646

> <CNN_VS>
1.9849419594

> <CNNaffinity_variance>
0.1594293714

$$$$
[H]OC([H])([H])c1c([H])c(-c2c(OC([H])([H])C3([H])C([H])([H])C([H])([H])N(C(=O)C([H])([H])[H])C([H])([H])C3([H])[H])c([H])c([H])c3nc([H])c([H])nc23)c([H])n(C([H])([H])[H])c1=O


 32 35  0  0  0  0  0  0  0  0999 V2000
    0.7474  -52.9251  -21.9325 C   0  0  0  0  0  0  0  0  0  0  0  0
   -0.3188  -53.7802  -21.5501 C   0  0  0  0  0  0  0  0  0  0  0  0
   -0.9079  -53.7676  -20.3258 C   0  0  0  0  0  0  0  0  0  0  0  0
   -0.4604  -52.8767  -19.3871 C   0  0  0  0  0  0  0  0  0  0  0  0
   -1.0448  -52.8207  -18.1624 N   0  0  0  0  0  0  0  0  0  0  0  0
   -0.6047  -51.9116  -17.2407 C   0  0  0  0  0  0  0  0  0  0  0  0
    0.4191  -51.0697  -17.5750 C   0  0  0  0  0  0  0  0  0  0  0  0
    0.9721  -51.1520  -18.7984 N   0  0  0  0  0  0  0  0  0  0  0  0
    0.5659  -52.0289  -19.7105 C   0  0  0  0  0  0  0  0  0  0  0  0
    1.1878  -52.0346  -20.9845 C   0  0  0  0  0  0  0  0  0  0  0  0
    2.2343  -51.0468  -21.2271 C   0  0  0  0  0  0  0  0  0  0  0  0
    1.8717  -49.7662  -21.6410 C   0  0  0  0  0  0  0  0  0  0  0  0
    2.7578  -48.7512  -21.9167 C   0  0  0  0  0  0  0  0  0  0  0  0
    4.1104  -49.0913  -21.7566 C   0  0  0  0  0  0  0  0  0  0  0  0
    4.9296  -48.1349  -22.0210 O   0  0  0  0  0  0  0  0  0  0  0  0
    4.5043  -50.2940  -21.3673 N   0  0  0  0  0  0  0  0  0  0  0  0
    5.9039  -50.5543  -21.2152 C   0  0  0  0  0  0  0  0  0  0  0  0
    3.5918  -51.2763  -21.0991 C   0  0  0  0  0  0  0  0  0  0  0  0
    2.3457  -47.4032  -22.3884 C   0  0  0  0  0  0  0  0  0  0  0  0
    2.9431  -47.1448  -23.6299 O   0  0  0  0  0  0  0  0  0  0  0  0
    3.7757  -47.6679  -23.6985 H   0  0  0  0  0  0  0  0  0  0  0  0
    1.2753  -52.9808  -23.1387 O   0  0  0  0  0  0  0  0  0  0  0  0
    1.8997  -52.4548  -24.1612 C   0  0  0  0  0  0  0  0  0  0  0  0
   -1.0342  -52.9605  -29.6703 C   0  0  0  0  0  0  0  0  0  0  0  0
   -1.4640  -52.7552  -28.2662 C   0  0  0  0  0  0  0  0  0  0  0  0
   -2.7187  -52.6116  -28.0620 O   0  0  0  0  0  0  0  0  0  0  0  0
   -0.5648  -52.7098  -27.1779 N   0  0  0  0  0  0  0  0  0  0  0  0
    0.8540  -52.8646  -27.4258 C   0  0  0  0  0  0  0  0  0  0  0  0
    1.5916  -51.8404  -26.6458 C   0  0  0  0  0  0  0  0  0  0  0  0
    1.2323  -51.6725  -25.2565 C   0  0  0  0  0  0  0  0  0  0  0  0
   -0.2767  -51.6368  -24.9900 C   0  0  0  0  0  0  0  0  0  0  0  0
   -1.0885  -52.5220  -25.8494 C   0  0  0  0  0  0  0  0  0  0  0  0
 24 25  1  0  0  0
 25 26  2  0  0  0
 25 27  1  0  0  0
 27 28  1  0  0  0
 28 29  1  0  0  0
 29 30  1  0  0  0
 30 23  1  0  0  0
 23 22  1  0  0  0
 22  1  1  0  0  0
  1  2  2  0  0  0
  2  3  1  0  0  0
  3  4  2  0  0  0
  4  5  1  0  0  0
  5  6  2  0  0  0
  6  7  1  0  0  0
  7  8  2  0  0  0
  8  9  1  0  0  0
  9 10  2  0  0  0
 10 11  1  0  0  0
 11 12  1  0  0  0
 12 13  2  0  0  0
 13 19  1  0  0  0
 19 20  1  0  0  0
 13 14  1  0  0  0
 14 15  2  0  0  0
 14 16  1  0  0  0
 16 17  1  0  0  0
 16 18  1  0  0  0
 30 31  1  0  0  0
 31 32  1  0  0  0
 32 27  1  0  0  0
 10  1  1  0  0  0
 18 11  2  0  0  0
  9  4  1  0  0  0
 20 21  1  0  0  0
M  END
> <minimizedAffinity>
-8.56657

> <CNNscore>
0.2194170952

> <CNNaffinity>
6.3914613724

> <CNN_VS>
1.4023958445

> <CNNaffinity_variance>
0.2009330541

$$$$
[H]OC([H])([H])c1c([H])c(-c2c(OC([H])([H])C3([H])C([H])([H])C([H])([H])N(C(=O)C([H])([H])[H])C([H])([H])C3([H])[H])c([H])c([H])c3nc([H])c([H])nc23)c([H])n(C([H])([H])[H])c1=O


 32 35  0  0  0  0  0  0  0  0999 V2000
    2.8620  -52.6413  -25.3811 C   0  0  0  0  0  0  0  0  0  0  0  0
    3.0913  -52.8172  -26.7706 C   0  0  0  0  0  0  0  0  0  0  0  0
    2.1113  -52.8309  -27.7117 C   0  0  0  0  0  0  0  0  0  0  0  0
    0.8119  -52.6622  -27.3143 C   0  0  0  0  0  0  0  0  0  0  0  0
   -0.1886  -52.6449  -28.2324 N   0  0  0  0  0  0  0  0  0  0  0  0
   -1.4801  -52.4530  -27.8263 C   0  0  0  0  0  0  0  0  0  0  0  0
   -1.7385  -52.2775  -26.4954 C   0  0  0  0  0  0  0  0  0  0  0  0
   -0.7219  -52.2979  -25.6148 N   0  0  0  0  0  0  0  0  0  0  0  0
    0.5410  -52.4867  -25.9829 C   0  0  0  0  0  0  0  0  0  0  0  0
    1.5558  -52.4716  -24.9931 C   0  0  0  0  0  0  0  0  0  0  0  0
    1.1476  -52.2222  -23.6143 C   0  0  0  0  0  0  0  0  0  0  0  0
    0.7131  -53.2925  -22.8344 C   0  0  0  0  0  0  0  0  0  0  0  0
    0.2886  -53.1906  -21.5302 C   0  0  0  0  0  0  0  0  0  0  0  0
    0.3126  -51.8895  -21.0036 C   0  0  0  0  0  0  0  0  0  0  0  0
   -0.0901  -51.8065  -19.7842 O   0  0  0  0  0  0  0  0  0  0  0  0
    0.7154  -50.8412  -21.7050 N   0  0  0  0  0  0  0  0  0  0  0  0
    0.7222  -49.5495  -21.0875 C   0  0  0  0  0  0  0  0  0  0  0  0
    1.1336  -50.9841  -22.9988 C   0  0  0  0  0  0  0  0  0  0  0  0
   -0.2012  -54.3440  -20.7306 C   0  0  0  0  0  0  0  0  0  0  0  0
   -1.5715  -54.1856  -20.4814 O   0  0  0  0  0  0  0  0  0  0  0  0
   -1.7903  -53.2246  -20.4997 H   0  0  0  0  0  0  0  0  0  0  0  0
    3.8557  -52.6320  -24.5156 O   0  0  0  0  0  0  0  0  0  0  0  0
    5.0728  -52.3272  -24.1444 C   0  0  0  0  0  0  0  0  0  0  0  0
    3.2061  -46.4252  -23.1982 C   0  0  0  0  0  0  0  0  0  0  0  0
    3.6631  -47.5348  -22.3275 C   0  0  0  0  0  0  0  0  0  0  0  0
    3.7462  -47.2886  -21.0748 O   0  0  0  0  0  0  0  0  0  0  0  0
    4.0041  -48.8154  -22.8164 N   0  0  0  0  0  0  0  0  0  0  0  0
    3.9141  -49.0765  -24.2384 C   0  0  0  0  0  0  0  0  0  0  0  0
    5.1328  -49.8042  -24.6704 C   0  0  0  0  0  0  0  0  0  0  0  0
    5.5559  -50.9311  -23.8713 C   0  0  0  0  0  0  0  0  0  0  0  0
    5.5265  -50.6845  -22.3588 C   0  0  0  0  0  0  0  0  0  0  0  0
    4.4210  -49.8291  -21.8821 C   0  0  0  0  0  0  0  0  0  0  0  0
 24 25  1  0  0  0
 25 26  2  0  0  0
 25 27  1  0  0  0
 27 28  1  0  0  0
 28 29  1  0  0  0
 29 30  1  0  0  0
 30 23  1  0  0  0
 23 22  1  0  0  0
 22  1  1  0  0  0
  1  2  2  0  0  0
  2  3  1  0  0  0
  3  4  2  0  0  0
  4  5  1  0  0  0
  5  6  2  0  0  0
  6  7  1  0  0  0
  7  8  2  0  0  0
  8  9  1  0  0  0
  9 10  2  0  0  0
 10 11  1  0  0  0
 11 12  1  0  0  0
 12 13  2  0  0  0
 13 19  1  0  0  0
 19 20  1  0  0  0
 13 14  1  0  0  0
 14 15  2  0  0  0
 14 16  1  0  0  0
 16 17  1  0  0  0
 16 18  1  0  0  0
 30 31  1  0  0  0
 31 32  1  0  0  0
 32 27  1  0  0  0
 10  1  1  0  0  0
 18 11  2  0  0  0
  9  4  1  0  0  0
 20 21  1  0  0  0
M  END
> <minimizedAffinity>
-8.22159

> <CNNscore>
0.2098329216

> <CNNaffinity>
6.3511323929

> <CNN_VS>
1.3326766491

> <CNNaffinity_variance>
0.2663798630

$$$$
[H]OC([H])([H])c1c([H])c(-c2c(OC([H])([H])C3([H])C([H])([H])C([H])([H])N(C(=O)C([H])([H])[H])C([H])([H])C3([H])[H])c([H])c([H])c3nc([H])c([H])nc23)c([H])n(C([H])([H])[H])c1=O


 32 35  0  0  0  0  0  0  0  0999 V2000
    3.0924  -51.5663  -22.7154 C   0  0  0  0  0  0  0  0  0  0  0  0
    3.4425  -51.5369  -21.3403 C   0  0  0  0  0  0  0  0  0  0  0  0
    2.6142  -51.9156  -20.3320 C   0  0  0  0  0  0  0  0  0  0  0  0
    1.3571  -52.3609  -20.6423 C   0  0  0  0  0  0  0  0  0  0  0  0
    0.5138  -52.7712  -19.6600 N   0  0  0  0  0  0  0  0  0  0  0  0
   -0.7310  -53.2355  -19.9834 C   0  0  0  0  0  0  0  0  0  0  0  0
   -1.1019  -53.2805  -21.2985 C   0  0  0  0  0  0  0  0  0  0  0  0
   -0.2393  -52.8683  -22.2446 N   0  0  0  0  0  0  0  0  0  0  0  0
    0.9741  -52.4092  -21.9568 C   0  0  0  0  0  0  0  0  0  0  0  0
    1.8302  -52.0158  -23.0160 C   0  0  0  0  0  0  0  0  0  0  0  0
    1.3276  -52.1639  -24.3781 C   0  0  0  0  0  0  0  0  0  0  0  0
    2.2260  -52.4632  -25.4009 C   0  0  0  0  0  0  0  0  0  0  0  0
    1.8850  -52.6137  -26.7246 C   0  0  0  0  0  0  0  0  0  0  0  0
    0.5208  -52.4363  -27.0046 C   0  0  0  0  0  0  0  0  0  0  0  0
    0.2147  -52.5760  -28.2467 O   0  0  0  0  0  0  0  0  0  0  0  0
   -0.3703  -52.1497  -26.0681 N   0  0  0  0  0  0  0  0  0  0  0  0
   -1.7455  -51.9986  -26.4366 C   0  0  0  0  0  0  0  0  0  0  0  0
    0.0079  -52.0115  -24.7615 C   0  0  0  0  0  0  0  0  0  0  0  0
    2.8686  -52.9009  -27.8014 C   0  0  0  0  0  0  0  0  0  0  0  0
    2.4532  -54.0317  -28.5181 O   0  0  0  0  0  0  0  0  0  0  0  0
    1.8993  -54.5966  -27.9300 H   0  0  0  0  0  0  0  0  0  0  0  0
    3.9423  -51.1907  -23.6499 O   0  0  0  0  0  0  0  0  0  0  0  0
    5.0884  -50.7055  -24.0536 C   0  0  0  0  0  0  0  0  0  0  0  0
    2.4129  -45.1716  -25.2499 C   0  0  0  0  0  0  0  0  0  0  0  0
    2.9466  -45.8405  -24.0391 C   0  0  0  0  0  0  0  0  0  0  0  0
    2.9083  -45.1743  -22.9476 O   0  0  0  0  0  0  0  0  0  0  0  0
    3.4838  -47.1468  -24.0470 N   0  0  0  0  0  0  0  0  0  0  0  0
    3.5292  -47.8854  -25.2923 C   0  0  0  0  0  0  0  0  0  0  0  0
    4.8592  -48.5308  -25.4188 C   0  0  0  0  0  0  0  0  0  0  0  0
    5.3666  -49.2450  -24.2701 C   0  0  0  0  0  0  0  0  0  0  0  0
    5.1986  -48.5067  -22.9374 C   0  0  0  0  0  0  0  0  0  0  0  0
    3.9610  -47.7109  -22.8107 C   0  0  0  0  0  0  0  0  0  0  0  0
 24 25  1  0  0  0
 25 26  2  0  0  0
 25 27  1  0  0  0
 27 28  1  0  0  0
 28 29  1  0  0  0
 29 30  1  0  0  0
 30 23  1  0  0  0
 23 22  1  0  0  0
 22  1  1  0  0  0
  1  2  2  0  0  0
  2  3  1  0  0  0
  3  4  2  0  0  0
  4  5  1  0  0  0
  5  6  2  0  0  0
  6  7  1  0  0  0
  7  8  2  0  0  0
  8  9  1  0  0  0
  9 10  2  0  0  0
 10 11  1  0  0  0
 11 12  1  0  0  0
 12 13  2  0  0  0
 13 19  1  0  0  0
 19 20  1  0  0  0
 13 14  1  0  0  0
 14 15  2  0  0  0
 14 16  1  0  0  0
 16 17  1  0  0  0
 16 18  1  0  0  0
 30 31  1  0  0  0
 31 32  1  0  0  0
 32 27  1  0  0  0
 10  1  1  0  0  0
 18 11  2  0  0  0
  9  4  1  0  0  0
 20 21  1  0  0  0
M  END
> <minimizedAffinity>
-8.05737

> <CNNscore>
0.2097859383

> <CNNaffinity>
6.3625979424

> <CNN_VS>
1.3347835541

> <CNNaffinity_variance>
0.1826418042

$$$$
[H]OC([H])([H])c1c([H])c(-c2c(OC([H])([H])C3([H])C([H])([H])C([H])([H])N(C(=O)C([H])([H])[H])C([H])([H])C3([H])[H])c([H])c([H])c3nc([H])c([H])nc23)c([H])n(C([H])([H])[H])c1=O


 32 35  0  0  0  0  0  0  0  0999 V2000
    1.0727  -52.3789  -21.4248 C   0  0  0  0  0  0  0  0  0  0  0  0
    0.0897  -53.3568  -21.1223 C   0  0  0  0  0  0  0  0  0  0  0  0
   -0.5829  -53.4262  -19.9437 C   0  0  0  0  0  0  0  0  0  0  0  0
   -0.3114  -52.4992  -18.9732 C   0  0  0  0  0  0  0  0  0  0  0  0
   -0.9844  -52.5249  -17.7939 N   0  0  0  0  0  0  0  0  0  0  0  0
   -0.7212  -51.5804  -16.8408 C   0  0  0  0  0  0  0  0  0  0  0  0
    0.2180  -50.6210  -17.0984 C   0  0  0  0  0  0  0  0  0  0  0  0
    0.8629  -50.6251  -18.2788 N   0  0  0  0  0  0  0  0  0  0  0  0
    0.6288  -51.5338  -19.2198 C   0  0  0  0  0  0  0  0  0  0  0  0
    1.3365  -51.4532  -20.4455 C   0  0  0  0  0  0  0  0  0  0  0  0
    2.2745  -50.3472  -20.6097 C   0  0  0  0  0  0  0  0  0  0  0  0
    1.8998  -49.2536  -21.3884 C   0  0  0  0  0  0  0  0  0  0  0  0
    2.6933  -48.1575  -21.6339 C   0  0  0  0  0  0  0  0  0  0  0  0
    3.9620  -48.2035  -21.0346 C   0  0  0  0  0  0  0  0  0  0  0  0
    4.6963  -47.1744  -21.2745 O   0  0  0  0  0  0  0  0  0  0  0  0
    4.3640  -49.2205  -20.2880 N   0  0  0  0  0  0  0  0  0  0  0  0
    5.6695  -49.1820  -19.7014 C   0  0  0  0  0  0  0  0  0  0  0  0
    3.5439  -50.2913  -20.0643 C   0  0  0  0  0  0  0  0  0  0  0  0
    2.2815  -47.0185  -22.4956 C   0  0  0  0  0  0  0  0  0  0  0  0
    3.0353  -47.0360  -23.6773 O   0  0  0  0  0  0  0  0  0  0  0  0
    3.8960  -47.4828  -23.5003 H   0  0  0  0  0  0  0  0  0  0  0  0
    1.6884  -52.3597  -22.5898 O   0  0  0  0  0  0  0  0  0  0  0  0
    1.7222  -52.1800  -23.8854 C   0  0  0  0  0  0  0  0  0  0  0  0
   -2.2428  -52.6660  -28.7079 C   0  0  0  0  0  0  0  0  0  0  0  0
   -0.7710  -52.5580  -28.5648 C   0  0  0  0  0  0  0  0  0  0  0  0
   -0.0823  -52.5941  -29.6423 O   0  0  0  0  0  0  0  0  0  0  0  0
   -0.1199  -52.4247  -27.3184 N   0  0  0  0  0  0  0  0  0  0  0  0
   -0.9124  -52.3949  -26.1062 C   0  0  0  0  0  0  0  0  0  0  0  0
   -0.2747  -53.2734  -25.0947 C   0  0  0  0  0  0  0  0  0  0  0  0
    1.1493  -53.1355  -24.8933 C   0  0  0  0  0  0  0  0  0  0  0  0
    1.9678  -53.0406  -26.1857 C   0  0  0  0  0  0  0  0  0  0  0  0
    1.3155  -52.3105  -27.2914 C   0  0  0  0  0  0  0  0  0  0  0  0
 24 25  1  0  0  0
 25 26  2  0  0  0
 25 27  1  0  0  0
 27 28  1  0  0  0
 28 29  1  0  0  0
 29 30  1  0  0  0
 30 23  1  0  0  0
 23 22  1  0  0  0
 22  1  1  0  0  0
  1  2  2  0  0  0
  2  3  1  0  0  0
  3  4  2  0  0  0
  4  5  1  0  0  0
  5  6  2  0  0  0
  6  7  1  0  0  0
  7  8  2  0  0  0
  8  9  1  0  0  0
  9 10  2  0  0  0
 10 11  1  0  0  0
 11 12  1  0  0  0
 12 13  2  0  0  0
 13 19  1  0  0  0
 19 20  1  0  0  0
 13 14  1  0  0  0
 14 15  2  0  0  0
 14 16  1  0  0  0
 16 17  1  0  0  0
 16 18  1  0  0  0
 30 31  1  0  0  0
 31 32  1  0  0  0
 32 27  1  0  0  0
 10  1  1  0  0  0
 18 11  2  0  0  0
  9  4  1  0  0  0
 20 21  1  0  0  0
M  END
> <minimizedAffinity>
-8.00275

> <CNNscore>
0.1951692551

> <CNNaffinity>
6.4947509766

> <CNN_VS>
1.2675757408

> <CNNaffinity_variance>
0.0563652404

$$$$
[H]OC([H])([H])c1c([H])c(-c2c(OC([H])([H])C3([H])C([H])([H])C([H])([H])N(C(=O)C([H])([H])[H])C([H])([H])C3([H])[H])c([H])c([H])c3nc([H])c([H])nc23)c([H])n(C([H])([H])[H])c1=O


 32 35  0  0  0  0  0  0  0  0999 V2000
    0.6002  -52.9566  -21.9286 C   0  0  0  0  0  0  0  0  0  0  0  0
   -0.4056  -53.8485  -21.4736 C   0  0  0  0  0  0  0  0  0  0  0  0
   -0.9428  -53.8232  -20.2259 C   0  0  0  0  0  0  0  0  0  0  0  0
   -0.5009  -52.8811  -19.3359 C   0  0  0  0  0  0  0  0  0  0  0  0
   -1.0355  -52.8122  -18.0893 N   0  0  0  0  0  0  0  0  0  0  0  0
   -0.6025  -51.8527  -17.2166 C   0  0  0  0  0  0  0  0  0  0  0  0
    0.3638  -50.9744  -17.6212 C   0  0  0  0  0  0  0  0  0  0  0  0
    0.8684  -51.0711  -18.8643 N   0  0  0  0  0  0  0  0  0  0  0  0
    0.4680  -51.9964  -19.7300 C   0  0  0  0  0  0  0  0  0  0  0  0
    1.0355  -52.0149  -21.0290 C   0  0  0  0  0  0  0  0  0  0  0  0
    2.0211  -50.9868  -21.3477 C   0  0  0  0  0  0  0  0  0  0  0  0
    3.3764  -51.2938  -21.2399 C   0  0  0  0  0  0  0  0  0  0  0  0
    4.4021  -50.4141  -21.4956 C   0  0  0  0  0  0  0  0  0  0  0  0
    3.9920  -49.1290  -21.8841 C   0  0  0  0  0  0  0  0  0  0  0  0
    4.9603  -48.3141  -22.1169 O   0  0  0  0  0  0  0  0  0  0  0  0
    2.7174  -48.7891  -21.9992 N   0  0  0  0  0  0  0  0  0  0  0  0
    2.3846  -47.4601  -22.4148 C   0  0  0  0  0  0  0  0  0  0  0  0
    1.7259  -49.6940  -21.7393 C   0  0  0  0  0  0  0  0  0  0  0  0
    5.8400  -50.7577  -21.3412 C   0  0  0  0  0  0  0  0  0  0  0  0
    6.3631  -51.1305  -22.5871 O   0  0  0  0  0  0  0  0  0  0  0  0
    5.6326  -51.4828  -23.1475 H   0  0  0  0  0  0  0  0  0  0  0  0
    1.0792  -53.0273  -23.1542 O   0  0  0  0  0  0  0  0  0  0  0  0
    1.7362  -52.5426  -24.1767 C   0  0  0  0  0  0  0  0  0  0  0  0
   -1.0526  -52.9837  -29.7661 C   0  0  0  0  0  0  0  0  0  0  0  0
   -1.5172  -52.7721  -28.3741 C   0  0  0  0  0  0  0  0  0  0  0  0
   -2.7741  -52.6044  -28.2045 O   0  0  0  0  0  0  0  0  0  0  0  0
   -0.6479  -52.7456  -27.2611 N   0  0  0  0  0  0  0  0  0  0  0  0
    0.7740  -52.9275  -27.4698 C   0  0  0  0  0  0  0  0  0  0  0  0
    1.5093  -51.9189  -26.6677 C   0  0  0  0  0  0  0  0  0  0  0  0
    1.1148  -51.7460  -25.2887 C   0  0  0  0  0  0  0  0  0  0  0  0
   -0.4000  -51.6813  -25.0641 C   0  0  0  0  0  0  0  0  0  0  0  0
   -1.2046  -52.5494  -25.9473 C   0  0  0  0  0  0  0  0  0  0  0  0
 24 25  1  0  0  0
 25 26  2  0  0  0
 25 27  1  0  0  0
 27 28  1  0  0  0
 28 29  1  0  0  0
 29 30  1  0  0  0
 30 23  1  0  0  0
 23 22  1  0  0  0
 22  1  1  0  0  0
  1  2  2  0  0  0
  2  3  1  0  0  0
  3  4  2  0  0  0
  4  5  1  0  0  0
  5  6  2  0  0  0
  6  7  1  0  0  0
  7  8  2  0  0  0
  8  9  1  0  0  0
  9 10  2  0  0  0
 10 11  1  0  0  0
 11 12  1  0  0  0
 12 13  2  0  0  0
 13 19  1  0  0  0
 19 20  1  0  0  0
 13 14  1  0  0  0
 14 15  2  0  0  0
 14 16  1  0  0  0
 16 17  1  0  0  0
 16 18  1  0  0  0
 30 31  1  0  0  0
 31 32  1  0  0  0
 32 27  1  0  0  0
 10  1  1  0  0  0
 18 11  2  0  0  0
  9  4  1  0  0  0
 20 21  1  0  0  0
M  END
> <minimizedAffinity>
-8.66938

> <CNNscore>
0.1929855198

> <CNNaffinity>
6.2831640244

> <CNN_VS>
1.2125597000

> <CNNaffinity_variance>
0.3087700307

$$$$
[H]OC([H])([H])c1c([H])c(-c2c(OC([H])([H])C3([H])C([H])([H])C([H])([H])N(C(=O)C([H])([H])[H])C([H])([H])C3([H])[H])c([H])c([H])c3nc([H])c([H])nc23)c([H])n(C([H])([H])[H])c1=O


 32 35  0  0  0  0  0  0  0  0999 V2000
    2.8861  -52.6760  -25.2726 C   0  0  0  0  0  0  0  0  0  0  0  0
    3.1205  -52.8719  -26.6585 C   0  0  0  0  0  0  0  0  0  0  0  0
    2.1466  -52.8754  -27.6060 C   0  0  0  0  0  0  0  0  0  0  0  0
    0.8485  -52.6751  -27.2191 C   0  0  0  0  0  0  0  0  0  0  0  0
   -0.1455  -52.6469  -28.1440 N   0  0  0  0  0  0  0  0  0  0  0  0
   -1.4352  -52.4234  -27.7487 C   0  0  0  0  0  0  0  0  0  0  0  0
   -1.6984  -52.2279  -26.4215 C   0  0  0  0  0  0  0  0  0  0  0  0
   -0.6882  -52.2599  -25.5340 N   0  0  0  0  0  0  0  0  0  0  0  0
    0.5728  -52.4792  -25.8915 C   0  0  0  0  0  0  0  0  0  0  0  0
    1.5813  -52.4745  -24.8952 C   0  0  0  0  0  0  0  0  0  0  0  0
    1.1696  -52.2014  -23.5219 C   0  0  0  0  0  0  0  0  0  0  0  0
    1.2597  -50.8980  -23.0362 C   0  0  0  0  0  0  0  0  0  0  0  0
    0.9193  -50.5115  -21.7611 C   0  0  0  0  0  0  0  0  0  0  0  0
    0.4597  -51.5490  -20.9346 C   0  0  0  0  0  0  0  0  0  0  0  0
    0.1479  -51.1757  -19.7433 O   0  0  0  0  0  0  0  0  0  0  0  0
    0.3579  -52.8023  -21.3496 N   0  0  0  0  0  0  0  0  0  0  0  0
   -0.1338  -53.7984  -20.4463 C   0  0  0  0  0  0  0  0  0  0  0  0
    0.7032  -53.1465  -22.6269 C   0  0  0  0  0  0  0  0  0  0  0  0
    1.0561  -49.1195  -21.2580 C   0  0  0  0  0  0  0  0  0  0  0  0
    1.8844  -49.1154  -20.1272 O   0  0  0  0  0  0  0  0  0  0  0  0
    1.8334  -49.9979  -19.6909 H   0  0  0  0  0  0  0  0  0  0  0  0
    3.8742  -52.6780  -24.4007 O   0  0  0  0  0  0  0  0  0  0  0  0
    5.1219  -52.4882  -24.0553 C   0  0  0  0  0  0  0  0  0  0  0  0
    3.8356  -46.4381  -23.0778 C   0  0  0  0  0  0  0  0  0  0  0  0
    4.2080  -47.5855  -22.2157 C   0  0  0  0  0  0  0  0  0  0  0  0
    4.3435  -47.3481  -20.9659 O   0  0  0  0  0  0  0  0  0  0  0  0
    4.4166  -48.8922  -22.7099 N   0  0  0  0  0  0  0  0  0  0  0  0
    4.2688  -49.1437  -24.1288 C   0  0  0  0  0  0  0  0  0  0  0  0
    5.4038  -49.9817  -24.5880 C   0  0  0  0  0  0  0  0  0  0  0  0
    5.7392  -51.1431  -23.7967 C   0  0  0  0  0  0  0  0  0  0  0  0
    5.7689  -50.8950  -22.2845 C   0  0  0  0  0  0  0  0  0  0  0  0
    4.7595  -49.9403  -21.7836 C   0  0  0  0  0  0  0  0  0  0  0  0
 24 25  1  0  0  0
 25 26  2  0  0  0
 25 27  1  0  0  0
 27 28  1  0  0  0
 28 29  1  0  0  0
 29 30  1  0  0  0
 30 23  1  0  0  0
 23 22  1  0  0  0
 22  1  1  0  0  0
  1  2  2  0  0  0
  2  3  1  0  0  0
  3  4  2  0  0  0
  4  5  1  0  0  0
  5  6  2  0  0  0
  6  7  1  0  0  0
  7  8  2  0  0  0
  8  9  1  0  0  0
  9 10  2  0  0  0
 10 11  1  0  0  0
 11 12  1  0  0  0
 12 13  2  0  0  0
 13 19  1  0  0  0
 19 20  1  0  0  0
 13 14  1  0  0  0
 14 15  2  0  0  0
 14 16  1  0  0  0
 16 17  1  0  0  0
 16 18  1  0  0  0
 30 31  1  0  0  0
 31 32  1  0  0  0
 32 27  1  0  0  0
 10  1  1  0  0  0
 18 11  2  0  0  0
  9  4  1  0  0  0
 20 21  1  0  0  0
M  END
> <minimizedAffinity>
-7.76276

> <CNNscore>
0.1843381524

> <CNNaffinity>
6.0724101067

> <CNN_VS>
1.1193768978

> <CNNaffinity_variance>
0.3406496048

$$$$
[H]OC([H])([H])c1c([H])c(-c2c(OC([H])([H])C3([H])C([H])([H])C([H])([H])N(C(=O)C([H])([H])[H])C([H])([H])C3([H])[H])c([H])c([H])c3nc([H])c([H])nc23)c([H])n(C([H])([H])[H])c1=O


 32 35  0  0  0  0  0  0  0  0999 V2000
    2.6176  -51.4930  -22.6901 C   0  0  0  0  0  0  0  0  0  0  0  0
    2.8713  -51.5144  -21.2939 C   0  0  0  0  0  0  0  0  0  0  0  0
    2.0508  -52.0896  -20.3762 C   0  0  0  0  0  0  0  0  0  0  0  0
    0.9013  -52.6963  -20.8068 C   0  0  0  0  0  0  0  0  0  0  0  0
    0.0726  -53.3030  -19.9182 N   0  0  0  0  0  0  0  0  0  0  0  0
   -1.0611  -53.9254  -20.3621 C   0  0  0  0  0  0  0  0  0  0  0  0
   -1.3366  -53.9271  -21.7012 C   0  0  0  0  0  0  0  0  0  0  0  0
   -0.4915  -53.3184  -22.5523 N   0  0  0  0  0  0  0  0  0  0  0  0
    0.6143  -52.7031  -22.1463 C   0  0  0  0  0  0  0  0  0  0  0  0
    1.4631  -52.1053  -23.1117 C   0  0  0  0  0  0  0  0  0  0  0  0
    1.0768  -52.2250  -24.5140 C   0  0  0  0  0  0  0  0  0  0  0  0
    2.0606  -52.4890  -25.4655 C   0  0  0  0  0  0  0  0  0  0  0  0
    1.8322  -52.6103  -26.8162 C   0  0  0  0  0  0  0  0  0  0  0  0
    0.4937  -52.4410  -27.2041 C   0  0  0  0  0  0  0  0  0  0  0  0
    0.2932  -52.5531  -28.4703 O   0  0  0  0  0  0  0  0  0  0  0  0
   -0.4755  -52.1876  -26.3383 N   0  0  0  0  0  0  0  0  0  0  0  0
   -1.8174  -52.0425  -26.8160 C   0  0  0  0  0  0  0  0  0  0  0  0
   -0.2085  -52.0777  -25.0019 C   0  0  0  0  0  0  0  0  0  0  0  0
    2.9052  -52.8598  -27.8141 C   0  0  0  0  0  0  0  0  0  0  0  0
    2.5807  -53.9959  -28.5683 O   0  0  0  0  0  0  0  0  0  0  0  0
    1.9992  -54.5815  -28.0291 H   0  0  0  0  0  0  0  0  0  0  0  0
    3.4552  -50.9231  -23.5329 O   0  0  0  0  0  0  0  0  0  0  0  0
    4.5334  -50.2391  -23.8184 C   0  0  0  0  0  0  0  0  0  0  0  0
    3.4142  -46.5207  -18.9058 C   0  0  0  0  0  0  0  0  0  0  0  0
    4.4768  -47.4882  -19.2703 C   0  0  0  0  0  0  0  0  0  0  0  0
    5.4413  -47.6256  -18.4410 O   0  0  0  0  0  0  0  0  0  0  0  0
    4.4659  -48.2390  -20.4667 N   0  0  0  0  0  0  0  0  0  0  0  0
    3.3721  -48.0658  -21.4004 C   0  0  0  0  0  0  0  0  0  0  0  0
    3.9253  -47.9624  -22.7733 C   0  0  0  0  0  0  0  0  0  0  0  0
    4.9139  -48.9384  -23.1699 C   0  0  0  0  0  0  0  0  0  0  0  0
    5.9982  -49.2075  -22.1205 C   0  0  0  0  0  0  0  0  0  0  0  0
    5.5399  -49.1654  -20.7172 C   0  0  0  0  0  0  0  0  0  0  0  0
 24 25  1  0  0  0
 25 26  2  0  0  0
 25 27  1  0  0  0
 27 28  1  0  0  0
 28 29  1  0  0  0
 29 30  1  0  0  0
 30 23  1  0  0  0
 23 22  1  0  0  0
 22  1  1  0  0  0
  1  2  2  0  0  0
  2  3  1  0  0  0
  3  4  2  0  0  0
  4  5  1  0  0  0
  5  6  2  0  0  0
  6  7  1  0  0  0
  7  8  2  0  0  0
  8  9  1  0  0  0
  9 10  2  0  0  0
 10 11  1  0  0  0
 11 12  1  0  0  0
 12 13  2  0  0  0
 13 19  1  0  0  0
 19 20  1  0  0  0
 13 14  1  0  0  0
 14 15  2  0  0  0
 14 16  1  0  0  0
 16 17  1  0  0  0
 16 18  1  0  0  0
 30 31  1  0  0  0
 31 32  1  0  0  0
 32 27  1  0  0  0
 10  1  1  0  0  0
 18 11  2  0  0  0
  9  4  1  0  0  0
 20 21  1  0  0  0
M  END
> <minimizedAffinity>
-7.65236

> <CNNscore>
0.1821396500

> <CNNaffinity>
6.5149254799

> <CNN_VS>
1.1866261959

> <CNNaffinity_variance>
0.1570321023

$$$$
[H]OC([H])([H])c1c([H])c(-c2c(OC([H])([H])C3([H])C([H])([H])C([H])([H])N(C(=O)C([H])([H])[H])C([H])([H])C3([H])[H])c([H])c([H])c3nc([H])c([H])nc23)c([H])n(C([H])([H])[H])c1=O


 32 35  0  0  0  0  0  0  0  0999 V2000
    1.5381  -50.6456  -22.8078 C   0  0  0  0  0  0  0  0  0  0  0  0
    1.5688  -50.4987  -21.3965 C   0  0  0  0  0  0  0  0  0  0  0  0
    0.8903  -51.2951  -20.5297 C   0  0  0  0  0  0  0  0  0  0  0  0
    0.1242  -52.3137  -21.0303 C   0  0  0  0  0  0  0  0  0  0  0  0
   -0.5458  -53.1439  -20.1900 N   0  0  0  0  0  0  0  0  0  0  0  0
   -1.2894  -54.1716  -20.7003 C   0  0  0  0  0  0  0  0  0  0  0  0
   -1.3403  -54.3453  -22.0553 C   0  0  0  0  0  0  0  0  0  0  0  0
   -0.6615  -53.5051  -22.8570 N   0  0  0  0  0  0  0  0  0  0  0  0
    0.0649  -52.4965  -22.3868 C   0  0  0  0  0  0  0  0  0  0  0  0
    0.7682  -51.6708  -23.2996 C   0  0  0  0  0  0  0  0  0  0  0  0
    0.6688  -51.9988  -24.7182 C   0  0  0  0  0  0  0  0  0  0  0  0
    1.8282  -52.3284  -25.4182 C   0  0  0  0  0  0  0  0  0  0  0  0
    1.8735  -52.6417  -26.7565 C   0  0  0  0  0  0  0  0  0  0  0  0
    0.6325  -52.6052  -27.4117 C   0  0  0  0  0  0  0  0  0  0  0  0
    0.6882  -52.8965  -28.6638 O   0  0  0  0  0  0  0  0  0  0  0  0
   -0.4955  -52.2965  -26.7906 N   0  0  0  0  0  0  0  0  0  0  0  0
   -1.7214  -52.2960  -27.5302 C   0  0  0  0  0  0  0  0  0  0  0  0
   -0.4998  -51.9941  -25.4573 C   0  0  0  0  0  0  0  0  0  0  0  0
    3.1290  -52.9580  -27.4867 C   0  0  0  0  0  0  0  0  0  0  0  0
    3.3460  -51.9883  -28.4754 O   0  0  0  0  0  0  0  0  0  0  0  0
    2.4780  -51.6051  -28.7426 H   0  0  0  0  0  0  0  0  0  0  0  0
    2.2229  -49.8438  -23.5981 O   0  0  0  0  0  0  0  0  0  0  0  0
    3.1332  -48.9314  -23.8241 C   0  0  0  0  0  0  0  0  0  0  0  0
    3.9908  -46.4280  -29.4995 C   0  0  0  0  0  0  0  0  0  0  0  0
    4.5568  -46.1900  -28.1500 C   0  0  0  0  0  0  0  0  0  0  0  0
    5.4620  -45.2910  -28.0543 O   0  0  0  0  0  0  0  0  0  0  0  0
    4.1480  -46.9014  -27.0002 N   0  0  0  0  0  0  0  0  0  0  0  0
    3.1287  -47.9230  -27.1259 C   0  0  0  0  0  0  0  0  0  0  0  0
    3.5535  -49.1209  -26.3604 C   0  0  0  0  0  0  0  0  0  0  0  0
    4.0455  -48.9153  -25.0176 C   0  0  0  0  0  0  0  0  0  0  0  0
    5.0291  -47.7488  -24.8727 C   0  0  0  0  0  0  0  0  0  0  0  0
    4.7506  -46.5805  -25.7321 C   0  0  0  0  0  0  0  0  0  0  0  0
 24 25  1  0  0  0
 25 26  2  0  0  0
 25 27  1  0  0  0
 27 28  1  0  0  0
 28 29  1  0  0  0
 29 30  1  0  0  0
 30 23  1  0  0  0
 23 22  1  0  0  0
 22  1  1  0  0  0
  1  2  2  0  0  0
  2  3  1  0  0  0
  3  4  2  0  0  0
  4  5  1  0  0  0
  5  6  2  0  0  0
  6  7  1  0  0  0
  7  8  2  0  0  0
  8  9  1  0  0  0
  9 10  2  0  0  0
 10 11  1  0  0  0
 11 12  1  0  0  0
 12 13  2  0  0  0
 13 19  1  0  0  0
 19 20  1  0  0  0
 13 14  1  0  0  0
 14 15  2  0  0  0
 14 16  1  0  0  0
 16 17  1  0  0  0
 16 18  1  0  0  0
 30 31  1  0  0  0
 31 32  1  0  0  0
 32 27  1  0  0  0
 10  1  1  0  0  0
 18 11  2  0  0  0
  9  4  1  0  0  0
 20 21  1  0  0  0
M  END
> <minimizedAffinity>
-7.90603

> <CNNscore>
0.1781996638

> <CNNaffinity>
6.2435884476

> <CNN_VS>
1.1126053333

> <CNNaffinity_variance>
0.2871282399

$$$$
[H]c1nc(N([H])c2c([H])c([H])c(C3([H])C([H])([H])C([H])([H])N(C(=O)C4([H])C([H])([H])C4([H])[H])C([H])([H])C3([H])[H])c([H])c2OC([H])([H])[H])nc(N([H])c2c([H])c([H])c([H])c([H])c2N2C([H])([H])C([H])([H])C([H])([H])[C@@]([H])(N3C([H])([H])C([H])([H])OC([H])([H])C3([H])[H])C2([H])[H])c1Cl


 48 54  0  0  0  0  0  0  0  0999 V2000
   -0.0871  -53.3161  -22.3817 C   0  0  0  0  0  0  0  0  0  0  0  0
   -0.8820  -54.2107  -21.8162 N   0  0  0  0  0  0  0  0  0  0  0  0
   -1.2796  -54.1025  -20.5455 C   0  0  0  0  0  0  0  0  0  0  0  0
   -0.8846  -53.0546  -19.7530 C   0  0  0  0  0  0  0  0  0  0  0  0
   -1.3701  -52.8710  -18.1003 Cl  0  0  0  0  0  0  0  0  0  0  0  0
   -0.0334  -52.0826  -20.3336 C   0  0  0  0  0  0  0  0  0  0  0  0
    0.2894  -52.2909  -21.5806 N   0  0  0  0  0  0  0  0  0  0  0  0
    0.4231  -53.3058  -23.6963 N   0  0  0  0  0  0  0  0  0  0  0  0
    0.0242  -54.0671  -24.3524 H   0  0  0  0  0  0  0  0  0  0  0  0
    0.9588  -51.5357  -25.2001 C   0  0  0  0  0  0  0  0  0  0  0  0
    1.8087  -50.6118  -25.7524 C   0  0  0  0  0  0  0  0  0  0  0  0
    3.1101  -50.5288  -25.3191 C   0  0  0  0  0  0  0  0  0  0  0  0
    3.5301  -51.3848  -24.3323 C   0  0  0  0  0  0  0  0  0  0  0  0
    2.6560  -52.3249  -23.7736 C   0  0  0  0  0  0  0  0  0  0  0  0
    1.3727  -52.4162  -24.1909 C   0  0  0  0  0  0  0  0  0  0  0  0
    4.0433  -49.5216  -25.8992 C   0  0  0  0  0  0  0  0  0  0  0  0
    5.1457  -49.1595  -24.9794 C   0  0  0  0  0  0  0  0  0  0  0  0
    5.3998  -47.6691  -25.0120 C   0  0  0  0  0  0  0  0  0  0  0  0
    5.3574  -47.2536  -26.3793 N   0  0  0  0  0  0  0  0  0  0  0  0
    4.0415  -47.2741  -26.9974 C   0  0  0  0  0  0  0  0  0  0  0  0
    3.1907  -48.3526  -26.3304 C   0  0  0  0  0  0  0  0  0  0  0  0
    6.4830  -46.8618  -27.0938 C   0  0  0  0  0  0  0  0  0  0  0  0
    6.3947  -46.4851  -28.3236 O   0  0  0  0  0  0  0  0  0  0  0  0
    7.8616  -46.8343  -26.5435 C   0  0  0  0  0  0  0  0  0  0  0  0
    8.3561  -45.5452  -25.9237 C   0  0  0  0  0  0  0  0  0  0  0  0
    8.9003  -45.9913  -27.2069 C   0  0  0  0  0  0  0  0  0  0  0  0
   -0.6273  -52.2002  -26.8917 C   0  0  0  0  0  0  0  0  0  0  0  0
   -0.3418  -51.5996  -25.6513 O   0  0  0  0  0  0  0  0  0  0  0  0
    0.3929  -50.9880  -19.5445 N   0  0  0  0  0  0  0  0  0  0  0  0
    0.1432  -51.0463  -18.5021 H   0  0  0  0  0  0  0  0  0  0  0  0
    1.1036  -49.8792  -19.9721 C   0  0  0  0  0  0  0  0  0  0  0  0
    0.9347  -49.3135  -21.2173 C   0  0  0  0  0  0  0  0  0  0  0  0
    1.7306  -48.2168  -21.5907 C   0  0  0  0  0  0  0  0  0  0  0  0
    2.6717  -47.7044  -20.7316 C   0  0  0  0  0  0  0  0  0  0  0  0
    2.8317  -48.2783  -19.4882 C   0  0  0  0  0  0  0  0  0  0  0  0
    2.0659  -49.3514  -19.0970 C   0  0  0  0  0  0  0  0  0  0  0  0
    2.2071  -49.9154  -17.8065 N   0  0  0  0  0  0  0  0  0  0  0  0
    3.2694  -50.8341  -17.4616 C   0  0  0  0  0  0  0  0  0  0  0  0
    3.5508  -50.9559  -16.0031 C   0  0  0  0  0  0  0  0  0  0  0  0
    2.3451  -50.8335  -15.1057 C   0  0  0  0  0  0  0  0  0  0  0  0
    1.0591  -50.6159  -15.8316 C   0  0  0  0  0  0  0  0  0  0  0  0
    1.2126  -49.5117  -16.8212 C   0  0  0  0  0  0  0  0  0  0  0  0
    0.0148  -50.3782  -14.8656 N   0  0  0  0  0  0  0  0  0  0  0  0
   -0.7544  -49.2167  -15.0821 C   0  0  0  0  0  0  0  0  0  0  0  0
   -2.2433  -49.3777  -15.0507 C   0  0  0  0  0  0  0  0  0  0  0  0
   -2.6073  -50.6801  -15.4604 O   0  0  0  0  0  0  0  0  0  0  0  0
   -2.1324  -51.5062  -14.4165 C   0  0  0  0  0  0  0  0  0  0  0  0
   -0.6467  -51.5414  -14.4147 C   0  0  0  0  0  0  0  0  0  0  0  0
 27 28  1  0  0  0
 28 10  1  0  0  0
 10 11  2  0  0  0
 11 12  1  0  0  0
 12 13  2  0  0  0
 13 14  1  0  0  0
 14 15  2  0  0  0
 15  8  1  0  0  0
  8  1  1  0  0  0
  1  2  2  0  0  0
  2  3  1  0  0  0
  3  4  2  0  0  0
  4  5  1  0  0  0
  4  6  1  0  0  0
  6 29  1  0  0  0
 29 31  1  0  0  0
 31 32  2  0  0  0
 32 33  1  0  0  0
 33 34  2  0  0  0
 34 35  1  0  0  0
 35 36  2  0  0  0
 36 37  1  0  0  0
 37 38  1  0  0  0
 38 39  1  0  0  0
 39 40  1  0  0  0
 40 41  1  0  0  0
 41 42  1  0  0  0
 41 43  1  0  0  0
 43 44  1  0  0  0
 44 45  1  0  0  0
 45 46  1  0  0  0
 46 47  1  0  0  0
 47 48  1  0  0  0
  6  7  2  0  0  0
 12 16  1  0  0  0
 16 17  1  0  0  0
 17 18  1  0  0  0
 18 19  1  0  0  0
 19 20  1  0  0  0
 20 21  1  0  0  0
 19 22  1  0  0  0
 22 23  2  0  0  0
 22 24  1  0  0  0
 24 25  1  0  0  0
 25 26  1  0  0  0
 15 10  1  0  0  0
  7  1  1  0  0  0
 21 16  1  0  0  0
 26 24  1  0  0  0
 36 31  1  0  0  0
 42 37  1  0  0  0
 48 43  1  0  0  0
  8  9  1  0  0  0
 29 30  1  0  0  0
M  END
> <minimizedAffinity>
-7.94303

> <CNNscore>
0.2140592933

> <CNNaffinity>
7.6564354897

> <CNN_VS>
1.6389311552

> <CNNaffinity_variance>
0.0792186037

$$$$
[H]c1nc(N([H])c2c([H])c([H])c(C3([H])C([H])([H])C([H])([H])N(C(=O)C4([H])C([H])([H])C4([H])[H])C([H])([H])C3([H])[H])c([H])c2OC([H])([H])[H])nc(N([H])c2c([H])c([H])c([H])c([H])c2N2C([H])([H])C([H])([H])C([H])([H])[C@@]([H])(N3C([H])([H])C([H])([H])OC([H])([H])C3([H])[H])C2([H])[H])c1Cl


 48 54  0  0  0  0  0  0  0  0999 V2000
   -0.2961  -52.7541  -24.7332 C   0  0  0  0  0  0  0  0  0  0  0  0
   -0.3927  -53.6924  -25.6616 N   0  0  0  0  0  0  0  0  0  0  0  0
    0.4977  -53.8047  -26.6510 C   0  0  0  0  0  0  0  0  0  0  0  0
    1.5657  -52.9504  -26.7604 C   0  0  0  0  0  0  0  0  0  0  0  0
    2.7449  -53.0527  -28.0252 Cl  0  0  0  0  0  0  0  0  0  0  0  0
    1.6930  -51.9366  -25.7794 C   0  0  0  0  0  0  0  0  0  0  0  0
    0.7659  -51.9231  -24.8613 N   0  0  0  0  0  0  0  0  0  0  0  0
   -1.1604  -52.5055  -23.6470 N   0  0  0  0  0  0  0  0  0  0  0  0
   -2.2122  -52.4641  -23.8940 H   0  0  0  0  0  0  0  0  0  0  0  0
   -1.1155  -53.3129  -21.4048 C   0  0  0  0  0  0  0  0  0  0  0  0
   -0.7714  -53.2317  -20.0796 C   0  0  0  0  0  0  0  0  0  0  0  0
   -0.0646  -52.1476  -19.6175 C   0  0  0  0  0  0  0  0  0  0  0  0
    0.2822  -51.1618  -20.5067 C   0  0  0  0  0  0  0  0  0  0  0  0
   -0.0727  -51.2524  -21.8579 C   0  0  0  0  0  0  0  0  0  0  0  0
   -0.7678  -52.3144  -22.3252 C   0  0  0  0  0  0  0  0  0  0  0  0
    0.3289  -52.0501  -18.1832 C   0  0  0  0  0  0  0  0  0  0  0  0
   -0.7734  -52.3973  -17.2576 C   0  0  0  0  0  0  0  0  0  0  0  0
   -0.8094  -51.4396  -16.0878 C   0  0  0  0  0  0  0  0  0  0  0  0
    0.5377  -51.2369  -15.6541 N   0  0  0  0  0  0  0  0  0  0  0  0
    1.3742  -50.4628  -16.5568 C   0  0  0  0  0  0  0  0  0  0  0  0
    0.8820  -50.6587  -17.9890 C   0  0  0  0  0  0  0  0  0  0  0  0
    1.0402  -51.7423  -14.4612 C   0  0  0  0  0  0  0  0  0  0  0  0
    2.2605  -51.5252  -14.1064 O   0  0  0  0  0  0  0  0  0  0  0  0
    0.2595  -52.5586  -13.4978 C   0  0  0  0  0  0  0  0  0  0  0  0
   -0.4410  -51.8446  -12.3621 C   0  0  0  0  0  0  0  0  0  0  0  0
    0.7302  -52.6775  -12.0857 C   0  0  0  0  0  0  0  0  0  0  0  0
   -1.1976  -55.3736  -22.6560 C   0  0  0  0  0  0  0  0  0  0  0  0
   -1.8245  -54.4099  -21.8442 O   0  0  0  0  0  0  0  0  0  0  0  0
    2.7833  -51.0383  -25.8618 N   0  0  0  0  0  0  0  0  0  0  0  0
    2.6543  -50.2179  -26.5420 H   0  0  0  0  0  0  0  0  0  0  0  0
    3.9701  -51.1008  -25.1510 C   0  0  0  0  0  0  0  0  0  0  0  0
    4.4430  -52.2624  -24.5800 C   0  0  0  0  0  0  0  0  0  0  0  0
    5.6339  -52.2295  -23.8341 C   0  0  0  0  0  0  0  0  0  0  0  0
    6.3291  -51.0568  -23.6683 C   0  0  0  0  0  0  0  0  0  0  0  0
    5.8466  -49.9009  -24.2444 C   0  0  0  0  0  0  0  0  0  0  0  0
    4.6846  -49.9047  -24.9797 C   0  0  0  0  0  0  0  0  0  0  0  0
    4.2110  -48.7240  -25.6003 N   0  0  0  0  0  0  0  0  0  0  0  0
    3.3899  -47.7505  -24.9153 C   0  0  0  0  0  0  0  0  0  0  0  0
    3.3765  -46.3920  -25.5280 C   0  0  0  0  0  0  0  0  0  0  0  0
    3.4703  -46.3670  -27.0328 C   0  0  0  0  0  0  0  0  0  0  0  0
    3.5549  -47.7165  -27.6650 C   0  0  0  0  0  0  0  0  0  0  0  0
    4.6048  -48.5313  -26.9898 C   0  0  0  0  0  0  0  0  0  0  0  0
    3.7787  -47.5533  -29.0805 N   0  0  0  0  0  0  0  0  0  0  0  0
    3.4015  -46.3025  -29.6108 C   0  0  0  0  0  0  0  0  0  0  0  0
    4.4123  -45.5980  -30.4625 C   0  0  0  0  0  0  0  0  0  0  0  0
    5.7222  -45.9497  -30.0662 O   0  0  0  0  0  0  0  0  0  0  0  0
    5.8296  -47.3113  -30.4295 C   0  0  0  0  0  0  0  0  0  0  0  0
    4.9632  -48.1519  -29.5626 C   0  0  0  0  0  0  0  0  0  0  0  0
 27 28  1  0  0  0
 28 10  1  0  0  0
 10 11  2  0  0  0
 11 12  1  0  0  0
 12 13  2  0  0  0
 13 14  1  0  0  0
 14 15  2  0  0  0
 15  8  1  0  0  0
  8  1  1  0  0  0
  1  2  2  0  0  0
  2  3  1  0  0  0
  3  4  2  0  0  0
  4  5  1  0  0  0
  4  6  1  0  0  0
  6 29  1  0  0  0
 29 31  1  0  0  0
 31 32  2  0  0  0
 32 33  1  0  0  0
 33 34  2  0  0  0
 34 35  1  0  0  0
 35 36  2  0  0  0
 36 37  1  0  0  0
 37 38  1  0  0  0
 38 39  1  0  0  0
 39 40  1  0  0  0
 40 41  1  0  0  0
 41 42  1  0  0  0
 41 43  1  0  0  0
 43 44  1  0  0  0
 44 45  1  0  0  0
 45 46  1  0  0  0
 46 47  1  0  0  0
 47 48  1  0  0  0
  6  7  2  0  0  0
 12 16  1  0  0  0
 16 17  1  0  0  0
 17 18  1  0  0  0
 18 19  1  0  0  0
 19 20  1  0  0  0
 20 21  1  0  0  0
 19 22  1  0  0  0
 22 23  2  0  0  0
 22 24  1  0  0  0
 24 25  1  0  0  0
 25 26  1  0  0  0
 15 10  1  0  0  0
  7  1  1  0  0  0
 21 16  1  0  0  0
 26 24  1  0  0  0
 36 31  1  0  0  0
 42 37  1  0  0  0
 48 43  1  0  0  0
  8  9  1  0  0  0
 29 30  1  0  0  0
M  END
> <minimizedAffinity>
-8.60339

> <CNNscore>
0.1498907804

> <CNNaffinity>
7.4098920822

> <CNN_VS>
1.1106745005

> <CNNaffinity_variance>
0.3100830019

$$$$
[H]c1nc(N([H])c2c([H])c([H])c(C3([H])C([H])([H])C([H])([H])N(C(=O)C4([H])C([H])([H])C4([H])[H])C([H])([H])C3([H])[H])c([H])c2OC([H])([H])[H])nc(N([H])c2c([H])c([H])c([H])c([H])c2N2C([H])([H])C([H])([H])C([H])([H])[C@@]([H])(N3C([H])([H])C([H])([H])OC([H])([H])C3([H])[H])C2([H])[H])c1Cl


 48 54  0  0  0  0  0  0  0  0999 V2000
    0.5675  -53.2050  -22.6239 C   0  0  0  0  0  0  0  0  0  0  0  0
   -0.2042  -54.1637  -22.1366 N   0  0  0  0  0  0  0  0  0  0  0  0
   -0.7417  -54.0889  -20.9160 C   0  0  0  0  0  0  0  0  0  0  0  0
   -0.5229  -53.0105  -20.0966 C   0  0  0  0  0  0  0  0  0  0  0  0
   -1.1943  -52.8678  -18.5060 Cl  0  0  0  0  0  0  0  0  0  0  0  0
    0.2995  -51.9699  -20.5936 C   0  0  0  0  0  0  0  0  0  0  0  0
    0.7689  -52.1508  -21.7977 N   0  0  0  0  0  0  0  0  0  0  0  0
    1.2111  -53.1521  -23.8775 N   0  0  0  0  0  0  0  0  0  0  0  0
    1.2685  -54.0931  -24.4071 H   0  0  0  0  0  0  0  0  0  0  0  0
    3.1272  -51.7843  -24.2502 C   0  0  0  0  0  0  0  0  0  0  0  0
    3.7730  -50.6989  -24.7851 C   0  0  0  0  0  0  0  0  0  0  0  0
    3.0790  -49.7953  -25.5532 C   0  0  0  0  0  0  0  0  0  0  0  0
    1.7400  -50.0058  -25.7667 C   0  0  0  0  0  0  0  0  0  0  0  0
    1.0883  -51.1164  -25.2172 C   0  0  0  0  0  0  0  0  0  0  0  0
    1.7603  -52.0134  -24.4600 C   0  0  0  0  0  0  0  0  0  0  0  0
    3.7682  -48.6176  -26.1530 C   0  0  0  0  0  0  0  0  0  0  0  0
    3.8859  -48.7067  -27.6263 C   0  0  0  0  0  0  0  0  0  0  0  0
    5.2526  -48.2462  -28.0811 C   0  0  0  0  0  0  0  0  0  0  0  0
    5.5781  -47.0656  -27.3433 N   0  0  0  0  0  0  0  0  0  0  0  0
    5.8643  -47.2703  -25.9326 C   0  0  0  0  0  0  0  0  0  0  0  0
    5.0902  -48.4892  -25.4354 C   0  0  0  0  0  0  0  0  0  0  0  0
    5.6158  -45.7972  -27.9096 C   0  0  0  0  0  0  0  0  0  0  0  0
    5.9245  -44.7617  -27.2063 O   0  0  0  0  0  0  0  0  0  0  0  0
    5.3157  -45.5019  -29.3332 C   0  0  0  0  0  0  0  0  0  0  0  0
    4.6047  -44.2059  -29.6578 C   0  0  0  0  0  0  0  0  0  0  0  0
    3.8958  -45.4789  -29.7947 C   0  0  0  0  0  0  0  0  0  0  0  0
    5.2515  -52.6694  -23.5270 C   0  0  0  0  0  0  0  0  0  0  0  0
    3.8448  -52.6766  -23.4833 O   0  0  0  0  0  0  0  0  0  0  0  0
    0.5457  -50.8423  -19.7748 N   0  0  0  0  0  0  0  0  0  0  0  0
    0.1510  -50.9015  -18.7782 H   0  0  0  0  0  0  0  0  0  0  0  0
    1.2484  -49.6999  -20.1189 C   0  0  0  0  0  0  0  0  0  0  0  0
    1.1099  -49.0718  -21.3377 C   0  0  0  0  0  0  0  0  0  0  0  0
    1.8962  -47.9429  -21.6254 C   0  0  0  0  0  0  0  0  0  0  0  0
    2.7982  -47.4604  -20.7090 C   0  0  0  0  0  0  0  0  0  0  0  0
    2.9280  -48.0968  -19.4928 C   0  0  0  0  0  0  0  0  0  0  0  0
    2.1708  -49.2026  -19.1850 C   0  0  0  0  0  0  0  0  0  0  0  0
    2.2801  -49.8320  -17.9219 N   0  0  0  0  0  0  0  0  0  0  0  0
    3.2796  -50.8345  -17.6266 C   0  0  0  0  0  0  0  0  0  0  0  0
    3.5595  -51.0401  -16.1773 C   0  0  0  0  0  0  0  0  0  0  0  0
    2.3695  -50.8771  -15.2656 C   0  0  0  0  0  0  0  0  0  0  0  0
    1.0975  -50.5412  -15.9707 C   0  0  0  0  0  0  0  0  0  0  0  0
    1.3202  -49.4067  -16.9117 C   0  0  0  0  0  0  0  0  0  0  0  0
    0.0765  -50.2772  -14.9867 N   0  0  0  0  0  0  0  0  0  0  0  0
   -0.7151  -49.1361  -15.2297 C   0  0  0  0  0  0  0  0  0  0  0  0
   -2.2000  -49.3155  -15.1502 C   0  0  0  0  0  0  0  0  0  0  0  0
   -2.5561  -50.6387  -15.4951 O   0  0  0  0  0  0  0  0  0  0  0  0
   -2.0410  -51.4139  -14.4315 C   0  0  0  0  0  0  0  0  0  0  0  0
   -0.5554  -51.4291  -14.4696 C   0  0  0  0  0  0  0  0  0  0  0  0
 27 28  1  0  0  0
 28 10  1  0  0  0
 10 11  2  0  0  0
 11 12  1  0  0  0
 12 13  2  0  0  0
 13 14  1  0  0  0
 14 15  2  0  0  0
 15  8  1  0  0  0
  8  1  1  0  0  0
  1  2  2  0  0  0
  2  3  1  0  0  0
  3  4  2  0  0  0
  4  5  1  0  0  0
  4  6  1  0  0  0
  6 29  1  0  0  0
 29 31  1  0  0  0
 31 32  2  0  0  0
 32 33  1  0  0  0
 33 34  2  0  0  0
 34 35  1  0  0  0
 35 36  2  0  0  0
 36 37  1  0  0  0
 37 38  1  0  0  0
 38 39  1  0  0  0
 39 40  1  0  0  0
 40 41  1  0  0  0
 41 42  1  0  0  0
 41 43  1  0  0  0
 43 44  1  0  0  0
 44 45  1  0  0  0
 45 46  1  0  0  0
 46 47  1  0  0  0
 47 48  1  0  0  0
  6  7  2  0  0  0
 12 16  1  0  0  0
 16 17  1  0  0  0
 17 18  1  0  0  0
 18 19  1  0  0  0
 19 20  1  0  0  0
 20 21  1  0  0  0
 19 22  1  0  0  0
 22 23  2  0  0  0
 22 24  1  0  0  0
 24 25  1  0  0  0
 25 26  1  0  0  0
 15 10  1  0  0  0
  7  1  1  0  0  0
 21 16  1  0  0  0
 26 24  1  0  0  0
 36 31  1  0  0  0
 42 37  1  0  0  0
 48 43  1  0  0  0
  8  9  1  0  0  0
 29 30  1  0  0  0
M  END
> <minimizedAffinity>
-7.29351

> <CNNscore>
0.0841983482

> <CNNaffinity>
7.2898969650

> <CNN_VS>
0.6137973070

> <CNNaffinity_variance>
0.1571354568

$$$$
[H]c1nc(N([H])c2c([H])c([H])c(C3([H])C([H])([H])C([H])([H])N(C(=O)C4([H])C([H])([H])C4([H])[H])C([H])([H])C3([H])[H])c([H])c2OC([H])([H])[H])nc(N([H])c2c([H])c([H])c([H])c([H])c2N2C([H])([H])C([H])([H])C([H])([H])[C@@]([H])(N3C([H])([H])C([H])([H])OC([H])([H])C3([H])[H])C2([H])[H])c1Cl


 48 54  0  0  0  0  0  0  0  0999 V2000
    1.7756  -52.3286  -23.1593 C   0  0  0  0  0  0  0  0  0  0  0  0
    0.9772  -53.3450  -23.4446 N   0  0  0  0  0  0  0  0  0  0  0  0
   -0.1383  -53.5865  -22.7504 C   0  0  0  0  0  0  0  0  0  0  0  0
   -0.5197  -52.7917  -21.6992 C   0  0  0  0  0  0  0  0  0  0  0  0
   -1.9541  -53.0644  -20.7670 Cl  0  0  0  0  0  0  0  0  0  0  0  0
    0.3170  -51.6965  -21.3725 C   0  0  0  0  0  0  0  0  0  0  0  0
    1.3787  -51.5580  -22.1184 N   0  0  0  0  0  0  0  0  0  0  0  0
    2.9829  -51.9609  -23.7882 N   0  0  0  0  0  0  0  0  0  0  0  0
    3.8326  -52.5894  -23.5599 H   0  0  0  0  0  0  0  0  0  0  0  0
    3.1752  -51.1595  -26.0249 C   0  0  0  0  0  0  0  0  0  0  0  0
    3.3268  -50.1715  -26.9640 C   0  0  0  0  0  0  0  0  0  0  0  0
    3.4620  -48.8622  -26.5693 C   0  0  0  0  0  0  0  0  0  0  0  0
    3.4420  -48.5748  -25.2277 C   0  0  0  0  0  0  0  0  0  0  0  0
    3.2867  -49.5893  -24.2755 C   0  0  0  0  0  0  0  0  0  0  0  0
    3.1521  -50.8816  -24.6511 C   0  0  0  0  0  0  0  0  0  0  0  0
    3.6142  -47.7747  -27.5772 C   0  0  0  0  0  0  0  0  0  0  0  0
    4.6310  -48.0822  -28.6086 C   0  0  0  0  0  0  0  0  0  0  0  0
    5.4727  -46.8621  -28.9084 C   0  0  0  0  0  0  0  0  0  0  0  0
    4.5912  -45.7397  -28.9934 N   0  0  0  0  0  0  0  0  0  0  0  0
    4.0059  -45.3091  -27.7340 C   0  0  0  0  0  0  0  0  0  0  0  0
    3.8881  -46.5105  -26.7987 C   0  0  0  0  0  0  0  0  0  0  0  0
    4.2905  -45.0932  -30.1861 C   0  0  0  0  0  0  0  0  0  0  0  0
    3.4967  -44.0777  -30.2126 O   0  0  0  0  0  0  0  0  0  0  0  0
    4.8277  -45.4840  -31.5138 C   0  0  0  0  0  0  0  0  0  0  0  0
    3.9020  -45.4053  -32.7085 C   0  0  0  0  0  0  0  0  0  0  0  0
    4.3049  -46.7112  -32.1850 C   0  0  0  0  0  0  0  0  0  0  0  0
    2.0229  -52.8111  -27.3528 C   0  0  0  0  0  0  0  0  0  0  0  0
    3.0415  -52.4651  -26.4454 O   0  0  0  0  0  0  0  0  0  0  0  0
   -0.0468  -50.8558  -20.2940 N   0  0  0  0  0  0  0  0  0  0  0  0
   -0.6128  -49.9833  -20.5602 H   0  0  0  0  0  0  0  0  0  0  0  0
    0.2330  -51.0531  -18.9523 C   0  0  0  0  0  0  0  0  0  0  0  0
   -0.5509  -51.8315  -18.1284 C   0  0  0  0  0  0  0  0  0  0  0  0
   -0.2227  -51.9417  -16.7661 C   0  0  0  0  0  0  0  0  0  0  0  0
    0.8665  -51.2846  -16.2485 C   0  0  0  0  0  0  0  0  0  0  0  0
    1.6436  -50.5088  -17.0823 C   0  0  0  0  0  0  0  0  0  0  0  0
    1.3458  -50.3841  -18.4190 C   0  0  0  0  0  0  0  0  0  0  0  0
    2.1663  -49.6165  -19.2798 N   0  0  0  0  0  0  0  0  0  0  0  0
    1.6616  -48.5200  -20.0762 C   0  0  0  0  0  0  0  0  0  0  0  0
    2.6926  -47.5489  -20.5400 C   0  0  0  0  0  0  0  0  0  0  0  0
    4.0397  -48.1475  -20.8572 C   0  0  0  0  0  0  0  0  0  0  0  0
    4.1169  -49.6250  -20.6596 C   0  0  0  0  0  0  0  0  0  0  0  0
    3.5742  -49.9894  -19.3199 C   0  0  0  0  0  0  0  0  0  0  0  0
    5.4805  -50.0500  -20.8601 N   0  0  0  0  0  0  0  0  0  0  0  0
    5.6779  -50.9682  -21.9117 C   0  0  0  0  0  0  0  0  0  0  0  0
    6.7675  -50.6508  -22.8892 C   0  0  0  0  0  0  0  0  0  0  0  0
    6.9503  -49.2532  -22.9873 O   0  0  0  0  0  0  0  0  0  0  0  0
    7.4795  -48.8937  -21.7269 C   0  0  0  0  0  0  0  0  0  0  0  0
    6.4472  -49.0390  -20.6677 C   0  0  0  0  0  0  0  0  0  0  0  0
 27 28  1  0  0  0
 28 10  1  0  0  0
 10 11  2  0  0  0
 11 12  1  0  0  0
 12 13  2  0  0  0
 13 14  1  0  0  0
 14 15  2  0  0  0
 15  8  1  0  0  0
  8  1  1  0  0  0
  1  2  2  0  0  0
  2  3  1  0  0  0
  3  4  2  0  0  0
  4  5  1  0  0  0
  4  6  1  0  0  0
  6 29  1  0  0  0
 29 31  1  0  0  0
 31 32  2  0  0  0
 32 33  1  0  0  0
 33 34  2  0  0  0
 34 35  1  0  0  0
 35 36  2  0  0  0
 36 37  1  0  0  0
 37 38  1  0  0  0
 38 39  1  0  0  0
 39 40  1  0  0  0
 40 41  1  0  0  0
 41 42  1  0  0  0
 41 43  1  0  0  0
 43 44  1  0  0  0
 44 45  1  0  0  0
 45 46  1  0  0  0
 46 47  1  0  0  0
 47 48  1  0  0  0
  6  7  2  0  0  0
 12 16  1  0  0  0
 16 17  1  0  0  0
 17 18  1  0  0  0
 18 19  1  0  0  0
 19 20  1  0  0  0
 20 21  1  0  0  0
 19 22  1  0  0  0
 22 23  2  0  0  0
 22 24  1  0  0  0
 24 25  1  0  0  0
 25 26  1  0  0  0
 15 10  1  0  0  0
  7  1  1  0  0  0
 21 16  1  0  0  0
 26 24  1  0  0  0
 36 31  1  0  0  0
 42 37  1  0  0  0
 48 43  1  0  0  0
  8  9  1  0  0  0
 29 30  1  0  0  0
M  END
> <minimizedAffinity>
-7.36286

> <CNNscore>
0.0563346818

> <CNNaffinity>
7.0430765152

> <CNN_VS>
0.3967694640

> <CNNaffinity_variance>
0.3436357975

$$$$
[H]c1nc(N([H])c2c([H])c([H])c(C3([H])C([H])([H])C([H])([H])N(C(=O)C4([H])C([H])([H])C4([H])[H])C([H])([H])C3([H])[H])c([H])c2OC([H])([H])[H])nc(N([H])c2c([H])c([H])c([H])c([H])c2N2C([H])([H])C([H])([H])C([H])([H])[C@@]([H])(N3C([H])([H])C([H])([H])OC([H])([H])C3([H])[H])C2([H])[H])c1Cl


 48 54  0  0  0  0  0  0  0  0999 V2000
    3.1388  -45.3731  -23.6508 C   0  0  0  0  0  0  0  0  0  0  0  0
    3.5080  -44.9767  -22.4431 N   0  0  0  0  0  0  0  0  0  0  0  0
    3.7347  -45.8427  -21.4515 C   0  0  0  0  0  0  0  0  0  0  0  0
    3.5967  -47.1959  -21.6303 C   0  0  0  0  0  0  0  0  0  0  0  0
    3.8760  -48.3583  -20.3767 Cl  0  0  0  0  0  0  0  0  0  0  0  0
    3.2025  -47.6474  -22.9137 C   0  0  0  0  0  0  0  0  0  0  0  0
    3.0095  -46.7128  -23.8037 N   0  0  0  0  0  0  0  0  0  0  0  0
    2.8521  -44.5815  -24.7820 N   0  0  0  0  0  0  0  0  0  0  0  0
    2.5532  -43.5642  -24.5699 H   0  0  0  0  0  0  0  0  0  0  0  0
    4.1492  -44.8395  -26.7650 C   0  0  0  0  0  0  0  0  0  0  0  0
    4.3332  -45.2291  -28.0671 C   0  0  0  0  0  0  0  0  0  0  0  0
    3.2977  -45.7999  -28.7673 C   0  0  0  0  0  0  0  0  0  0  0  0
    2.0907  -45.9665  -28.1361 C   0  0  0  0  0  0  0  0  0  0  0  0
    1.9112  -45.5662  -26.8066 C   0  0  0  0  0  0  0  0  0  0  0  0
    2.9226  -45.0038  -26.1066 C   0  0  0  0  0  0  0  0  0  0  0  0
    3.4844  -46.2411  -30.1787 C   0  0  0  0  0  0  0  0  0  0  0  0
    4.5599  -45.5009  -30.8771 C   0  0  0  0  0  0  0  0  0  0  0  0
    4.1386  -45.1518  -32.2869 C   0  0  0  0  0  0  0  0  0  0  0  0
    3.4962  -46.3016  -32.8428 N   0  0  0  0  0  0  0  0  0  0  0  0
    2.1906  -46.6173  -32.2863 C   0  0  0  0  0  0  0  0  0  0  0  0
    2.1313  -46.1322  -30.8395 C   0  0  0  0  0  0  0  0  0  0  0  0
    4.0631  -47.0859  -33.8401 C   0  0  0  0  0  0  0  0  0  0  0  0
    3.4414  -48.1090  -34.3182 O   0  0  0  0  0  0  0  0  0  0  0  0
    5.3977  -46.8444  -34.4439 C   0  0  0  0  0  0  0  0  0  0  0  0
    6.3034  -48.0354  -34.6709 C   0  0  0  0  0  0  0  0  0  0  0  0
    6.6256  -47.0656  -33.6234 C   0  0  0  0  0  0  0  0  0  0  0  0
    6.3417  -45.0380  -25.7788 C   0  0  0  0  0  0  0  0  0  0  0  0
    5.2028  -44.2695  -26.0838 O   0  0  0  0  0  0  0  0  0  0  0  0
    3.0511  -49.0371  -23.1332 N   0  0  0  0  0  0  0  0  0  0  0  0
    2.0465  -49.4085  -23.0607 H   0  0  0  0  0  0  0  0  0  0  0  0
    4.0488  -49.9451  -23.4453 C   0  0  0  0  0  0  0  0  0  0  0  0
    5.3506  -49.5719  -23.7004 C   0  0  0  0  0  0  0  0  0  0  0  0
    6.2925  -50.5526  -24.0564 C   0  0  0  0  0  0  0  0  0  0  0  0
    5.9313  -51.8741  -24.1528 C   0  0  0  0  0  0  0  0  0  0  0  0
    4.6261  -52.2359  -23.8949 C   0  0  0  0  0  0  0  0  0  0  0  0
    3.6845  -51.2971  -23.5439 C   0  0  0  0  0  0  0  0  0  0  0  0
    2.3541  -51.6761  -23.2444 N   0  0  0  0  0  0  0  0  0  0  0  0
    1.8465  -51.7635  -21.8931 C   0  0  0  0  0  0  0  0  0  0  0  0
    0.3622  -51.7085  -21.7708 C   0  0  0  0  0  0  0  0  0  0  0  0
   -0.3980  -52.3568  -22.9002 C   0  0  0  0  0  0  0  0  0  0  0  0
    0.4675  -52.9567  -23.9580 C   0  0  0  0  0  0  0  0  0  0  0  0
    1.5024  -51.9739  -24.3884 C   0  0  0  0  0  0  0  0  0  0  0  0
   -0.3703  -53.4164  -25.0384 N   0  0  0  0  0  0  0  0  0  0  0  0
   -1.0744  -52.4076  -25.7272 C   0  0  0  0  0  0  0  0  0  0  0  0
   -0.9846  -52.4225  -27.2223 C   0  0  0  0  0  0  0  0  0  0  0  0
    0.2451  -52.9815  -27.6370 O   0  0  0  0  0  0  0  0  0  0  0  0
    0.1380  -54.3416  -27.2678 C   0  0  0  0  0  0  0  0  0  0  0  0
    0.1688  -54.4841  -25.7888 C   0  0  0  0  0  0  0  0  0  0  0  0
 27 28  1  0  0  0
 28 10  1  0  0  0
 10 11  2  0  0  0
 11 12  1  0  0  0
 12 13  2  0  0  0
 13 14  1  0  0  0
 14 15  2  0  0  0
 15  8  1  0  0  0
  8  1  1  0  0  0
  1  2  2  0  0  0
  2  3  1  0  0  0
  3  4  2  0  0  0
  4  5  1  0  0  0
  4  6  1  0  0  0
  6 29  1  0  0  0
 29 31  1  0  0  0
 31 32  2  0  0  0
 32 33  1  0  0  0
 33 34  2  0  0  0
 34 35  1  0  0  0
 35 36  2  0  0  0
 36 37  1  0  0  0
 37 38  1  0  0  0
 38 39  1  0  0  0
 39 40  1  0  0  0
 40 41  1  0  0  0
 41 42  1  0  0  0
 41 43  1  0  0  0
 43 44  1  0  0  0
 44 45  1  0  0  0
 45 46  1  0  0  0
 46 47  1  0  0  0
 47 48  1  0  0  0
  6  7  2  0  0  0
 12 16  1  0  0  0
 16 17  1  0  0  0
 17 18  1  0  0  0
 18 19  1  0  0  0
 19 20  1  0  0  0
 20 21  1  0  0  0
 19 22  1  0  0  0
 22 23  2  0  0  0
 22 24  1  0  0  0
 24 25  1  0  0  0
 25 26  1  0  0  0
 15 10  1  0  0  0
  7  1  1  0  0  0
 21 16  1  0  0  0
 26 24  1  0  0  0
 36 31  1  0  0  0
 42 37  1  0  0  0
 48 43  1  0  0  0
  8  9  1  0  0  0
 29 30  1  0  0  0
M  END
> <minimizedAffinity>
-9.12678

> <CNNscore>
0.0472940244

> <CNNaffinity>
6.5866608620

> <CNN_VS>
0.3115096986

> <CNNaffinity_variance>
1.5505228043

$$$$
[H]c1nc(N([H])c2c([H])c([H])c(C3([H])C([H])([H])C([H])([H])N(C(=O)C4([H])C([H])([H])C4([H])[H])C([H])([H])C3([H])[H])c([H])c2OC([H])([H])[H])nc(N([H])c2c([H])c([H])c([H])c([H])c2N2C([H])([H])C([H])([H])C([H])([H])[C@@]([H])(N3C([H])([H])C([H])([H])OC([H])([H])C3([H])[H])C2([H])[H])c1Cl


 48 54  0  0  0  0  0  0  0  0999 V2000
    3.8989  -49.6867  -18.6682 C   0  0  0  0  0  0  0  0  0  0  0  0
    5.0724  -49.3663  -19.1899 N   0  0  0  0  0  0  0  0  0  0  0  0
    5.4661  -49.8222  -20.3822 C   0  0  0  0  0  0  0  0  0  0  0  0
    4.6731  -50.6509  -21.1351 C   0  0  0  0  0  0  0  0  0  0  0  0
    5.1390  -51.2703  -22.6843 Cl  0  0  0  0  0  0  0  0  0  0  0  0
    3.4116  -51.0094  -20.6001 C   0  0  0  0  0  0  0  0  0  0  0  0
    3.1335  -50.5050  -19.4292 N   0  0  0  0  0  0  0  0  0  0  0  0
    3.3583  -49.2978  -17.4252 N   0  0  0  0  0  0  0  0  0  0  0  0
    3.9921  -48.6590  -16.8256 H   0  0  0  0  0  0  0  0  0  0  0  0
    2.0726  -50.7319  -16.0210 C   0  0  0  0  0  0  0  0  0  0  0  0
    0.8985  -51.1724  -15.4656 C   0  0  0  0  0  0  0  0  0  0  0  0
   -0.2895  -50.5670  -15.7979 C   0  0  0  0  0  0  0  0  0  0  0  0
   -0.2687  -49.5239  -16.6892 C   0  0  0  0  0  0  0  0  0  0  0  0
    0.9342  -49.0802  -17.2516 C   0  0  0  0  0  0  0  0  0  0  0  0
    2.1101  -49.6673  -16.9322 C   0  0  0  0  0  0  0  0  0  0  0  0
   -1.5727  -51.0245  -15.1934 C   0  0  0  0  0  0  0  0  0  0  0  0
   -2.1008  -52.2558  -15.8237 C   0  0  0  0  0  0  0  0  0  0  0  0
   -3.5972  -52.1561  -16.0182 C   0  0  0  0  0  0  0  0  0  0  0  0
   -4.1507  -51.5914  -14.8271 N   0  0  0  0  0  0  0  0  0  0  0  0
   -3.8551  -50.1849  -14.6074 C   0  0  0  0  0  0  0  0  0  0  0  0
   -2.5150  -49.8465  -15.2566 C   0  0  0  0  0  0  0  0  0  0  0  0
   -4.9139  -52.3175  -13.9208 C   0  0  0  0  0  0  0  0  0  0  0  0
   -5.4011  -51.7626  -12.8640 O   0  0  0  0  0  0  0  0  0  0  0  0
   -5.2412  -53.7588  -14.0608 C   0  0  0  0  0  0  0  0  0  0  0  0
   -6.4396  -54.1389  -14.9033 C   0  0  0  0  0  0  0  0  0  0  0  0
   -6.4955  -54.2896  -13.4487 C   0  0  0  0  0  0  0  0  0  0  0  0
    3.4055  -51.8966  -14.3822 C   0  0  0  0  0  0  0  0  0  0  0  0
    3.2511  -51.3552  -15.6720 O   0  0  0  0  0  0  0  0  0  0  0  0
    2.5679  -51.8624  -21.3505 N   0  0  0  0  0  0  0  0  0  0  0  0
    2.9653  -52.1921  -22.2918 H   0  0  0  0  0  0  0  0  0  0  0  0
    1.3123  -52.3210  -20.9893 C   0  0  0  0  0  0  0  0  0  0  0  0
    0.9855  -52.6765  -19.6985 C   0  0  0  0  0  0  0  0  0  0  0  0
   -0.2989  -53.1776  -19.4251 C   0  0  0  0  0  0  0  0  0  0  0  0
   -1.2287  -53.3167  -20.4262 C   0  0  0  0  0  0  0  0  0  0  0  0
   -0.8907  -52.9576  -21.7137 C   0  0  0  0  0  0  0  0  0  0  0  0
    0.3584  -52.4639  -22.0090 C   0  0  0  0  0  0  0  0  0  0  0  0
    0.6906  -52.0620  -23.3249 N   0  0  0  0  0  0  0  0  0  0  0  0
    1.2973  -50.7846  -23.6275 C   0  0  0  0  0  0  0  0  0  0  0  0
    1.9964  -50.7126  -24.9417 C   0  0  0  0  0  0  0  0  0  0  0  0
    1.3686  -51.5244  -26.0466 C   0  0  0  0  0  0  0  0  0  0  0  0
    0.1384  -52.2659  -25.6406 C   0  0  0  0  0  0  0  0  0  0  0  0
    0.3905  -53.0208  -24.3801 C   0  0  0  0  0  0  0  0  0  0  0  0
   -0.2815  -53.1046  -26.7363 N   0  0  0  0  0  0  0  0  0  0  0  0
   -1.2628  -52.5471  -27.5812 C   0  0  0  0  0  0  0  0  0  0  0  0
   -0.9953  -52.6015  -29.0540 C   0  0  0  0  0  0  0  0  0  0  0  0
    0.3954  -52.5840  -29.3035 O   0  0  0  0  0  0  0  0  0  0  0  0
    0.8418  -53.8305  -28.8089 C   0  0  0  0  0  0  0  0  0  0  0  0
    0.7518  -53.8650  -27.3258 C   0  0  0  0  0  0  0  0  0  0  0  0
 27 28  1  0  0  0
 28 10  1  0  0  0
 10 11  2  0  0  0
 11 12  1  0  0  0
 12 13  2  0  0  0
 13 14  1  0  0  0
 14 15  2  0  0  0
 15  8  1  0  0  0
  8  1  1  0  0  0
  1  2  2  0  0  0
  2  3  1  0  0  0
  3  4  2  0  0  0
  4  5  1  0  0  0
  4  6  1  0  0  0
  6 29  1  0  0  0
 29 31  1  0  0  0
 31 32  2  0  0  0
 32 33  1  0  0  0
 33 34  2  0  0  0
 34 35  1  0  0  0
 35 36  2  0  0  0
 36 37  1  0  0  0
 37 38  1  0  0  0
 38 39  1  0  0  0
 39 40  1  0  0  0
 40 41  1  0  0  0
 41 42  1  0  0  0
 41 43  1  0  0  0
 43 44  1  0  0  0
 44 45  1  0  0  0
 45 46  1  0  0  0
 46 47  1  0  0  0
 47 48  1  0  0  0
  6  7  2  0  0  0
 12 16  1  0  0  0
 16 17  1  0  0  0
 17 18  1  0  0  0
 18 19  1  0  0  0
 19 20  1  0  0  0
 20 21  1  0  0  0
 19 22  1  0  0  0
 22 23  2  0  0  0
 22 24  1  0  0  0
 24 25  1  0  0  0
 25 26  1  0  0  0
 15 10  1  0  0  0
  7  1  1  0  0  0
 21 16  1  0  0  0
 26 24  1  0  0  0
 36 31  1  0  0  0
 42 37  1  0  0  0
 48 43  1  0  0  0
  8  9  1  0  0  0
 29 30  1  0  0  0
M  END
> <minimizedAffinity>
-9.20333

> <CNNscore>
0.0442297533

> <CNNaffinity>
7.4085373878

> <CNN_VS>
0.3276777864

> <CNNaffinity_variance>
0.4174377918

$$$$
[H]c1nc(N([H])c2c([H])c([H])c(C3([H])C([H])([H])C([H])([H])N(C(=O)C4([H])C([H])([H])C4([H])[H])C([H])([H])C3([H])[H])c([H])c2OC([H])([H])[H])nc(N([H])c2c([H])c([H])c([H])c([H])c2N2C([H])([H])C([H])([H])C([H])([H])[C@@]([H])(N3C([H])([H])C([H])([H])OC([H])([H])C3([H])[H])C2([H])[H])c1Cl


 48 54  0  0  0  0  0  0  0  0999 V2000
    2.0607  -48.6417  -18.9869 C   0  0  0  0  0  0  0  0  0  0  0  0
    2.9756  -47.8720  -19.5548 N   0  0  0  0  0  0  0  0  0  0  0  0
    3.2025  -47.8944  -20.8710 C   0  0  0  0  0  0  0  0  0  0  0  0
    2.4975  -48.7195  -21.7104 C   0  0  0  0  0  0  0  0  0  0  0  0
    2.7562  -48.7873  -23.4219 Cl  0  0  0  0  0  0  0  0  0  0  0  0
    1.5120  -49.5539  -21.1284 C   0  0  0  0  0  0  0  0  0  0  0  0
    1.3774  -49.4470  -19.8349 N   0  0  0  0  0  0  0  0  0  0  0  0
    1.7227  -48.7370  -17.6211 N   0  0  0  0  0  0  0  0  0  0  0  0
    2.3118  -48.1213  -16.9556 H   0  0  0  0  0  0  0  0  0  0  0  0
   -0.1156  -48.9653  -16.1210 C   0  0  0  0  0  0  0  0  0  0  0  0
   -1.1412  -49.6638  -15.5367 C   0  0  0  0  0  0  0  0  0  0  0  0
   -1.3755  -50.9697  -15.8944 C   0  0  0  0  0  0  0  0  0  0  0  0
   -0.5656  -51.5478  -16.8391 C   0  0  0  0  0  0  0  0  0  0  0  0
    0.4792  -50.8278  -17.4309 C   0  0  0  0  0  0  0  0  0  0  0  0
    0.7198  -49.5418  -17.0880 C   0  0  0  0  0  0  0  0  0  0  0  0
   -2.4941  -51.7389  -15.2790 C   0  0  0  0  0  0  0  0  0  0  0  0
   -3.4241  -52.3065  -16.2817 C   0  0  0  0  0  0  0  0  0  0  0  0
   -4.8585  -52.1442  -15.8309 C   0  0  0  0  0  0  0  0  0  0  0  0
   -4.9144  -52.4749  -14.4411 N   0  0  0  0  0  0  0  0  0  0  0  0
   -4.2845  -51.5179  -13.5460 C   0  0  0  0  0  0  0  0  0  0  0  0
   -3.1502  -50.8111  -14.2849 C   0  0  0  0  0  0  0  0  0  0  0  0
   -5.5147  -53.6297  -13.9543 C   0  0  0  0  0  0  0  0  0  0  0  0
   -5.5496  -53.8814  -12.6903 O   0  0  0  0  0  0  0  0  0  0  0  0
   -6.1584  -54.6649  -14.8017 C   0  0  0  0  0  0  0  0  0  0  0  0
   -7.6702  -54.6966  -14.8634 C   0  0  0  0  0  0  0  0  0  0  0  0
   -6.9485  -55.7551  -14.1559 C   0  0  0  0  0  0  0  0  0  0  0  0
   -0.6209  -47.1061  -14.6696 C   0  0  0  0  0  0  0  0  0  0  0  0
    0.0996  -47.6569  -15.7458 O   0  0  0  0  0  0  0  0  0  0  0  0
    0.7658  -50.4171  -21.9654 N   0  0  0  0  0  0  0  0  0  0  0  0
    0.6365  -50.0807  -22.9765 H   0  0  0  0  0  0  0  0  0  0  0  0
    0.2125  -51.6389  -21.6210 C   0  0  0  0  0  0  0  0  0  0  0  0
   -0.7346  -51.7817  -20.6302 C   0  0  0  0  0  0  0  0  0  0  0  0
   -1.2107  -53.0649  -20.3104 C   0  0  0  0  0  0  0  0  0  0  0  0
   -0.7441  -54.1744  -20.9719 C   0  0  0  0  0  0  0  0  0  0  0  0
    0.2033  -54.0194  -21.9616 C   0  0  0  0  0  0  0  0  0  0  0  0
    0.6857  -52.7756  -22.2950 C   0  0  0  0  0  0  0  0  0  0  0  0
    1.6312  -52.6158  -23.3361 N   0  0  0  0  0  0  0  0  0  0  0  0
    3.0061  -52.2360  -23.0984 C   0  0  0  0  0  0  0  0  0  0  0  0
    3.9526  -52.5656  -24.2014 C   0  0  0  0  0  0  0  0  0  0  0  0
    3.3768  -52.4641  -25.5913 C   0  0  0  0  0  0  0  0  0  0  0  0
    1.9461  -52.0407  -25.6337 C   0  0  0  0  0  0  0  0  0  0  0  0
    1.1422  -52.8640  -24.6860 C   0  0  0  0  0  0  0  0  0  0  0  0
    1.4793  -52.1163  -26.9963 N   0  0  0  0  0  0  0  0  0  0  0  0
    2.2249  -52.9612  -27.8435 C   0  0  0  0  0  0  0  0  0  0  0  0
    1.4520  -53.9518  -28.6591 C   0  0  0  0  0  0  0  0  0  0  0  0
    0.2612  -54.3174  -27.9922 O   0  0  0  0  0  0  0  0  0  0  0  0
   -0.5174  -53.1382  -28.0228 C   0  0  0  0  0  0  0  0  0  0  0  0
    0.0747  -52.0998  -27.1398 C   0  0  0  0  0  0  0  0  0  0  0  0
 27 28  1  0  0  0
 28 10  1  0  0  0
 10 11  2  0  0  0
 11 12  1  0  0  0
 12 13  2  0  0  0
 13 14  1  0  0  0
 14 15  2  0  0  0
 15  8  1  0  0  0
  8  1  1  0  0  0
  1  2  2  0  0  0
  2  3  1  0  0  0
  3  4  2  0  0  0
  4  5  1  0  0  0
  4  6  1  0  0  0
  6 29  1  0  0  0
 29 31  1  0  0  0
 31 32  2  0  0  0
 32 33  1  0  0  0
 33 34  2  0  0  0
 34 35  1  0  0  0
 35 36  2  0  0  0
 36 37  1  0  0  0
 37 38  1  0  0  0
 38 39  1  0  0  0
 39 40  1  0  0  0
 40 41  1  0  0  0
 41 42  1  0  0  0
 41 43  1  0  0  0
 43 44  1  0  0  0
 44 45  1  0  0  0
 45 46  1  0  0  0
 46 47  1  0  0  0
 47 48  1  0  0  0
  6  7  2  0  0  0
 12 16  1  0  0  0
 16 17  1  0  0  0
 17 18  1  0  0  0
 18 19  1  0  0  0
 19 20  1  0  0  0
 20 21  1  0  0  0
 19 22  1  0  0  0
 22 23  2  0  0  0
 22 24  1  0  0  0
 24 25  1  0  0  0
 25 26  1  0  0  0
 15 10  1  0  0  0
  7  1  1  0  0  0
 21 16  1  0  0  0
 26 24  1  0  0  0
 36 31  1  0  0  0
 42 37  1  0  0  0
 48 43  1  0  0  0
  8  9  1  0  0  0
 29 30  1  0  0  0
M  END
> <minimizedAffinity>
-9.21651

> <CNNscore>
0.0382692218

> <CNNaffinity>
6.8583612442

> <CNN_VS>
0.2624641359

> <CNNaffinity_variance>
0.7126610875

$$$$
[H]c1nc(N([H])c2c([H])c([H])c(C3([H])C([H])([H])C([H])([H])N(C(=O)C4([H])C([H])([H])C4([H])[H])C([H])([H])C3([H])[H])c([H])c2OC([H])([H])[H])nc(N([H])c2c([H])c([H])c([H])c([H])c2N2C([H])([H])C([H])([H])C([H])([H])[C@@]([H])(N3C([H])([H])C([H])([H])OC([H])([H])C3([H])[H])C2([H])[H])c1Cl


 48 54  0  0  0  0  0  0  0  0999 V2000
    1.5379  -51.9796  -23.0865 C   0  0  0  0  0  0  0  0  0  0  0  0
    1.2007  -51.7992  -24.3536 N   0  0  0  0  0  0  0  0  0  0  0  0
    1.7269  -50.8199  -25.0943 C   0  0  0  0  0  0  0  0  0  0  0  0
    2.6492  -49.9435  -24.5809 C   0  0  0  0  0  0  0  0  0  0  0  0
    3.3581  -48.6567  -25.4989 Cl  0  0  0  0  0  0  0  0  0  0  0  0
    3.0278  -50.1143  -23.2268 C   0  0  0  0  0  0  0  0  0  0  0  0
    2.4497  -51.1032  -22.6018 N   0  0  0  0  0  0  0  0  0  0  0  0
    1.0597  -52.9517  -22.1837 N   0  0  0  0  0  0  0  0  0  0  0  0
    1.0810  -53.9697  -22.5474 H   0  0  0  0  0  0  0  0  0  0  0  0
   -0.3644  -53.6024  -20.3865 C   0  0  0  0  0  0  0  0  0  0  0  0
   -0.8987  -53.4569  -19.1317 C   0  0  0  0  0  0  0  0  0  0  0  0
   -0.5144  -52.4028  -18.3384 C   0  0  0  0  0  0  0  0  0  0  0  0
    0.4059  -51.5116  -18.8301 C   0  0  0  0  0  0  0  0  0  0  0  0
    0.9466  -51.6674  -20.1120 C   0  0  0  0  0  0  0  0  0  0  0  0
    0.5770  -52.7009  -20.9023 C   0  0  0  0  0  0  0  0  0  0  0  0
   -1.0751  -52.2373  -16.9673 C   0  0  0  0  0  0  0  0  0  0  0  0
   -2.4883  -52.6674  -16.8662 C   0  0  0  0  0  0  0  0  0  0  0  0
   -3.2840  -51.6923  -16.0277 C   0  0  0  0  0  0  0  0  0  0  0  0
   -2.4891  -51.3534  -14.8887 N   0  0  0  0  0  0  0  0  0  0  0  0
   -1.3274  -50.5232  -15.1629 C   0  0  0  0  0  0  0  0  0  0  0  0
   -0.8402  -50.7959  -16.5843 C   0  0  0  0  0  0  0  0  0  0  0  0
   -2.7796  -51.7829  -13.5995 C   0  0  0  0  0  0  0  0  0  0  0  0
   -2.0386  -51.4435  -12.6006 O   0  0  0  0  0  0  0  0  0  0  0  0
   -3.9310  -52.6485  -13.2403 C   0  0  0  0  0  0  0  0  0  0  0  0
   -4.8781  -52.1644  -12.1637 C   0  0  0  0  0  0  0  0  0  0  0  0
   -3.9778  -53.2854  -11.8904 C   0  0  0  0  0  0  0  0  0  0  0  0
   -1.9647  -54.5917  -21.8963 C   0  0  0  0  0  0  0  0  0  0  0  0
   -0.7657  -54.6677  -21.1632 O   0  0  0  0  0  0  0  0  0  0  0  0
    3.9774  -49.2280  -22.6652 N   0  0  0  0  0  0  0  0  0  0  0  0
    3.6128  -48.2436  -22.4406 H   0  0  0  0  0  0  0  0  0  0  0  0
    5.3003  -49.5053  -22.3644 C   0  0  0  0  0  0  0  0  0  0  0  0
    6.1822  -50.0393  -23.2789 C   0  0  0  0  0  0  0  0  0  0  0  0
    7.4967  -50.3350  -22.8784 C   0  0  0  0  0  0  0  0  0  0  0  0
    7.9106  -50.0990  -21.5904 C   0  0  0  0  0  0  0  0  0  0  0  0
    7.0197  -49.5643  -20.6841 C   0  0  0  0  0  0  0  0  0  0  0  0
    5.7282  -49.2648  -21.0493 C   0  0  0  0  0  0  0  0  0  0  0  0
    4.8266  -48.6823  -20.1268 N   0  0  0  0  0  0  0  0  0  0  0  0
    4.6685  -47.2526  -19.9774 C   0  0  0  0  0  0  0  0  0  0  0  0
    3.3928  -46.8212  -19.3390 C   0  0  0  0  0  0  0  0  0  0  0  0
    2.8635  -47.7488  -18.2745 C   0  0  0  0  0  0  0  0  0  0  0  0
    3.7139  -48.9508  -18.0295 C   0  0  0  0  0  0  0  0  0  0  0  0
    4.0454  -49.6133  -19.3231 C   0  0  0  0  0  0  0  0  0  0  0  0
    3.0346  -49.8188  -17.0991 N   0  0  0  0  0  0  0  0  0  0  0  0
    3.7250  -51.0011  -16.7626 C   0  0  0  0  0  0  0  0  0  0  0  0
    3.8501  -51.3177  -15.3040 C   0  0  0  0  0  0  0  0  0  0  0  0
    3.8563  -50.1290  -14.5401 O   0  0  0  0  0  0  0  0  0  0  0  0
    2.5438  -49.6262  -14.6895 C   0  0  0  0  0  0  0  0  0  0  0  0
    2.3238  -49.1488  -16.0795 C   0  0  0  0  0  0  0  0  0  0  0  0
 27 28  1  0  0  0
 28 10  1  0  0  0
 10 11  2  0  0  0
 11 12  1  0  0  0
 12 13  2  0  0  0
 13 14  1  0  0  0
 14 15  2  0  0  0
 15  8  1  0  0  0
  8  1  1  0  0  0
  1  2  2  0  0  0
  2  3  1  0  0  0
  3  4  2  0  0  0
  4  5  1  0  0  0
  4  6  1  0  0  0
  6 29  1  0  0  0
 29 31  1  0  0  0
 31 32  2  0  0  0
 32 33  1  0  0  0
 33 34  2  0  0  0
 34 35  1  0  0  0
 35 36  2  0  0  0
 36 37  1  0  0  0
 37 38  1  0  0  0
 38 39  1  0  0  0
 39 40  1  0  0  0
 40 41  1  0  0  0
 41 42  1  0  0  0
 41 43  1  0  0  0
 43 44  1  0  0  0
 44 45  1  0  0  0
 45 46  1  0  0  0
 46 47  1  0  0  0
 47 48  1  0  0  0
  6  7  2  0  0  0
 12 16  1  0  0  0
 16 17  1  0  0  0
 17 18  1  0  0  0
 18 19  1  0  0  0
 19 20  1  0  0  0
 20 21  1  0  0  0
 19 22  1  0  0  0
 22 23  2  0  0  0
 22 24  1  0  0  0
 24 25  1  0  0  0
 25 26  1  0  0  0
 15 10  1  0  0  0
  7  1  1  0  0  0
 21 16  1  0  0  0
 26 24  1  0  0  0
 36 31  1  0  0  0
 42 37  1  0  0  0
 48 43  1  0  0  0
  8  9  1  0  0  0
 29 30  1  0  0  0
M  END
> <minimizedAffinity>
-7.49221

> <CNNscore>
0.0360164307

> <CNNaffinity>
7.1146569252

> <CNN_VS>
0.2562445402

> <CNNaffinity_variance>
0.2224496603

$$$$
[H]c1nc(N([H])c2c([H])c([H])c(C3([H])C([H])([H])C([H])([H])N(C(=O)C4([H])C([H])([H])C4([H])[H])C([H])([H])C3([H])[H])c([H])c2OC([H])([H])[H])nc(N([H])c2c([H])c([H])c([H])c([H])c2N2C([H])([H])C([H])([H])C([H])([H])[C@@]([H])(N3C([H])([H])C([H])([H])OC([H])([H])C3([H])[H])C2([H])[H])c1Cl


 48 54  0  0  0  0  0  0  0  0999 V2000
    0.9712  -51.5500  -23.9976 C   0  0  0  0  0  0  0  0  0  0  0  0
    0.8384  -51.7457  -25.2999 N   0  0  0  0  0  0  0  0  0  0  0  0
    1.6103  -51.1201  -26.1928 C   0  0  0  0  0  0  0  0  0  0  0  0
    2.5870  -50.2367  -25.8084 C   0  0  0  0  0  0  0  0  0  0  0  0
    3.6111  -49.3991  -26.9266 Cl  0  0  0  0  0  0  0  0  0  0  0  0
    2.7505  -50.0089  -24.4200 C   0  0  0  0  0  0  0  0  0  0  0  0
    1.9416  -50.6745  -23.6420 N   0  0  0  0  0  0  0  0  0  0  0  0
    0.2260  -52.1226  -22.9463 N   0  0  0  0  0  0  0  0  0  0  0  0
   -0.4603  -52.9050  -23.2395 H   0  0  0  0  0  0  0  0  0  0  0  0
    0.0072  -52.7516  -20.6576 C   0  0  0  0  0  0  0  0  0  0  0  0
    0.0649  -52.5089  -19.3090 C   0  0  0  0  0  0  0  0  0  0  0  0
    0.4255  -51.2654  -18.8486 C   0  0  0  0  0  0  0  0  0  0  0  0
    0.7218  -50.2865  -19.7633 C   0  0  0  0  0  0  0  0  0  0  0  0
    0.6607  -50.5425  -21.1384 C   0  0  0  0  0  0  0  0  0  0  0  0
    0.3077  -51.7623  -21.6042 C   0  0  0  0  0  0  0  0  0  0  0  0
    0.5061  -50.9885  -17.3863 C   0  0  0  0  0  0  0  0  0  0  0  0
   -0.4550  -51.7887  -16.5937 C   0  0  0  0  0  0  0  0  0  0  0  0
   -1.0951  -50.9410  -15.5174 C   0  0  0  0  0  0  0  0  0  0  0  0
   -0.0650  -50.1476  -14.9229 N   0  0  0  0  0  0  0  0  0  0  0  0
    0.4681  -49.0865  -15.7619 C   0  0  0  0  0  0  0  0  0  0  0  0
    0.3440  -49.4958  -17.2279 C   0  0  0  0  0  0  0  0  0  0  0  0
    0.4178  -50.3612  -13.6375 C   0  0  0  0  0  0  0  0  0  0  0  0
    1.3420  -49.6130  -13.1393 O   0  0  0  0  0  0  0  0  0  0  0  0
   -0.0567  -51.4342  -12.7278 C   0  0  0  0  0  0  0  0  0  0  0  0
    0.9625  -52.1256  -11.8484 C   0  0  0  0  0  0  0  0  0  0  0  0
    0.3651  -52.8453  -12.9740 C   0  0  0  0  0  0  0  0  0  0  0  0
   -1.7184  -54.3363  -21.2319 C   0  0  0  0  0  0  0  0  0  0  0  0
   -0.3571  -54.0068  -21.0948 O   0  0  0  0  0  0  0  0  0  0  0  0
    3.7492  -49.1040  -23.9883 N   0  0  0  0  0  0  0  0  0  0  0  0
    3.4157  -48.0988  -23.8128 H   0  0  0  0  0  0  0  0  0  0  0  0
    5.0848  -49.3857  -23.7557 C   0  0  0  0  0  0  0  0  0  0  0  0
    5.6371  -50.6309  -23.9652 C   0  0  0  0  0  0  0  0  0  0  0  0
    6.9920  -50.8451  -23.6590 C   0  0  0  0  0  0  0  0  0  0  0  0
    7.7692  -49.8312  -23.1549 C   0  0  0  0  0  0  0  0  0  0  0  0
    7.2060  -48.5896  -22.9497 C   0  0  0  0  0  0  0  0  0  0  0  0
    5.8833  -48.3522  -23.2413 C   0  0  0  0  0  0  0  0  0  0  0  0
    5.3172  -47.0671  -23.0639 N   0  0  0  0  0  0  0  0  0  0  0  0
    5.0886  -46.4814  -21.7616 C   0  0  0  0  0  0  0  0  0  0  0  0
    4.9419  -44.9983  -21.7526 C   0  0  0  0  0  0  0  0  0  0  0  0
    4.2639  -44.4144  -22.9663 C   0  0  0  0  0  0  0  0  0  0  0  0
    3.8426  -45.4256  -23.9802 C   0  0  0  0  0  0  0  0  0  0  0  0
    4.9750  -46.3465  -24.2831 C   0  0  0  0  0  0  0  0  0  0  0  0
    3.3385  -44.7362  -25.1425 N   0  0  0  0  0  0  0  0  0  0  0  0
    4.2793  -43.9399  -25.8270 C   0  0  0  0  0  0  0  0  0  0  0  0
    4.3715  -44.1288  -27.3100 C   0  0  0  0  0  0  0  0  0  0  0  0
    4.0187  -45.4511  -27.6616 O   0  0  0  0  0  0  0  0  0  0  0  0
    2.6366  -45.5185  -27.3740 C   0  0  0  0  0  0  0  0  0  0  0  0
    2.4069  -45.4725  -25.9064 C   0  0  0  0  0  0  0  0  0  0  0  0
 27 28  1  0  0  0
 28 10  1  0  0  0
 10 11  2  0  0  0
 11 12  1  0  0  0
 12 13  2  0  0  0
 13 14  1  0  0  0
 14 15  2  0  0  0
 15  8  1  0  0  0
  8  1  1  0  0  0
  1  2  2  0  0  0
  2  3  1  0  0  0
  3  4  2  0  0  0
  4  5  1  0  0  0
  4  6  1  0  0  0
  6 29  1  0  0  0
 29 31  1  0  0  0
 31 32  2  0  0  0
 32 33  1  0  0  0
 33 34  2  0  0  0
 34 35  1  0  0  0
 35 36  2  0  0  0
 36 37  1  0  0  0
 37 38  1  0  0  0
 38 39  1  0  0  0
 39 40  1  0  0  0
 40 41  1  0  0  0
 41 42  1  0  0  0
 41 43  1  0  0  0
 43 44  1  0  0  0
 44 45  1  0  0  0
 45 46  1  0  0  0
 46 47  1  0  0  0
 47 48  1  0  0  0
  6  7  2  0  0  0
 12 16  1  0  0  0
 16 17  1  0  0  0
 17 18  1  0  0  0
 18 19  1  0  0  0
 19 20  1  0  0  0
 20 21  1  0  0  0
 19 22  1  0  0  0
 22 23  2  0  0  0
 22 24  1  0  0  0
 24 25  1  0  0  0
 25 26  1  0  0  0
 15 10  1  0  0  0
  7  1  1  0  0  0
 21 16  1  0  0  0
 26 24  1  0  0  0
 36 31  1  0  0  0
 42 37  1  0  0  0
 48 43  1  0  0  0
  8  9  1  0  0  0
 29 30  1  0  0  0
M  END
> <minimizedAffinity>
-7.75689

> <CNNscore>
0.0350974984

> <CNNaffinity>
6.4956407547

> <CNN_VS>
0.2279807478

> <CNNaffinity_variance>
0.8816860914

$$$$
[H]c1nc2c(N([H])C([H])([H])C([H])([H])C([H])([H])C([H])([H])[H])c([H])c(C3([H])C([H])([H])OC3([H])[H])c([H])n2c1-c1c([H])c([H])c(N([H])C(=O)c2c([H])c([H])c(C([H])([H])[H])c(C(F)(F)F)c2[H])c([H])c1[H]


 40 44  0  0  0  0  0  0  0  0999 V2000
    2.7345  -47.9320  -22.5765 C   0  0  0  0  0  0  0  0  0  0  0  0
    2.6378  -46.6435  -23.0004 C   0  0  0  0  0  0  0  0  0  0  0  0
    2.9199  -46.2679  -24.3160 C   0  0  0  0  0  0  0  0  0  0  0  0
    3.3153  -47.1588  -25.2782 C   0  0  0  0  0  0  0  0  0  0  0  0
    3.4191  -48.4827  -24.8500 C   0  0  0  0  0  0  0  0  0  0  0  0
    3.1420  -48.8487  -23.5633 C   0  0  0  0  0  0  0  0  0  0  0  0
    1.1734  -50.5585  -18.7217 C   0  0  0  0  0  0  0  0  0  0  0  0
    0.6235  -51.5825  -19.4509 C   0  0  0  0  0  0  0  0  0  0  0  0
    0.6291  -51.6069  -20.8210 C   0  0  0  0  0  0  0  0  0  0  0  0
    1.2107  -50.5604  -21.5012 C   0  0  0  0  0  0  0  0  0  0  0  0
    1.7663  -49.5245  -20.8149 N   0  0  0  0  0  0  0  0  0  0  0  0
    2.3916  -48.4265  -21.2501 C   0  0  0  0  0  0  0  0  0  0  0  0
    2.7771  -47.7249  -20.0881 C   0  0  0  0  0  0  0  0  0  0  0  0
    2.3675  -48.4257  -19.0464 N   0  0  0  0  0  0  0  0  0  0  0  0
    1.7431  -49.5349  -19.4591 C   0  0  0  0  0  0  0  0  0  0  0  0
    0.0090  -52.7604  -21.5614 C   0  0  0  0  0  0  0  0  0  0  0  0
   -1.4631  -52.9134  -21.3715 C   0  0  0  0  0  0  0  0  0  0  0  0
   -1.3235  -54.2473  -20.9443 O   0  0  0  0  0  0  0  0  0  0  0  0
    0.0015  -53.9635  -20.6269 C   0  0  0  0  0  0  0  0  0  0  0  0
    1.2054  -50.4999  -17.3055 N   0  0  0  0  0  0  0  0  0  0  0  0
    2.1545  -50.5267  -16.8107 H   0  0  0  0  0  0  0  0  0  0  0  0
    0.0467  -50.4064  -16.4794 C   0  0  0  0  0  0  0  0  0  0  0  0
   -0.5076  -51.6919  -15.9722 C   0  0  0  0  0  0  0  0  0  0  0  0
   -2.0873  -53.0602  -17.3676 C   0  0  0  0  0  0  0  0  0  0  0  0
   -1.9494  -51.9066  -16.4185 C   0  0  0  0  0  0  0  0  0  0  0  0
    3.5980  -46.8304  -26.6255 N   0  0  0  0  0  0  0  0  0  0  0  0
    2.7724  -46.2212  -27.5599 C   0  0  0  0  0  0  0  0  0  0  0  0
    1.6028  -45.8734  -27.2898 O   0  0  0  0  0  0  0  0  0  0  0  0
    4.5820  -47.0806  -26.9628 H   0  0  0  0  0  0  0  0  0  0  0  0
    3.2316  -45.9500  -28.9250 C   0  0  0  0  0  0  0  0  0  0  0  0
    4.3877  -45.2563  -29.1920 C   0  0  0  0  0  0  0  0  0  0  0  0
    4.7587  -45.0287  -30.5196 C   0  0  0  0  0  0  0  0  0  0  0  0
    4.0165  -45.4693  -31.5896 C   0  0  0  0  0  0  0  0  0  0  0  0
    4.4487  -45.2050  -32.9920 C   0  0  0  0  0  0  0  0  0  0  0  0
    2.8610  -46.1629  -31.3214 C   0  0  0  0  0  0  0  0  0  0  0  0
    2.4820  -46.3950  -30.0202 C   0  0  0  0  0  0  0  0  0  0  0  0
    1.9989  -46.6748  -32.4078 C   0  0  0  0  0  0  0  0  0  0  0  0
    2.2913  -47.9961  -32.6812 F   0  0  0  0  0  0  0  0  0  0  0  0
    0.6897  -46.6627  -31.9492 F   0  0  0  0  0  0  0  0  0  0  0  0
    2.1409  -45.9781  -33.5814 F   0  0  0  0  0  0  0  0  0  0  0  0
 24 25  1  0  0  0
 25 23  1  0  0  0
 23 22  1  0  0  0
 22 20  1  0  0  0
 20  7  1  0  0  0
  7  8  2  0  0  0
  8  9  1  0  0  0
  9 10  2  0  0  0
 10 11  1  0  0  0
 11 12  1  0  0  0
 12 13  2  0  0  0
 13 14  1  0  0  0
 14 15  2  0  0  0
 12  1  1  0  0  0
  1  2  2  0  0  0
  2  3  1  0  0  0
  3  4  2  0  0  0
  4 26  1  0  0  0
 26 27  1  0  0  0
 27 28  2  0  0  0
 27 30  1  0  0  0
 30 31  2  0  0  0
 31 32  1  0  0  0
 32 33  2  0  0  0
 33 34  1  0  0  0
 33 35  1  0  0  0
 35 36  2  0  0  0
 35 37  1  0  0  0
 37 38  1  0  0  0
 37 39  1  0  0  0
 37 40  1  0  0  0
  4  5  1  0  0  0
  5  6  2  0  0  0
  9 16  1  0  0  0
 16 17  1  0  0  0
 17 18  1  0  0  0
 18 19  1  0  0  0
 15  7  1  0  0  0
  6  1  1  0  0  0
 19 16  1  0  0  0
 15 11  1  0  0  0
 36 30  1  0  0  0
 20 21  1  0  0  0
 26 29  1  0  0  0
M  END
> <minimizedAffinity>
-7.96480

> <CNNscore>
0.3431541324

> <CNNaffinity>
6.4921593666

> <CNN_VS>
2.2278113365

> <CNNaffinity_variance>
0.1110952273

$$$$
[H]c1nc2c(N([H])C([H])([H])C([H])([H])C([H])([H])C([H])([H])[H])c([H])c(C3([H])C([H])([H])OC3([H])[H])c([H])n2c1-c1c([H])c([H])c(N([H])C(=O)c2c([H])c([H])c(C([H])([H])[H])c(C(F)(F)F)c2[H])c([H])c1[H]


 40 44  0  0  0  0  0  0  0  0999 V2000
   -0.1591  -53.4548  -23.1057 C   0  0  0  0  0  0  0  0  0  0  0  0
   -0.3151  -54.4890  -22.2365 C   0  0  0  0  0  0  0  0  0  0  0  0
   -0.6538  -54.2918  -20.8956 C   0  0  0  0  0  0  0  0  0  0  0  0
   -0.8531  -53.0512  -20.3507 C   0  0  0  0  0  0  0  0  0  0  0  0
   -0.6924  -51.9848  -21.2361 C   0  0  0  0  0  0  0  0  0  0  0  0
   -0.3621  -52.1792  -22.5473 C   0  0  0  0  0  0  0  0  0  0  0  0
    1.6735  -53.0573  -27.6530 C   0  0  0  0  0  0  0  0  0  0  0  0
    2.6065  -52.0961  -27.3551 C   0  0  0  0  0  0  0  0  0  0  0  0
    2.7572  -51.5694  -26.0991 C   0  0  0  0  0  0  0  0  0  0  0  0
    1.9391  -52.0206  -25.0875 C   0  0  0  0  0  0  0  0  0  0  0  0
    1.0000  -52.9725  -25.3419 N   0  0  0  0  0  0  0  0  0  0  0  0
    0.1196  -53.5669  -24.5308 C   0  0  0  0  0  0  0  0  0  0  0  0
   -0.5783  -54.4882  -25.3401 C   0  0  0  0  0  0  0  0  0  0  0  0
   -0.0890  -54.3935  -26.5630 N   0  0  0  0  0  0  0  0  0  0  0  0
    0.8803  -53.4717  -26.5970 C   0  0  0  0  0  0  0  0  0  0  0  0
    3.8004  -50.5174  -25.8382 C   0  0  0  0  0  0  0  0  0  0  0  0
    4.2492  -50.4125  -24.4190 C   0  0  0  0  0  0  0  0  0  0  0  0
    3.9408  -49.0401  -24.3667 O   0  0  0  0  0  0  0  0  0  0  0  0
    3.0796  -49.2349  -25.4424 C   0  0  0  0  0  0  0  0  0  0  0  0
    1.4941  -53.6419  -28.9321 N   0  0  0  0  0  0  0  0  0  0  0  0
    2.0599  -54.5157  -29.1824 H   0  0  0  0  0  0  0  0  0  0  0  0
    0.6006  -53.1424  -29.9250 C   0  0  0  0  0  0  0  0  0  0  0  0
   -0.8506  -53.3686  -29.6806 C   0  0  0  0  0  0  0  0  0  0  0  0
   -2.6575  -52.5204  -28.1539 C   0  0  0  0  0  0  0  0  0  0  0  0
   -1.5213  -52.1483  -29.0601 C   0  0  0  0  0  0  0  0  0  0  0  0
   -1.2111  -52.8008  -19.0045 N   0  0  0  0  0  0  0  0  0  0  0  0
   -0.5055  -52.0997  -18.0368 C   0  0  0  0  0  0  0  0  0  0  0  0
    0.6056  -51.5772  -18.2696 O   0  0  0  0  0  0  0  0  0  0  0  0
   -2.1547  -53.2013  -18.6977 H   0  0  0  0  0  0  0  0  0  0  0  0
   -1.0301  -51.9323  -16.6786 C   0  0  0  0  0  0  0  0  0  0  0  0
   -0.2214  -51.6535  -15.6028 C   0  0  0  0  0  0  0  0  0  0  0  0
   -0.7918  -51.5149  -14.3350 C   0  0  0  0  0  0  0  0  0  0  0  0
   -2.1406  -51.6447  -14.1035 C   0  0  0  0  0  0  0  0  0  0  0  0
   -2.7089  -51.4888  -12.7338 C   0  0  0  0  0  0  0  0  0  0  0  0
   -2.9482  -51.9232  -15.1798 C   0  0  0  0  0  0  0  0  0  0  0  0
   -2.4022  -52.0627  -16.4340 C   0  0  0  0  0  0  0  0  0  0  0  0
   -4.4102  -52.0805  -15.0269 C   0  0  0  0  0  0  0  0  0  0  0  0
   -4.7015  -52.9903  -14.0303 F   0  0  0  0  0  0  0  0  0  0  0  0
   -4.9225  -50.8661  -14.5941 F   0  0  0  0  0  0  0  0  0  0  0  0
   -5.0266  -52.5222  -16.1704 F   0  0  0  0  0  0  0  0  0  0  0  0
 24 25  1  0  0  0
 25 23  1  0  0  0
 23 22  1  0  0  0
 22 20  1  0  0  0
 20  7  1  0  0  0
  7  8  2  0  0  0
  8  9  1  0  0  0
  9 10  2  0  0  0
 10 11  1  0  0  0
 11 12  1  0  0  0
 12 13  2  0  0  0
 13 14  1  0  0  0
 14 15  2  0  0  0
 12  1  1  0  0  0
  1  2  2  0  0  0
  2  3  1  0  0  0
  3  4  2  0  0  0
  4 26  1  0  0  0
 26 27  1  0  0  0
 27 28  2  0  0  0
 27 30  1  0  0  0
 30 31  2  0  0  0
 31 32  1  0  0  0
 32 33  2  0  0  0
 33 34  1  0  0  0
 33 35  1  0  0  0
 35 36  2  0  0  0
 35 37  1  0  0  0
 37 38  1  0  0  0
 37 39  1  0  0  0
 37 40  1  0  0  0
  4  5  1  0  0  0
  5  6  2  0  0  0
  9 16  1  0  0  0
 16 17  1  0  0  0
 17 18  1  0  0  0
 18 19  1  0  0  0
 15  7  1  0  0  0
  6  1  1  0  0  0
 19 16  1  0  0  0
 15 11  1  0  0  0
 36 30  1  0  0  0
 20 21  1  0  0  0
 26 29  1  0  0  0
M  END
> <minimizedAffinity>
-8.03535

> <CNNscore>
0.3327096999

> <CNNaffinity>
7.1175360680

> <CNN_VS>
2.3680732250

> <CNNaffinity_variance>
0.0994496495

$$$$
[H]c1nc2c(N([H])C([H])([H])C([H])([H])C([H])([H])C([H])([H])[H])c([H])c(C3([H])C([H])([H])OC3([H])[H])c([H])n2c1-c1c([H])c([H])c(N([H])C(=O)c2c([H])c([H])c(C([H])([H])[H])c(C(F)(F)F)c2[H])c([H])c1[H]


 40 44  0  0  0  0  0  0  0  0999 V2000
    1.5200  -49.7913  -21.0537 C   0  0  0  0  0  0  0  0  0  0  0  0
    1.6942  -48.4548  -20.8730 C   0  0  0  0  0  0  0  0  0  0  0  0
    2.3385  -47.6521  -21.8176 C   0  0  0  0  0  0  0  0  0  0  0  0
    2.8446  -48.1416  -22.9923 C   0  0  0  0  0  0  0  0  0  0  0  0
    2.6717  -49.5128  -23.1837 C   0  0  0  0  0  0  0  0  0  0  0  0
    2.0406  -50.2964  -22.2596 C   0  0  0  0  0  0  0  0  0  0  0  0
   -0.7529  -51.9274  -17.2503 C   0  0  0  0  0  0  0  0  0  0  0  0
   -0.4677  -50.9459  -16.3348 C   0  0  0  0  0  0  0  0  0  0  0  0
    0.2606  -49.8275  -16.6455 C   0  0  0  0  0  0  0  0  0  0  0  0
    0.7296  -49.6767  -17.9313 C   0  0  0  0  0  0  0  0  0  0  0  0
    0.4694  -50.6283  -18.8691 N   0  0  0  0  0  0  0  0  0  0  0  0
    0.7997  -50.6905  -20.1626 C   0  0  0  0  0  0  0  0  0  0  0  0
    0.2387  -51.8943  -20.6390 C   0  0  0  0  0  0  0  0  0  0  0  0
   -0.3797  -52.4731  -19.6258 N   0  0  0  0  0  0  0  0  0  0  0  0
   -0.2557  -51.7216  -18.5256 C   0  0  0  0  0  0  0  0  0  0  0  0
    0.5384  -48.7874  -15.5947 C   0  0  0  0  0  0  0  0  0  0  0  0
    0.2650  -49.2187  -14.1926 C   0  0  0  0  0  0  0  0  0  0  0  0
   -0.5928  -48.1258  -13.9667 O   0  0  0  0  0  0  0  0  0  0  0  0
   -0.7542  -48.0208  -15.3450 C   0  0  0  0  0  0  0  0  0  0  0  0
   -1.5158  -53.0909  -16.9780 N   0  0  0  0  0  0  0  0  0  0  0  0
   -1.0112  -53.9653  -16.6213 H   0  0  0  0  0  0  0  0  0  0  0  0
   -2.9288  -53.1824  -17.1474 C   0  0  0  0  0  0  0  0  0  0  0  0
   -3.7597  -52.8261  -15.9644 C   0  0  0  0  0  0  0  0  0  0  0  0
   -4.0034  -50.4431  -15.2050 C   0  0  0  0  0  0  0  0  0  0  0  0
   -4.4848  -51.4988  -16.1559 C   0  0  0  0  0  0  0  0  0  0  0  0
    3.4913  -47.3681  -23.9856 N   0  0  0  0  0  0  0  0  0  0  0  0
    3.1265  -46.1285  -24.4919 C   0  0  0  0  0  0  0  0  0  0  0  0
    2.1102  -45.5192  -24.0948 O   0  0  0  0  0  0  0  0  0  0  0  0
    4.3832  -47.7962  -24.3932 H   0  0  0  0  0  0  0  0  0  0  0  0
    3.9203  -45.4614  -25.5275 C   0  0  0  0  0  0  0  0  0  0  0  0
    3.3486  -44.8421  -26.6131 C   0  0  0  0  0  0  0  0  0  0  0  0
    4.1698  -44.2328  -27.5651 C   0  0  0  0  0  0  0  0  0  0  0  0
    5.5413  -44.2200  -27.4714 C   0  0  0  0  0  0  0  0  0  0  0  0
    6.3814  -43.5579  -28.5102 C   0  0  0  0  0  0  0  0  0  0  0  0
    6.1118  -44.8394  -26.3855 C   0  0  0  0  0  0  0  0  0  0  0  0
    5.3173  -45.4436  -25.4399 C   0  0  0  0  0  0  0  0  0  0  0  0
    7.5781  -44.8765  -26.2010 C   0  0  0  0  0  0  0  0  0  0  0  0
    8.0857  -43.5994  -26.0689 F   0  0  0  0  0  0  0  0  0  0  0  0
    7.8361  -45.5142  -24.9963 F   0  0  0  0  0  0  0  0  0  0  0  0
    8.2378  -45.4674  -27.2490 F   0  0  0  0  0  0  0  0  0  0  0  0
 24 25  1  0  0  0
 25 23  1  0  0  0
 23 22  1  0  0  0
 22 20  1  0  0  0
 20  7  1  0  0  0
  7  8  2  0  0  0
  8  9  1  0  0  0
  9 10  2  0  0  0
 10 11  1  0  0  0
 11 12  1  0  0  0
 12 13  2  0  0  0
 13 14  1  0  0  0
 14 15  2  0  0  0
 12  1  1  0  0  0
  1  2  2  0  0  0
  2  3  1  0  0  0
  3  4  2  0  0  0
  4 26  1  0  0  0
 26 27  1  0  0  0
 27 28  2  0  0  0
 27 30  1  0  0  0
 30 31  2  0  0  0
 31 32  1  0  0  0
 32 33  2  0  0  0
 33 34  1  0  0  0
 33 35  1  0  0  0
 35 36  2  0  0  0
 35 37  1  0  0  0
 37 38  1  0  0  0
 37 39  1  0  0  0
 37 40  1  0  0  0
  4  5  1  0  0  0
  5  6  2  0  0  0
  9 16  1  0  0  0
 16 17  1  0  0  0
 17 18  1  0  0  0
 18 19  1  0  0  0
 15  7  1  0  0  0
  6  1  1  0  0  0
 19 16  1  0  0  0
 15 11  1  0  0  0
 36 30  1  0  0  0
 20 21  1  0  0  0
 26 29  1  0  0  0
M  END
> <minimizedAffinity>
-6.32349

> <CNNscore>
0.2353869081

> <CNNaffinity>
6.3257379532

> <CNN_VS>
1.4889959097

> <CNNaffinity_variance>
0.2773338556

$$$$
[H]c1nc2c(N([H])C([H])([H])C([H])([H])C([H])([H])C([H])([H])[H])c([H])c(C3([H])C([H])([H])OC3([H])[H])c([H])n2c1-c1c([H])c([H])c(N([H])C(=O)c2c([H])c([H])c(C([H])([H])[H])c(C(F)(F)F)c2[H])c([H])c1[H]


 40 44  0  0  0  0  0  0  0  0999 V2000
    0.7555  -51.0108  -19.0167 C   0  0  0  0  0  0  0  0  0  0  0  0
    0.8133  -52.2747  -19.5151 C   0  0  0  0  0  0  0  0  0  0  0  0
    0.7639  -52.5389  -20.8860 C   0  0  0  0  0  0  0  0  0  0  0  0
    0.6526  -51.5551  -21.8322 C   0  0  0  0  0  0  0  0  0  0  0  0
    0.5904  -50.2555  -21.3282 C   0  0  0  0  0  0  0  0  0  0  0  0
    0.6396  -49.9986  -19.9873 C   0  0  0  0  0  0  0  0  0  0  0  0
    0.0768  -50.2944  -14.1978 C   0  0  0  0  0  0  0  0  0  0  0  0
   -1.1882  -50.8235  -14.1444 C   0  0  0  0  0  0  0  0  0  0  0  0
   -1.8366  -51.3144  -15.2473 C   0  0  0  0  0  0  0  0  0  0  0  0
   -1.1956  -51.2776  -16.4653 C   0  0  0  0  0  0  0  0  0  0  0  0
    0.0595  -50.7597  -16.5612 N   0  0  0  0  0  0  0  0  0  0  0  0
    0.8731  -50.6357  -17.6142 C   0  0  0  0  0  0  0  0  0  0  0  0
    2.0553  -50.0513  -17.1123 C   0  0  0  0  0  0  0  0  0  0  0  0
    1.8853  -49.8604  -15.8167 N   0  0  0  0  0  0  0  0  0  0  0  0
    0.6708  -50.2840  -15.4481 C   0  0  0  0  0  0  0  0  0  0  0  0
   -3.2241  -51.8819  -15.1210 C   0  0  0  0  0  0  0  0  0  0  0  0
   -3.7167  -52.6169  -16.3225 C   0  0  0  0  0  0  0  0  0  0  0  0
   -4.8707  -51.8153  -16.4062 O   0  0  0  0  0  0  0  0  0  0  0  0
   -4.2017  -50.8470  -15.6634 C   0  0  0  0  0  0  0  0  0  0  0  0
    0.7914  -49.7917  -13.0814 N   0  0  0  0  0  0  0  0  0  0  0  0
    1.2584  -50.4865  -12.4139 H   0  0  0  0  0  0  0  0  0  0  0  0
    0.9355  -48.4056  -12.7782 C   0  0  0  0  0  0  0  0  0  0  0  0
   -0.2911  -47.5712  -12.9060 C   0  0  0  0  0  0  0  0  0  0  0  0
   -1.5442  -47.0917  -15.0308 C   0  0  0  0  0  0  0  0  0  0  0  0
   -0.3185  -46.7954  -14.2181 C   0  0  0  0  0  0  0  0  0  0  0  0
    0.6134  -51.7706  -23.2305 N   0  0  0  0  0  0  0  0  0  0  0  0
   -0.0643  -52.7545  -23.9365 C   0  0  0  0  0  0  0  0  0  0  0  0
   -0.7634  -53.6207  -23.3684 O   0  0  0  0  0  0  0  0  0  0  0  0
    1.1772  -51.0768  -23.8184 H   0  0  0  0  0  0  0  0  0  0  0  0
    0.0032  -52.8310  -25.3985 C   0  0  0  0  0  0  0  0  0  0  0  0
    1.1624  -53.1382  -26.0700 C   0  0  0  0  0  0  0  0  0  0  0  0
    1.1530  -53.1853  -27.4664 C   0  0  0  0  0  0  0  0  0  0  0  0
    0.0274  -52.9367  -28.2155 C   0  0  0  0  0  0  0  0  0  0  0  0
    0.0606  -52.9977  -29.7049 C   0  0  0  0  0  0  0  0  0  0  0  0
   -1.1309  -52.6299  -27.5430 C   0  0  0  0  0  0  0  0  0  0  0  0
   -1.1381  -52.5794  -26.1689 C   0  0  0  0  0  0  0  0  0  0  0  0
   -2.3899  -52.3474  -28.2645 C   0  0  0  0  0  0  0  0  0  0  0  0
   -2.8479  -53.4795  -28.9083 F   0  0  0  0  0  0  0  0  0  0  0  0
   -3.3557  -52.0305  -27.3203 F   0  0  0  0  0  0  0  0  0  0  0  0
   -2.2571  -51.3672  -29.2155 F   0  0  0  0  0  0  0  0  0  0  0  0
 24 25  1  0  0  0
 25 23  1  0  0  0
 23 22  1  0  0  0
 22 20  1  0  0  0
 20  7  1  0  0  0
  7  8  2  0  0  0
  8  9  1  0  0  0
  9 10  2  0  0  0
 10 11  1  0  0  0
 11 12  1  0  0  0
 12 13  2  0  0  0
 13 14  1  0  0  0
 14 15  2  0  0  0
 12  1  1  0  0  0
  1  2  2  0  0  0
  2  3  1  0  0  0
  3  4  2  0  0  0
  4 26  1  0  0  0
 26 27  1  0  0  0
 27 28  2  0  0  0
 27 30  1  0  0  0
 30 31  2  0  0  0
 31 32  1  0  0  0
 32 33  2  0  0  0
 33 34  1  0  0  0
 33 35  1  0  0  0
 35 36  2  0  0  0
 35 37  1  0  0  0
 37 38  1  0  0  0
 37 39  1  0  0  0
 37 40  1  0  0  0
  4  5  1  0  0  0
  5  6  2  0  0  0
  9 16  1  0  0  0
 16 17  1  0  0  0
 17 18  1  0  0  0
 18 19  1  0  0  0
 15  7  1  0  0  0
  6  1  1  0  0  0
 19 16  1  0  0  0
 15 11  1  0  0  0
 36 30  1  0  0  0
 20 21  1  0  0  0
 26 29  1  0  0  0
M  END
> <minimizedAffinity>
-7.75321

> <CNNscore>
0.1930560321

> <CNNaffinity>
6.7323837280

> <CNN_VS>
1.2997273207

> <CNNaffinity_variance>
0.1799436510

$$$$
[H]c1nc2c(N([H])C([H])([H])C([H])([H])C([H])([H])C([H])([H])[H])c([H])c(C3([H])C([H])([H])OC3([H])[H])c([H])n2c1-c1c([H])c([H])c(N([H])C(=O)c2c([H])c([H])c(C([H])([H])[H])c(C(F)(F)F)c2[H])c([H])c1[H]


 40 44  0  0  0  0  0  0  0  0999 V2000
    1.3224  -51.1122  -21.5291 C   0  0  0  0  0  0  0  0  0  0  0  0
    2.1377  -51.7662  -22.3991 C   0  0  0  0  0  0  0  0  0  0  0  0
    2.9162  -51.0916  -23.3427 C   0  0  0  0  0  0  0  0  0  0  0  0
    2.9209  -49.7278  -23.4689 C   0  0  0  0  0  0  0  0  0  0  0  0
    2.0849  -49.0499  -22.5809 C   0  0  0  0  0  0  0  0  0  0  0  0
    1.3248  -49.7109  -21.6581 C   0  0  0  0  0  0  0  0  0  0  0  0
   -1.0085  -52.1854  -17.3327 C   0  0  0  0  0  0  0  0  0  0  0  0
   -0.5338  -51.1137  -16.6193 C   0  0  0  0  0  0  0  0  0  0  0  0
    0.3274  -50.1893  -17.1499 C   0  0  0  0  0  0  0  0  0  0  0  0
    0.7381  -50.3374  -18.4558 C   0  0  0  0  0  0  0  0  0  0  0  0
    0.2911  -51.3877  -19.1973 N   0  0  0  0  0  0  0  0  0  0  0  0
    0.5339  -51.7234  -20.4679 C   0  0  0  0  0  0  0  0  0  0  0  0
   -0.2197  -52.8933  -20.7009 C   0  0  0  0  0  0  0  0  0  0  0  0
   -0.8548  -53.1867  -19.5808 N   0  0  0  0  0  0  0  0  0  0  0  0
   -0.5616  -52.2823  -18.6392 C   0  0  0  0  0  0  0  0  0  0  0  0
    0.8109  -49.0360  -16.3138 C   0  0  0  0  0  0  0  0  0  0  0  0
    1.1568  -49.3805  -14.9037 C   0  0  0  0  0  0  0  0  0  0  0  0
    0.2851  -48.4001  -14.3937 O   0  0  0  0  0  0  0  0  0  0  0  0
   -0.3970  -48.4350  -15.6062 C   0  0  0  0  0  0  0  0  0  0  0  0
   -1.9126  -53.1552  -16.8306 N   0  0  0  0  0  0  0  0  0  0  0  0
   -1.5217  -54.0822  -16.4642 H   0  0  0  0  0  0  0  0  0  0  0  0
   -3.3272  -52.9828  -16.7776 C   0  0  0  0  0  0  0  0  0  0  0  0
   -3.8762  -52.4178  -15.5141 C   0  0  0  0  0  0  0  0  0  0  0  0
   -3.7747  -49.9464  -15.0705 C   0  0  0  0  0  0  0  0  0  0  0  0
   -4.5311  -51.0588  -15.7345 C   0  0  0  0  0  0  0  0  0  0  0  0
    3.7014  -48.9985  -24.3973 N   0  0  0  0  0  0  0  0  0  0  0  0
    4.9495  -48.4200  -24.2138 C   0  0  0  0  0  0  0  0  0  0  0  0
    5.5614  -48.4860  -23.1261 O   0  0  0  0  0  0  0  0  0  0  0  0
    3.2717  -48.8858  -25.3706 H   0  0  0  0  0  0  0  0  0  0  0  0
    5.6231  -47.6952  -25.2948 C   0  0  0  0  0  0  0  0  0  0  0  0
    5.3187  -46.3934  -25.6140 C   0  0  0  0  0  0  0  0  0  0  0  0
    5.9976  -45.7688  -26.6633 C   0  0  0  0  0  0  0  0  0  0  0  0
    6.9695  -46.3979  -27.4047 C   0  0  0  0  0  0  0  0  0  0  0  0
    7.6704  -45.6944  -28.5170 C   0  0  0  0  0  0  0  0  0  0  0  0
    7.2731  -47.6992  -27.0845 C   0  0  0  0  0  0  0  0  0  0  0  0
    6.6138  -48.3280  -26.0547 C   0  0  0  0  0  0  0  0  0  0  0  0
    8.3038  -48.4558  -27.8267 C   0  0  0  0  0  0  0  0  0  0  0  0
    8.5592  -49.6649  -27.2114 F   0  0  0  0  0  0  0  0  0  0  0  0
    7.7826  -48.7671  -29.0742 F   0  0  0  0  0  0  0  0  0  0  0  0
    9.4992  -47.7886  -27.9190 F   0  0  0  0  0  0  0  0  0  0  0  0
 24 25  1  0  0  0
 25 23  1  0  0  0
 23 22  1  0  0  0
 22 20  1  0  0  0
 20  7  1  0  0  0
  7  8  2  0  0  0
  8  9  1  0  0  0
  9 10  2  0  0  0
 10 11  1  0  0  0
 11 12  1  0  0  0
 12 13  2  0  0  0
 13 14  1  0  0  0
 14 15  2  0  0  0
 12  1  1  0  0  0
  1  2  2  0  0  0
  2  3  1  0  0  0
  3  4  2  0  0  0
  4 26  1  0  0  0
 26 27  1  0  0  0
 27 28  2  0  0  0
 27 30  1  0  0  0
 30 31  2  0  0  0
 31 32  1  0  0  0
 32 33  2  0  0  0
 33 34  1  0  0  0
 33 35  1  0  0  0
 35 36  2  0  0  0
 35 37  1  0  0  0
 37 38  1  0  0  0
 37 39  1  0  0  0
 37 40  1  0  0  0
  4  5  1  0  0  0
  5  6  2  0  0  0
  9 16  1  0  0  0
 16 17  1  0  0  0
 17 18  1  0  0  0
 18 19  1  0  0  0
 15  7  1  0  0  0
  6  1  1  0  0  0
 19 16  1  0  0  0
 15 11  1  0  0  0
 36 30  1  0  0  0
 20 21  1  0  0  0
 26 29  1  0  0  0
M  END
> <minimizedAffinity>
-6.74987

> <CNNscore>
0.1849379838

> <CNNaffinity>
6.3339347839

> <CNN_VS>
1.1713851690

> <CNNaffinity_variance>
0.3457523286

$$$$
[H]c1nc2c(N([H])C([H])([H])C([H])([H])C([H])([H])C([H])([H])[H])c([H])c(C3([H])C([H])([H])OC3([H])[H])c([H])n2c1-c1c([H])c([H])c(N([H])C(=O)c2c([H])c([H])c(C([H])([H])[H])c(C(F)(F)F)c2[H])c([H])c1[H]


 40 44  0  0  0  0  0  0  0  0999 V2000
    1.3993  -51.4419  -22.5636 C   0  0  0  0  0  0  0  0  0  0  0  0
    2.5144  -50.6638  -22.5466 C   0  0  0  0  0  0  0  0  0  0  0  0
    3.0531  -50.1068  -23.7090 C   0  0  0  0  0  0  0  0  0  0  0  0
    2.5077  -50.2985  -24.9507 C   0  0  0  0  0  0  0  0  0  0  0  0
    1.3644  -51.0979  -24.9763 C   0  0  0  0  0  0  0  0  0  0  0  0
    0.8383  -51.6412  -23.8386 C   0  0  0  0  0  0  0  0  0  0  0  0
   -0.4800  -52.3178  -18.1031 C   0  0  0  0  0  0  0  0  0  0  0  0
    0.0643  -51.2162  -17.4922 C   0  0  0  0  0  0  0  0  0  0  0  0
    0.8638  -50.3191  -18.1508 C   0  0  0  0  0  0  0  0  0  0  0  0
    1.1365  -50.5273  -19.4844 C   0  0  0  0  0  0  0  0  0  0  0  0
    0.6169  -51.6088  -20.1270 N   0  0  0  0  0  0  0  0  0  0  0  0
    0.7268  -52.0023  -21.3995 C   0  0  0  0  0  0  0  0  0  0  0  0
   -0.0446  -53.1795  -21.4995 C   0  0  0  0  0  0  0  0  0  0  0  0
   -0.5591  -53.4202  -20.3073 N   0  0  0  0  0  0  0  0  0  0  0  0
   -0.1713  -52.4749  -19.4432 C   0  0  0  0  0  0  0  0  0  0  0  0
    1.4294  -49.1304  -17.4227 C   0  0  0  0  0  0  0  0  0  0  0  0
    2.4731  -49.4518  -16.4058 C   0  0  0  0  0  0  0  0  0  0  0  0
    1.7657  -48.7821  -15.3897 O   0  0  0  0  0  0  0  0  0  0  0  0
    0.6115  -48.9294  -16.1533 C   0  0  0  0  0  0  0  0  0  0  0  0
   -1.3250  -53.2614  -17.4662 N   0  0  0  0  0  0  0  0  0  0  0  0
   -0.9144  -54.2070  -17.1769 H   0  0  0  0  0  0  0  0  0  0  0  0
   -2.7039  -53.0388  -17.1787 C   0  0  0  0  0  0  0  0  0  0  0  0
   -3.0019  -52.1100  -16.0537 C   0  0  0  0  0  0  0  0  0  0  0  0
   -4.6532  -50.3439  -15.3689 C   0  0  0  0  0  0  0  0  0  0  0  0
   -4.4601  -51.6652  -16.0526 C   0  0  0  0  0  0  0  0  0  0  0  0
    3.0068  -49.7448  -26.1538 N   0  0  0  0  0  0  0  0  0  0  0  0
    3.3358  -48.4249  -26.4287 C   0  0  0  0  0  0  0  0  0  0  0  0
    3.2153  -47.5170  -25.5785 O   0  0  0  0  0  0  0  0  0  0  0  0
    3.1550  -50.4404  -26.9531 H   0  0  0  0  0  0  0  0  0  0  0  0
    3.8472  -48.0215  -27.7415 C   0  0  0  0  0  0  0  0  0  0  0  0
    4.9982  -48.5456  -28.2796 C   0  0  0  0  0  0  0  0  0  0  0  0
    5.4292  -48.1070  -29.5341 C   0  0  0  0  0  0  0  0  0  0  0  0
    4.7517  -47.1641  -30.2701 C   0  0  0  0  0  0  0  0  0  0  0  0
    5.2464  -46.7237  -31.6060 C   0  0  0  0  0  0  0  0  0  0  0  0
    3.6010  -46.6410  -29.7313 C   0  0  0  0  0  0  0  0  0  0  0  0
    3.1636  -47.0621  -28.4976 C   0  0  0  0  0  0  0  0  0  0  0  0
    2.8067  -45.6220  -30.4498 C   0  0  0  0  0  0  0  0  0  0  0  0
    2.4124  -46.0933  -31.6861 F   0  0  0  0  0  0  0  0  0  0  0  0
    1.6377  -45.4145  -29.7321 F   0  0  0  0  0  0  0  0  0  0  0  0
    3.4953  -44.4545  -30.6630 F   0  0  0  0  0  0  0  0  0  0  0  0
 24 25  1  0  0  0
 25 23  1  0  0  0
 23 22  1  0  0  0
 22 20  1  0  0  0
 20  7  1  0  0  0
  7  8  2  0  0  0
  8  9  1  0  0  0
  9 10  2  0  0  0
 10 11  1  0  0  0
 11 12  1  0  0  0
 12 13  2  0  0  0
 13 14  1  0  0  0
 14 15  2  0  0  0
 12  1  1  0  0  0
  1  2  2  0  0  0
  2  3  1  0  0  0
  3  4  2  0  0  0
  4 26  1  0  0  0
 26 27  1  0  0  0
 27 28  2  0  0  0
 27 30  1  0  0  0
 30 31  2  0  0  0
 31 32  1  0  0  0
 32 33  2  0  0  0
 33 34  1  0  0  0
 33 35  1  0  0  0
 35 36  2  0  0  0
 35 37  1  0  0  0
 37 38  1  0  0  0
 37 39  1  0  0  0
 37 40  1  0  0  0
  4  5  1  0  0  0
  5  6  2  0  0  0
  9 16  1  0  0  0
 16 17  1  0  0  0
 17 18  1  0  0  0
 18 19  1  0  0  0
 15  7  1  0  0  0
  6  1  1  0  0  0
 19 16  1  0  0  0
 15 11  1  0  0  0
 36 30  1  0  0  0
 20 21  1  0  0  0
 26 29  1  0  0  0
M  END
> <minimizedAffinity>
-8.06631

> <CNNscore>
0.1774774492

> <CNNaffinity>
6.4916443825

> <CNN_VS>
1.1521204710

> <CNNaffinity_variance>
0.2668631077

$$$$
[H]c1nc2c(N([H])C([H])([H])C([H])([H])C([H])([H])C([H])([H])[H])c([H])c(C3([H])C([H])([H])OC3([H])[H])c([H])n2c1-c1c([H])c([H])c(N([H])C(=O)c2c([H])c([H])c(C([H])([H])[H])c(C(F)(F)F)c2[H])c([H])c1[H]


 40 44  0  0  0  0  0  0  0  0999 V2000
    1.2332  -51.0768  -21.5874 C   0  0  0  0  0  0  0  0  0  0  0  0
    2.0670  -51.6894  -22.4699 C   0  0  0  0  0  0  0  0  0  0  0  0
    2.8767  -50.9712  -23.3531 C   0  0  0  0  0  0  0  0  0  0  0  0
    2.8959  -49.6026  -23.4032 C   0  0  0  0  0  0  0  0  0  0  0  0
    2.0411  -48.9668  -22.5020 C   0  0  0  0  0  0  0  0  0  0  0  0
    1.2505  -49.6706  -21.6383 C   0  0  0  0  0  0  0  0  0  0  0  0
   -1.0176  -52.5107  -17.4556 C   0  0  0  0  0  0  0  0  0  0  0  0
   -0.3314  -51.6731  -16.6127 C   0  0  0  0  0  0  0  0  0  0  0  0
    0.6438  -50.8148  -17.0483 C   0  0  0  0  0  0  0  0  0  0  0  0
    0.9532  -50.7873  -18.3898 C   0  0  0  0  0  0  0  0  0  0  0  0
    0.2964  -51.6033  -19.2590 N   0  0  0  0  0  0  0  0  0  0  0  0
    0.4108  -51.7381  -20.5837 C   0  0  0  0  0  0  0  0  0  0  0  0
   -0.5408  -52.7141  -20.9483 C   0  0  0  0  0  0  0  0  0  0  0  0
   -1.1555  -53.1015  -19.8456 N   0  0  0  0  0  0  0  0  0  0  0  0
   -0.6640  -52.4391  -18.7919 C   0  0  0  0  0  0  0  0  0  0  0  0
    1.3591  -49.9214  -16.0719 C   0  0  0  0  0  0  0  0  0  0  0  0
    0.5973  -48.7092  -15.6513 C   0  0  0  0  0  0  0  0  0  0  0  0
    1.6435  -47.8513  -16.0394 O   0  0  0  0  0  0  0  0  0  0  0  0
    2.1102  -48.8644  -16.8715 C   0  0  0  0  0  0  0  0  0  0  0  0
   -2.0443  -53.4013  -17.0521 N   0  0  0  0  0  0  0  0  0  0  0  0
   -1.7859  -54.4151  -16.8242 H   0  0  0  0  0  0  0  0  0  0  0  0
   -3.4178  -53.0390  -16.9259 C   0  0  0  0  0  0  0  0  0  0  0  0
   -3.8280  -52.4515  -15.6207 C   0  0  0  0  0  0  0  0  0  0  0  0
   -3.4595  -50.0120  -15.1433 C   0  0  0  0  0  0  0  0  0  0  0  0
   -4.3598  -51.0312  -15.7767 C   0  0  0  0  0  0  0  0  0  0  0  0
    3.7077  -48.8305  -24.2681 N   0  0  0  0  0  0  0  0  0  0  0  0
    3.7110  -48.8007  -25.6555 C   0  0  0  0  0  0  0  0  0  0  0  0
    2.9397  -49.5074  -26.3393 O   0  0  0  0  0  0  0  0  0  0  0  0
    4.4058  -48.1800  -23.7841 H   0  0  0  0  0  0  0  0  0  0  0  0
    4.6261  -47.9310  -26.3998 C   0  0  0  0  0  0  0  0  0  0  0  0
    5.8924  -48.3257  -26.7599 C   0  0  0  0  0  0  0  0  0  0  0  0
    6.7123  -47.4391  -27.4625 C   0  0  0  0  0  0  0  0  0  0  0  0
    6.3125  -46.1729  -27.8183 C   0  0  0  0  0  0  0  0  0  0  0  0
    7.2194  -45.2577  -28.5688 C   0  0  0  0  0  0  0  0  0  0  0  0
    5.0462  -45.7794  -27.4580 C   0  0  0  0  0  0  0  0  0  0  0  0
    4.2271  -46.6402  -26.7661 C   0  0  0  0  0  0  0  0  0  0  0  0
    4.5301  -44.4362  -27.7970 C   0  0  0  0  0  0  0  0  0  0  0  0
    3.2464  -44.2712  -27.3168 F   0  0  0  0  0  0  0  0  0  0  0  0
    5.3088  -43.5033  -27.1277 F   0  0  0  0  0  0  0  0  0  0  0  0
    4.4898  -44.2002  -29.1481 F   0  0  0  0  0  0  0  0  0  0  0  0
 24 25  1  0  0  0
 25 23  1  0  0  0
 23 22  1  0  0  0
 22 20  1  0  0  0
 20  7  1  0  0  0
  7  8  2  0  0  0
  8  9  1  0  0  0
  9 10  2  0  0  0
 10 11  1  0  0  0
 11 12  1  0  0  0
 12 13  2  0  0  0
 13 14  1  0  0  0
 14 15  2  0  0  0
 12  1  1  0  0  0
  1  2  2  0  0  0
  2  3  1  0  0  0
  3  4  2  0  0  0
  4 26  1  0  0  0
 26 27  1  0  0  0
 27 28  2  0  0  0
 27 30  1  0  0  0
 30 31  2  0  0  0
 31 32  1  0  0  0
 32 33  2  0  0  0
 33 34  1  0  0  0
 33 35  1  0  0  0
 35 36  2  0  0  0
 35 37  1  0  0  0
 37 38  1  0  0  0
 37 39  1  0  0  0
 37 40  1  0  0  0
  4  5  1  0  0  0
  5  6  2  0  0  0
  9 16  1  0  0  0
 16 17  1  0  0  0
 17 18  1  0  0  0
 18 19  1  0  0  0
 15  7  1  0  0  0
  6  1  1  0  0  0
 19 16  1  0  0  0
 15 11  1  0  0  0
 36 30  1  0  0  0
 20 21  1  0  0  0
 26 29  1  0  0  0
M  END
> <minimizedAffinity>
-6.46562

> <CNNscore>
0.1758441776

> <CNNaffinity>
6.4017500877

> <CNN_VS>
1.1257104874

> <CNNaffinity_variance>
0.2014735043

$$$$
[H]c1nc2c(N([H])C([H])([H])C([H])([H])C([H])([H])C([H])([H])[H])c([H])c(C3([H])C([H])([H])OC3([H])[H])c([H])n2c1-c1c([H])c([H])c(N([H])C(=O)c2c([H])c([H])c(C([H])([H])[H])c(C(F)(F)F)c2[H])c([H])c1[H]


 40 44  0  0  0  0  0  0  0  0999 V2000
    1.6182  -51.6671  -20.9339 C   0  0  0  0  0  0  0  0  0  0  0  0
    2.9716  -51.6097  -20.8144 C   0  0  0  0  0  0  0  0  0  0  0  0
    3.7949  -51.1777  -21.8570 C   0  0  0  0  0  0  0  0  0  0  0  0
    3.3107  -50.7814  -23.0753 C   0  0  0  0  0  0  0  0  0  0  0  0
    1.9227  -50.8397  -23.2063 C   0  0  0  0  0  0  0  0  0  0  0  0
    1.1188  -51.2616  -22.1855 C   0  0  0  0  0  0  0  0  0  0  0  0
   -1.1660  -51.8672  -16.8839 C   0  0  0  0  0  0  0  0  0  0  0  0
   -0.6367  -50.7530  -16.2829 C   0  0  0  0  0  0  0  0  0  0  0  0
    0.3645  -50.0074  -16.8482 C   0  0  0  0  0  0  0  0  0  0  0  0
    0.8654  -50.3884  -18.0729 C   0  0  0  0  0  0  0  0  0  0  0  0
    0.3683  -51.4885  -18.7018 N   0  0  0  0  0  0  0  0  0  0  0  0
    0.6790  -52.0324  -19.8823 C   0  0  0  0  0  0  0  0  0  0  0  0
   -0.1782  -53.1441  -20.0242 C   0  0  0  0  0  0  0  0  0  0  0  0
   -0.9349  -53.2031  -18.9435 N   0  0  0  0  0  0  0  0  0  0  0  0
   -0.6234  -52.2015  -18.1126 C   0  0  0  0  0  0  0  0  0  0  0  0
    0.9012  -48.7953  -16.1369 C   0  0  0  0  0  0  0  0  0  0  0  0
    2.0240  -49.0645  -15.1916 C   0  0  0  0  0  0  0  0  0  0  0  0
    1.3421  -48.4525  -14.1230 O   0  0  0  0  0  0  0  0  0  0  0  0
    0.1535  -48.6611  -14.8164 C   0  0  0  0  0  0  0  0  0  0  0  0
   -2.2123  -52.6575  -16.3447 N   0  0  0  0  0  0  0  0  0  0  0  0
   -2.0134  -53.6826  -16.1082 H   0  0  0  0  0  0  0  0  0  0  0  0
   -3.5312  -52.1783  -16.0904 C   0  0  0  0  0  0  0  0  0  0  0  0
   -4.6166  -53.1974  -16.0990 C   0  0  0  0  0  0  0  0  0  0  0  0
   -6.1540  -54.5962  -14.6866 C   0  0  0  0  0  0  0  0  0  0  0  0
   -5.0477  -53.5830  -14.6884 C   0  0  0  0  0  0  0  0  0  0  0  0
    4.1012  -50.3227  -24.1559 N   0  0  0  0  0  0  0  0  0  0  0  0
    4.6681  -49.0700  -24.3438 C   0  0  0  0  0  0  0  0  0  0  0  0
    4.5282  -48.1442  -23.5161 O   0  0  0  0  0  0  0  0  0  0  0  0
    4.2901  -51.0421  -24.9251 H   0  0  0  0  0  0  0  0  0  0  0  0
    5.4686  -48.7630  -25.5323 C   0  0  0  0  0  0  0  0  0  0  0  0
    6.8405  -48.8447  -25.5411 C   0  0  0  0  0  0  0  0  0  0  0  0
    7.5380  -48.5291  -26.7099 C   0  0  0  0  0  0  0  0  0  0  0  0
    6.9141  -48.1350  -27.8697 C   0  0  0  0  0  0  0  0  0  0  0  0
    7.6965  -47.8072  -29.0959 C   0  0  0  0  0  0  0  0  0  0  0  0
    5.5424  -48.0538  -27.8598 C   0  0  0  0  0  0  0  0  0  0  0  0
    4.8415  -48.3610  -26.7175 C   0  0  0  0  0  0  0  0  0  0  0  0
    4.7856  -47.6388  -29.0601 C   0  0  0  0  0  0  0  0  0  0  0  0
    4.9035  -48.5818  -30.0615 F   0  0  0  0  0  0  0  0  0  0  0  0
    3.4404  -47.6100  -28.7220 F   0  0  0  0  0  0  0  0  0  0  0  0
    5.2129  -46.4426  -29.5789 F   0  0  0  0  0  0  0  0  0  0  0  0
 24 25  1  0  0  0
 25 23  1  0  0  0
 23 22  1  0  0  0
 22 20  1  0  0  0
 20  7  1  0  0  0
  7  8  2  0  0  0
  8  9  1  0  0  0
  9 10  2  0  0  0
 10 11  1  0  0  0
 11 12  1  0  0  0
 12 13  2  0  0  0
 13 14  1  0  0  0
 14 15  2  0  0  0
 12  1  1  0  0  0
  1  2  2  0  0  0
  2  3  1  0  0  0
  3  4  2  0  0  0
  4 26  1  0  0  0
 26 27  1  0  0  0
 27 28  2  0  0  0
 27 30  1  0  0  0
 30 31  2  0  0  0
 31 32  1  0  0  0
 32 33  2  0  0  0
 33 34  1  0  0  0
 33 35  1  0  0  0
 35 36  2  0  0  0
 35 37  1  0  0  0
 37 38  1  0  0  0
 37 39  1  0  0  0
 37 40  1  0  0  0
  4  5  1  0  0  0
  5  6  2  0  0  0
  9 16  1  0  0  0
 16 17  1  0  0  0
 17 18  1  0  0  0
 18 19  1  0  0  0
 15  7  1  0  0  0
  6  1  1  0  0  0
 19 16  1  0  0  0
 15 11  1  0  0  0
 36 30  1  0  0  0
 20 21  1  0  0  0
 26 29  1  0  0  0
M  END
> <minimizedAffinity>
-6.87889

> <CNNscore>
0.1501304507

> <CNNaffinity>
6.3036899567

> <CNN_VS>
0.9463757873

> <CNNaffinity_variance>
0.2526275814

$$$$
[H]c1nc2c(N([H])C([H])([H])C([H])([H])C([H])([H])C([H])([H])[H])c([H])c(C3([H])C([H])([H])OC3([H])[H])c([H])n2c1-c1c([H])c([H])c(N([H])C(=O)c2c([H])c([H])c(C([H])([H])[H])c(C(F)(F)F)c2[H])c([H])c1[H]


 40 44  0  0  0  0  0  0  0  0999 V2000
    2.4886  -49.6659  -22.7130 C   0  0  0  0  0  0  0  0  0  0  0  0
    3.8304  -49.4725  -22.6065 C   0  0  0  0  0  0  0  0  0  0  0  0
    4.3857  -48.5938  -21.6732 C   0  0  0  0  0  0  0  0  0  0  0  0
    3.6304  -47.8599  -20.7975 C   0  0  0  0  0  0  0  0  0  0  0  0
    2.2523  -48.0513  -20.9024 C   0  0  0  0  0  0  0  0  0  0  0  0
    1.7107  -48.9117  -21.8150 C   0  0  0  0  0  0  0  0  0  0  0  0
   -0.1407  -53.3338  -24.6697 C   0  0  0  0  0  0  0  0  0  0  0  0
   -0.4846  -53.9232  -23.4793 C   0  0  0  0  0  0  0  0  0  0  0  0
   -0.0720  -53.4424  -22.2643 C   0  0  0  0  0  0  0  0  0  0  0  0
    0.7231  -52.3187  -22.2303 C   0  0  0  0  0  0  0  0  0  0  0  0
    1.0877  -51.7048  -23.3892 N   0  0  0  0  0  0  0  0  0  0  0  0
    1.8261  -50.6112  -23.6012 C   0  0  0  0  0  0  0  0  0  0  0  0
    1.8471  -50.4343  -25.0009 C   0  0  0  0  0  0  0  0  0  0  0  0
    1.1380  -51.4116  -25.5358 N   0  0  0  0  0  0  0  0  0  0  0  0
    0.6594  -52.2083  -24.5732 C   0  0  0  0  0  0  0  0  0  0  0  0
   -0.4847  -54.1357  -20.9946 C   0  0  0  0  0  0  0  0  0  0  0  0
   -1.7012  -53.5752  -20.3368 C   0  0  0  0  0  0  0  0  0  0  0  0
   -1.0215  -53.3872  -19.1186 O   0  0  0  0  0  0  0  0  0  0  0  0
    0.1743  -53.4067  -19.8305 C   0  0  0  0  0  0  0  0  0  0  0  0
   -0.5580  -53.7860  -25.9469 N   0  0  0  0  0  0  0  0  0  0  0  0
   -1.5040  -53.4572  -26.3255 H   0  0  0  0  0  0  0  0  0  0  0  0
    0.2030  -54.6610  -26.7770 C   0  0  0  0  0  0  0  0  0  0  0  0
    0.6796  -54.0959  -28.0695 C   0  0  0  0  0  0  0  0  0  0  0  0
   -1.0254  -52.9078  -29.4824 C   0  0  0  0  0  0  0  0  0  0  0  0
    0.0010  -52.7706  -28.3970 C   0  0  0  0  0  0  0  0  0  0  0  0
    4.1456  -46.9692  -19.8258 N   0  0  0  0  0  0  0  0  0  0  0  0
    4.3032  -45.5930  -19.9094 C   0  0  0  0  0  0  0  0  0  0  0  0
    3.9838  -44.9463  -20.9300 O   0  0  0  0  0  0  0  0  0  0  0  0
    4.4465  -47.4196  -18.9030 H   0  0  0  0  0  0  0  0  0  0  0  0
    4.8565  -44.8173  -18.7960 C   0  0  0  0  0  0  0  0  0  0  0  0
    5.1360  -43.4753  -18.8965 C   0  0  0  0  0  0  0  0  0  0  0  0
    5.6699  -42.8024  -17.7946 C   0  0  0  0  0  0  0  0  0  0  0  0
    5.9345  -43.4220  -16.5963 C   0  0  0  0  0  0  0  0  0  0  0  0
    6.5047  -42.6664  -15.4443 C   0  0  0  0  0  0  0  0  0  0  0  0
    5.6545  -44.7636  -16.4968 C   0  0  0  0  0  0  0  0  0  0  0  0
    5.1289  -45.4401  -17.5723 C   0  0  0  0  0  0  0  0  0  0  0  0
    5.9062  -45.5135  -15.2479 C   0  0  0  0  0  0  0  0  0  0  0  0
    5.1373  -45.0144  -14.2157 F   0  0  0  0  0  0  0  0  0  0  0  0
    5.4770  -46.8180  -15.4449 F   0  0  0  0  0  0  0  0  0  0  0  0
    7.2154  -45.4572  -14.8407 F   0  0  0  0  0  0  0  0  0  0  0  0
 24 25  1  0  0  0
 25 23  1  0  0  0
 23 22  1  0  0  0
 22 20  1  0  0  0
 20  7  1  0  0  0
  7  8  2  0  0  0
  8  9  1  0  0  0
  9 10  2  0  0  0
 10 11  1  0  0  0
 11 12  1  0  0  0
 12 13  2  0  0  0
 13 14  1  0  0  0
 14 15  2  0  0  0
 12  1  1  0  0  0
  1  2  2  0  0  0
  2  3  1  0  0  0
  3  4  2  0  0  0
  4 26  1  0  0  0
 26 27  1  0  0  0
 27 28  2  0  0  0
 27 30  1  0  0  0
 30 31  2  0  0  0
 31 32  1  0  0  0
 32 33  2  0  0  0
 33 34  1  0  0  0
 33 35  1  0  0  0
 35 36  2  0  0  0
 35 37  1  0  0  0
 37 38  1  0  0  0
 37 39  1  0  0  0
 37 40  1  0  0  0
  4  5  1  0  0  0
  5  6  2  0  0  0
  9 16  1  0  0  0
 16 17  1  0  0  0
 17 18  1  0  0  0
 18 19  1  0  0  0
 15  7  1  0  0  0
  6  1  1  0  0  0
 19 16  1  0  0  0
 15 11  1  0  0  0
 36 30  1  0  0  0
 20 21  1  0  0  0
 26 29  1  0  0  0
M  END
> <minimizedAffinity>
-6.89634

> <CNNscore>
0.1497857869

> <CNNaffinity>
6.3805756569

> <CNN_VS>
0.9557195306

> <CNNaffinity_variance>
0.1311010271

$$$$
[H]c1nc(N([H])c2c(Cl)c([H])c([H])c([H])c2C([H])([H])C([H])([H])O[C@@]2([H])C([H])([H])C([H])([H])O[C@@]2([H])C(=O)N([H])[H])nc(C([H])([H])[H])c1-c1c([H])c([H])c2c(c1[H])OC([H])([H])O2


 38 42  0  0  0  0  0  0  0  0999 V2000
    1.2874  -51.8151  -19.0671 C   0  0  0  0  0  0  0  0  0  0  0  0
    2.3506  -50.9487  -19.1572 C   0  0  0  0  0  0  0  0  0  0  0  0
    2.3082  -49.7372  -18.4616 C   0  0  0  0  0  0  0  0  0  0  0  0
    1.2063  -49.4537  -17.7107 C   0  0  0  0  0  0  0  0  0  0  0  0
    0.1417  -50.3343  -17.6265 C   0  0  0  0  0  0  0  0  0  0  0  0
    0.1484  -51.5365  -18.2984 C   0  0  0  0  0  0  0  0  0  0  0  0
   -1.1872  -52.6593  -18.2027 Cl  0  0  0  0  0  0  0  0  0  0  0  0
    1.2169  -53.0658  -19.7565 N   0  0  0  0  0  0  0  0  0  0  0  0
    1.4219  -53.9813  -19.3568 H   0  0  0  0  0  0  0  0  0  0  0  0
   -1.1370  -55.0437  -23.5556 C   0  0  0  0  0  0  0  0  0  0  0  0
   -0.3444  -53.9259  -22.9769 C   0  0  0  0  0  0  0  0  0  0  0  0
    0.0643  -53.9827  -21.6738 N   0  0  0  0  0  0  0  0  0  0  0  0
    0.7902  -52.9892  -21.1361 C   0  0  0  0  0  0  0  0  0  0  0  0
    1.0864  -51.9571  -21.9322 N   0  0  0  0  0  0  0  0  0  0  0  0
    0.7284  -51.8307  -23.1976 C   0  0  0  0  0  0  0  0  0  0  0  0
   -0.0288  -52.8579  -23.7739 C   0  0  0  0  0  0  0  0  0  0  0  0
   -0.4235  -52.7058  -25.1719 C   0  0  0  0  0  0  0  0  0  0  0  0
   -1.6856  -52.1956  -25.4925 C   0  0  0  0  0  0  0  0  0  0  0  0
   -2.0949  -52.0501  -26.7950 C   0  0  0  0  0  0  0  0  0  0  0  0
   -1.2642  -52.4069  -27.8558 C   0  0  0  0  0  0  0  0  0  0  0  0
   -1.3706  -52.3858  -29.2224 O   0  0  0  0  0  0  0  0  0  0  0  0
   -0.2616  -53.0170  -29.8038 C   0  0  0  0  0  0  0  0  0  0  0  0
    0.6355  -53.1973  -28.7394 O   0  0  0  0  0  0  0  0  0  0  0  0
   -0.0187  -52.9107  -27.5527 C   0  0  0  0  0  0  0  0  0  0  0  0
    0.3773  -53.0505  -26.2232 C   0  0  0  0  0  0  0  0  0  0  0  0
    3.5338  -51.3039  -19.9593 C   0  0  0  0  0  0  0  0  0  0  0  0
    4.3213  -50.1837  -20.5218 C   0  0  0  0  0  0  0  0  0  0  0  0
    4.8845  -50.3636  -21.7570 O   0  0  0  0  0  0  0  0  0  0  0  0
    4.0624  -50.0371  -22.8064 C   0  0  0  0  0  0  0  0  0  0  0  0
    4.2566  -48.5447  -23.0813 C   0  0  0  0  0  0  0  0  0  0  0  0
    5.3035  -48.5504  -24.1462 C   0  0  0  0  0  0  0  0  0  0  0  0
    5.5830  -49.8551  -24.4697 O   0  0  0  0  0  0  0  0  0  0  0  0
    4.4663  -50.6253  -24.1188 C   0  0  0  0  0  0  0  0  0  0  0  0
    4.7979  -52.0391  -24.0825 C   0  0  0  0  0  0  0  0  0  0  0  0
    6.1492  -52.4436  -24.0172 N   0  0  0  0  0  0  0  0  0  0  0  0
    3.9036  -52.9091  -24.1082 O   0  0  0  0  0  0  0  0  0  0  0  0
    6.8670  -51.8371  -24.4652 H   0  0  0  0  0  0  0  0  0  0  0  0
    6.4915  -53.3107  -23.5515 H   0  0  0  0  0  0  0  0  0  0  0  0
 10 11  1  0  0  0
 11 12  2  0  0  0
 12 13  1  0  0  0
 13  8  1  0  0  0
  8  1  1  0  0  0
  1  2  1  0  0  0
  2 26  1  0  0  0
 26 27  1  0  0  0
 27 28  1  0  0  0
 28 29  1  0  0  0
 29 30  1  0  0  0
 30 31  1  0  0  0
 31 32  1  0  0  0
 32 33  1  0  0  0
 33 34  1  0  0  0
 34 35  1  0  0  0
 34 36  2  0  0  0
  2  3  2  0  0  0
  3  4  1  0  0  0
  4  5  2  0  0  0
  5  6  1  0  0  0
  6  7  1  0  0  0
 13 14  2  0  0  0
 14 15  1  0  0  0
 15 16  2  0  0  0
 16 17  1  0  0  0
 17 18  2  0  0  0
 18 19  1  0  0  0
 19 20  2  0  0  0
 20 21  1  0  0  0
 21 22  1  0  0  0
 22 23  1  0  0  0
 23 24  1  0  0  0
 24 25  2  0  0  0
 16 11  1  0  0  0
 25 17  1  0  0  0
  6  1  2  0  0  0
 24 20  1  0  0  0
 33 29  1  0  0  0
  8  9  1  0  0  0
 35 37  1  0  0  0
 35 38  1  0  0  0
M  END
> <minimizedAffinity>
-8.21259

> <CNNscore>
0.4189441502

> <CNNaffinity>
7.1761002541

> <CNN_VS>
3.0063853264

> <CNNaffinity_variance>
0.1781927645

$$$$
[H]c1nc(N([H])c2c(Cl)c([H])c([H])c([H])c2C([H])([H])C([H])([H])O[C@@]2([H])C([H])([H])C([H])([H])O[C@@]2([H])C(=O)N([H])[H])nc(C([H])([H])[H])c1-c1c([H])c([H])c2c(c1[H])OC([H])([H])O2


 38 42  0  0  0  0  0  0  0  0999 V2000
   -0.2108  -51.8790  -17.6027 C   0  0  0  0  0  0  0  0  0  0  0  0
    0.8847  -51.0490  -17.6030 C   0  0  0  0  0  0  0  0  0  0  0  0
    0.8516  -49.8704  -16.8525 C   0  0  0  0  0  0  0  0  0  0  0  0
   -0.2739  -49.5818  -16.1393 C   0  0  0  0  0  0  0  0  0  0  0  0
   -1.3710  -50.4257  -16.1458 C   0  0  0  0  0  0  0  0  0  0  0  0
   -1.3743  -51.5949  -16.8737 C   0  0  0  0  0  0  0  0  0  0  0  0
   -2.7508  -52.6711  -16.8925 Cl  0  0  0  0  0  0  0  0  0  0  0  0
   -0.2921  -53.0929  -18.3539 N   0  0  0  0  0  0  0  0  0  0  0  0
   -0.4989  -54.0172  -17.9760 H   0  0  0  0  0  0  0  0  0  0  0  0
    0.8283  -50.2879  -22.1961 C   0  0  0  0  0  0  0  0  0  0  0  0
    0.4635  -51.6187  -21.6409 C   0  0  0  0  0  0  0  0  0  0  0  0
    0.2615  -51.7650  -20.2969 N   0  0  0  0  0  0  0  0  0  0  0  0
   -0.0796  -52.9555  -19.7777 C   0  0  0  0  0  0  0  0  0  0  0  0
   -0.2084  -53.9743  -20.6334 N   0  0  0  0  0  0  0  0  0  0  0  0
   -0.0301  -53.9113  -21.9410 C   0  0  0  0  0  0  0  0  0  0  0  0
    0.3257  -52.6773  -22.4988 C   0  0  0  0  0  0  0  0  0  0  0  0
    0.5252  -52.6199  -23.9446 C   0  0  0  0  0  0  0  0  0  0  0  0
   -0.5369  -52.2727  -24.7855 C   0  0  0  0  0  0  0  0  0  0  0  0
   -0.3891  -52.2203  -26.1496 C   0  0  0  0  0  0  0  0  0  0  0  0
    0.8323  -52.5125  -26.7541 C   0  0  0  0  0  0  0  0  0  0  0  0
    1.2929  -52.5502  -28.0447 O   0  0  0  0  0  0  0  0  0  0  0  0
    2.5965  -53.0658  -28.0784 C   0  0  0  0  0  0  0  0  0  0  0  0
    2.9921  -53.1035  -26.7321 O   0  0  0  0  0  0  0  0  0  0  0  0
    1.8859  -52.8560  -25.9362 C   0  0  0  0  0  0  0  0  0  0  0  0
    1.7145  -52.9033  -24.5534 C   0  0  0  0  0  0  0  0  0  0  0  0
    2.0912  -51.4097  -18.3669 C   0  0  0  0  0  0  0  0  0  0  0  0
    3.3541  -50.7435  -17.9763 C   0  0  0  0  0  0  0  0  0  0  0  0
    4.1689  -50.2932  -18.9806 O   0  0  0  0  0  0  0  0  0  0  0  0
    3.5265  -49.5522  -19.9408 C   0  0  0  0  0  0  0  0  0  0  0  0
    3.4927  -48.1057  -19.4438 C   0  0  0  0  0  0  0  0  0  0  0  0
    4.7135  -47.5229  -20.0763 C   0  0  0  0  0  0  0  0  0  0  0  0
    5.2877  -48.4832  -20.8721 O   0  0  0  0  0  0  0  0  0  0  0  0
    4.2851  -49.3987  -21.2185 C   0  0  0  0  0  0  0  0  0  0  0  0
    4.8579  -50.6258  -21.7443 C   0  0  0  0  0  0  0  0  0  0  0  0
    6.1884  -50.9745  -21.4254 N   0  0  0  0  0  0  0  0  0  0  0  0
    4.1904  -51.3828  -22.4781 O   0  0  0  0  0  0  0  0  0  0  0  0
    6.8728  -50.2074  -21.2611 H   0  0  0  0  0  0  0  0  0  0  0  0
    6.5465  -51.9494  -21.3398 H   0  0  0  0  0  0  0  0  0  0  0  0
 10 11  1  0  0  0
 11 12  2  0  0  0
 12 13  1  0  0  0
 13  8  1  0  0  0
  8  1  1  0  0  0
  1  2  1  0  0  0
  2 26  1  0  0  0
 26 27  1  0  0  0
 27 28  1  0  0  0
 28 29  1  0  0  0
 29 30  1  0  0  0
 30 31  1  0  0  0
 31 32  1  0  0  0
 32 33  1  0  0  0
 33 34  1  0  0  0
 34 35  1  0  0  0
 34 36  2  0  0  0
  2  3  2  0  0  0
  3  4  1  0  0  0
  4  5  2  0  0  0
  5  6  1  0  0  0
  6  7  1  0  0  0
 13 14  2  0  0  0
 14 15  1  0  0  0
 15 16  2  0  0  0
 16 17  1  0  0  0
 17 18  2  0  0  0
 18 19  1  0  0  0
 19 20  2  0  0  0
 20 21  1  0  0  0
 21 22  1  0  0  0
 22 23  1  0  0  0
 23 24  1  0  0  0
 24 25  2  0  0  0
 16 11  1  0  0  0
 25 17  1  0  0  0
  6  1  2  0  0  0
 24 20  1  0  0  0
 33 29  1  0  0  0
  8  9  1  0  0  0
 35 37  1  0  0  0
 35 38  1  0  0  0
M  END
> <minimizedAffinity>
-7.84985

> <CNNscore>
0.3922828138

> <CNNaffinity>
6.9381990433

> <CNN_VS>
2.7217361927

> <CNNaffinity_variance>
0.3152838349

$$$$
[H]c1nc(N([H])c2c(Cl)c([H])c([H])c([H])c2C([H])([H])C([H])([H])O[C@@]2([H])C([H])([H])C([H])([H])O[C@@]2([H])C(=O)N([H])[H])nc(C([H])([H])[H])c1-c1c([H])c([H])c2c(c1[H])OC([H])([H])O2


 38 42  0  0  0  0  0  0  0  0999 V2000
    4.1909  -50.5731  -23.6502 C   0  0  0  0  0  0  0  0  0  0  0  0
    3.7024  -51.0827  -24.8294 C   0  0  0  0  0  0  0  0  0  0  0  0
    3.4245  -50.2138  -25.8884 C   0  0  0  0  0  0  0  0  0  0  0  0
    3.6499  -48.8805  -25.7154 C   0  0  0  0  0  0  0  0  0  0  0  0
    4.1432  -48.3786  -24.5234 C   0  0  0  0  0  0  0  0  0  0  0  0
    4.4279  -49.2045  -23.4587 C   0  0  0  0  0  0  0  0  0  0  0  0
    5.0511  -48.5870  -21.9474 Cl  0  0  0  0  0  0  0  0  0  0  0  0
    4.4838  -51.3680  -22.4982 N   0  0  0  0  0  0  0  0  0  0  0  0
    5.3453  -51.8883  -22.3341 H   0  0  0  0  0  0  0  0  0  0  0  0
   -0.2569  -51.3452  -21.3101 C   0  0  0  0  0  0  0  0  0  0  0  0
    1.1707  -51.3887  -20.8947 C   0  0  0  0  0  0  0  0  0  0  0  0
    2.1573  -51.3670  -21.8405 N   0  0  0  0  0  0  0  0  0  0  0  0
    3.4520  -51.3941  -21.4853 C   0  0  0  0  0  0  0  0  0  0  0  0
    3.7195  -51.4432  -20.1766 N   0  0  0  0  0  0  0  0  0  0  0  0
    2.8235  -51.4670  -19.2059 C   0  0  0  0  0  0  0  0  0  0  0  0
    1.4689  -51.4391  -19.5589 C   0  0  0  0  0  0  0  0  0  0  0  0
    0.4866  -51.4708  -18.4783 C   0  0  0  0  0  0  0  0  0  0  0  0
   -0.3433  -52.5850  -18.3179 C   0  0  0  0  0  0  0  0  0  0  0  0
   -1.2858  -52.6444  -17.3211 C   0  0  0  0  0  0  0  0  0  0  0  0
   -1.4539  -51.5908  -16.4243 C   0  0  0  0  0  0  0  0  0  0  0  0
   -2.2762  -51.3476  -15.3547 O   0  0  0  0  0  0  0  0  0  0  0  0
   -2.1079  -50.0302  -14.9048 C   0  0  0  0  0  0  0  0  0  0  0  0
   -0.9719  -49.5698  -15.5889 O   0  0  0  0  0  0  0  0  0  0  0  0
   -0.6424  -50.4879  -16.5723 C   0  0  0  0  0  0  0  0  0  0  0  0
    0.3083  -50.4478  -17.5913 C   0  0  0  0  0  0  0  0  0  0  0  0
    3.4965  -52.5328  -24.9846 C   0  0  0  0  0  0  0  0  0  0  0  0
    2.4337  -52.9609  -25.9220 C   0  0  0  0  0  0  0  0  0  0  0  0
    1.3150  -53.5422  -25.3874 O   0  0  0  0  0  0  0  0  0  0  0  0
    0.4523  -52.6607  -24.7853 C   0  0  0  0  0  0  0  0  0  0  0  0
    0.0856  -51.6062  -25.8313 C   0  0  0  0  0  0  0  0  0  0  0  0
   -1.1762  -52.1566  -26.4100 C   0  0  0  0  0  0  0  0  0  0  0  0
   -1.5016  -53.3014  -25.7254 O   0  0  0  0  0  0  0  0  0  0  0  0
   -0.8924  -53.2272  -24.4657 C   0  0  0  0  0  0  0  0  0  0  0  0
   -0.8734  -54.5272  -23.8178 C   0  0  0  0  0  0  0  0  0  0  0  0
   -1.0452  -55.6992  -24.5863 N   0  0  0  0  0  0  0  0  0  0  0  0
   -0.7066  -54.6277  -22.5852 O   0  0  0  0  0  0  0  0  0  0  0  0
   -1.6365  -55.6451  -25.4415 H   0  0  0  0  0  0  0  0  0  0  0  0
   -0.6234  -56.6261  -24.3650 H   0  0  0  0  0  0  0  0  0  0  0  0
 10 11  1  0  0  0
 11 12  2  0  0  0
 12 13  1  0  0  0
 13  8  1  0  0  0
  8  1  1  0  0  0
  1  2  1  0  0  0
  2 26  1  0  0  0
 26 27  1  0  0  0
 27 28  1  0  0  0
 28 29  1  0  0  0
 29 30  1  0  0  0
 30 31  1  0  0  0
 31 32  1  0  0  0
 32 33  1  0  0  0
 33 34  1  0  0  0
 34 35  1  0  0  0
 34 36  2  0  0  0
  2  3  2  0  0  0
  3  4  1  0  0  0
  4  5  2  0  0  0
  5  6  1  0  0  0
  6  7  1  0  0  0
 13 14  2  0  0  0
 14 15  1  0  0  0
 15 16  2  0  0  0
 16 17  1  0  0  0
 17 18  2  0  0  0
 18 19  1  0  0  0
 19 20  2  0  0  0
 20 21  1  0  0  0
 21 22  1  0  0  0
 22 23  1  0  0  0
 23 24  1  0  0  0
 24 25  2  0  0  0
 16 11  1  0  0  0
 25 17  1  0  0  0
  6  1  2  0  0  0
 24 20  1  0  0  0
 33 29  1  0  0  0
  8  9  1  0  0  0
 35 37  1  0  0  0
 35 38  1  0  0  0
M  END
> <minimizedAffinity>
-8.11571

> <CNNscore>
0.3502829969

> <CNNaffinity>
7.2316079140

> <CNN_VS>
2.5331091881

> <CNNaffinity_variance>
0.1453454792

$$$$
[H]c1nc(N([H])c2c(Cl)c([H])c([H])c([H])c2C([H])([H])C([H])([H])O[C@@]2([H])C([H])([H])C([H])([H])O[C@@]2([H])C(=O)N([H])[H])nc(C([H])([H])[H])c1-c1c([H])c([H])c2c(c1[H])OC([H])([H])O2


 38 42  0  0  0  0  0  0  0  0999 V2000
   -0.0780  -50.6911  -16.4221 C   0  0  0  0  0  0  0  0  0  0  0  0
    1.0491  -49.9086  -16.3418 C   0  0  0  0  0  0  0  0  0  0  0  0
    0.9625  -48.6399  -15.7620 C   0  0  0  0  0  0  0  0  0  0  0  0
   -0.2454  -48.2181  -15.2912 C   0  0  0  0  0  0  0  0  0  0  0  0
   -1.3737  -49.0152  -15.3766 C   0  0  0  0  0  0  0  0  0  0  0  0
   -1.3262  -50.2703  -15.9417 C   0  0  0  0  0  0  0  0  0  0  0  0
   -2.7413  -51.2890  -16.0572 Cl  0  0  0  0  0  0  0  0  0  0  0  0
   -0.1061  -51.9908  -17.0176 N   0  0  0  0  0  0  0  0  0  0  0  0
   -0.1895  -52.8758  -16.5178 H   0  0  0  0  0  0  0  0  0  0  0  0
   -0.1663  -54.5122  -21.2039 C   0  0  0  0  0  0  0  0  0  0  0  0
   -0.0626  -53.2115  -20.4898 C   0  0  0  0  0  0  0  0  0  0  0  0
   -0.1339  -53.1749  -19.1253 N   0  0  0  0  0  0  0  0  0  0  0  0
   -0.0311  -52.0121  -18.4616 C   0  0  0  0  0  0  0  0  0  0  0  0
    0.1417  -50.9091  -19.1967 N   0  0  0  0  0  0  0  0  0  0  0  0
    0.2201  -50.8643  -20.5148 C   0  0  0  0  0  0  0  0  0  0  0  0
    0.1149  -52.0680  -21.2223 C   0  0  0  0  0  0  0  0  0  0  0  0
    0.1979  -52.0067  -22.6793 C   0  0  0  0  0  0  0  0  0  0  0  0
    1.2225  -51.2791  -23.2931 C   0  0  0  0  0  0  0  0  0  0  0  0
    1.3245  -51.1895  -24.6594 C   0  0  0  0  0  0  0  0  0  0  0  0
    0.4060  -51.8239  -25.4940 C   0  0  0  0  0  0  0  0  0  0  0  0
    0.2354  -51.9264  -26.8503 O   0  0  0  0  0  0  0  0  0  0  0  0
   -0.9715  -52.5797  -27.1381 C   0  0  0  0  0  0  0  0  0  0  0  0
   -1.3984  -53.0863  -25.9005 O   0  0  0  0  0  0  0  0  0  0  0  0
   -0.6077  -52.5435  -24.9011 C   0  0  0  0  0  0  0  0  0  0  0  0
   -0.6933  -52.6216  -23.5118 C   0  0  0  0  0  0  0  0  0  0  0  0
    2.3409  -50.4115  -16.8395 C   0  0  0  0  0  0  0  0  0  0  0  0
    3.3609  -49.3990  -17.1941 C   0  0  0  0  0  0  0  0  0  0  0  0
    4.0202  -49.5548  -18.3842 O   0  0  0  0  0  0  0  0  0  0  0  0
    3.2886  -49.1930  -19.4877 C   0  0  0  0  0  0  0  0  0  0  0  0
    3.5224  -47.6977  -19.7109 C   0  0  0  0  0  0  0  0  0  0  0  0
    4.6509  -47.6941  -20.6890 C   0  0  0  0  0  0  0  0  0  0  0  0
    4.9393  -48.9950  -21.0200 O   0  0  0  0  0  0  0  0  0  0  0  0
    3.7887  -49.7571  -20.7773 C   0  0  0  0  0  0  0  0  0  0  0  0
    4.0990  -51.1759  -20.7483 C   0  0  0  0  0  0  0  0  0  0  0  0
    5.1568  -51.6813  -21.5352 N   0  0  0  0  0  0  0  0  0  0  0  0
    3.4428  -51.9620  -20.0350 O   0  0  0  0  0  0  0  0  0  0  0  0
    5.3723  -51.2045  -22.4353 H   0  0  0  0  0  0  0  0  0  0  0  0
    5.7472  -52.5030  -21.2860 H   0  0  0  0  0  0  0  0  0  0  0  0
 10 11  1  0  0  0
 11 12  2  0  0  0
 12 13  1  0  0  0
 13  8  1  0  0  0
  8  1  1  0  0  0
  1  2  1  0  0  0
  2 26  1  0  0  0
 26 27  1  0  0  0
 27 28  1  0  0  0
 28 29  1  0  0  0
 29 30  1  0  0  0
 30 31  1  0  0  0
 31 32  1  0  0  0
 32 33  1  0  0  0
 33 34  1  0  0  0
 34 35  1  0  0  0
 34 36  2  0  0  0
  2  3  2  0  0  0
  3  4  1  0  0  0
  4  5  2  0  0  0
  5  6  1  0  0  0
  6  7  1  0  0  0
 13 14  2  0  0  0
 14 15  1  0  0  0
 15 16  2  0  0  0
 16 17  1  0  0  0
 17 18  2  0  0  0
 18 19  1  0  0  0
 19 20  2  0  0  0
 20 21  1  0  0  0
 21 22  1  0  0  0
 22 23  1  0  0  0
 23 24  1  0  0  0
 24 25  2  0  0  0
 16 11  1  0  0  0
 25 17  1  0  0  0
  6  1  2  0  0  0
 24 20  1  0  0  0
 33 29  1  0  0  0
  8  9  1  0  0  0
 35 37  1  0  0  0
 35 38  1  0  0  0
M  END
> <minimizedAffinity>
-7.57773

> <CNNscore>
0.2297101021

> <CNNaffinity>
6.5805153847

> <CNN_VS>
1.5116108656

> <CNNaffinity_variance>
0.2450613678

$$$$
[H]c1nc(N([H])c2c(Cl)c([H])c([H])c([H])c2C([H])([H])C([H])([H])O[C@@]2([H])C([H])([H])C([H])([H])O[C@@]2([H])C(=O)N([H])[H])nc(C([H])([H])[H])c1-c1c([H])c([H])c2c(c1[H])OC([H])([H])O2


 38 42  0  0  0  0  0  0  0  0999 V2000
    1.7365  -51.2229  -18.9957 C   0  0  0  0  0  0  0  0  0  0  0  0
    0.6222  -50.8940  -18.2613 C   0  0  0  0  0  0  0  0  0  0  0  0
    0.5822  -49.6701  -17.5877 C   0  0  0  0  0  0  0  0  0  0  0  0
    1.6570  -48.8368  -17.6831 C   0  0  0  0  0  0  0  0  0  0  0  0
    2.7735  -49.1781  -18.4265 C   0  0  0  0  0  0  0  0  0  0  0  0
    2.8484  -50.3755  -19.1028 C   0  0  0  0  0  0  0  0  0  0  0  0
    4.2504  -50.8215  -20.0456 Cl  0  0  0  0  0  0  0  0  0  0  0  0
    1.8916  -52.4573  -19.7005 N   0  0  0  0  0  0  0  0  0  0  0  0
    2.3167  -53.3074  -19.3310 H   0  0  0  0  0  0  0  0  0  0  0  0
   -0.8998  -54.5672  -23.1125 C   0  0  0  0  0  0  0  0  0  0  0  0
    0.0208  -53.4729  -22.7033 C   0  0  0  0  0  0  0  0  0  0  0  0
    0.5244  -53.4445  -21.4328 N   0  0  0  0  0  0  0  0  0  0  0  0
    1.3657  -52.4715  -21.0475 C   0  0  0  0  0  0  0  0  0  0  0  0
    1.6788  -51.5460  -21.9597 N   0  0  0  0  0  0  0  0  0  0  0  0
    1.2339  -51.5062  -23.2031 C   0  0  0  0  0  0  0  0  0  0  0  0
    0.3559  -52.5135  -23.6213 C   0  0  0  0  0  0  0  0  0  0  0  0
   -0.1338  -52.4573  -24.9962 C   0  0  0  0  0  0  0  0  0  0  0  0
   -1.4558  -52.0812  -25.2547 C   0  0  0  0  0  0  0  0  0  0  0  0
   -1.9537  -52.0289  -26.5333 C   0  0  0  0  0  0  0  0  0  0  0  0
   -1.1569  -52.3502  -27.6308 C   0  0  0  0  0  0  0  0  0  0  0  0
   -1.3457  -52.3960  -28.9879 O   0  0  0  0  0  0  0  0  0  0  0  0
   -0.2177  -52.9442  -29.6150 C   0  0  0  0  0  0  0  0  0  0  0  0
    0.7542  -52.9953  -28.6034 O   0  0  0  0  0  0  0  0  0  0  0  0
    0.1469  -52.7222  -27.3889 C   0  0  0  0  0  0  0  0  0  0  0  0
    0.6326  -52.7689  -26.0829 C   0  0  0  0  0  0  0  0  0  0  0  0
   -0.5286  -51.8114  -18.2042 C   0  0  0  0  0  0  0  0  0  0  0  0
   -0.9399  -52.2860  -16.8637 C   0  0  0  0  0  0  0  0  0  0  0  0
   -1.8284  -51.5138  -16.1641 O   0  0  0  0  0  0  0  0  0  0  0  0
   -1.6765  -51.5707  -14.8011 C   0  0  0  0  0  0  0  0  0  0  0  0
   -0.7635  -50.4097  -14.4023 C   0  0  0  0  0  0  0  0  0  0  0  0
   -1.7438  -49.3361  -14.0611 C   0  0  0  0  0  0  0  0  0  0  0  0
   -3.0097  -49.8558  -14.1737 O   0  0  0  0  0  0  0  0  0  0  0  0
   -2.9100  -51.2455  -14.0241 C   0  0  0  0  0  0  0  0  0  0  0  0
   -4.1184  -51.9079  -14.4837 C   0  0  0  0  0  0  0  0  0  0  0  0
   -4.0394  -53.1923  -15.0648 N   0  0  0  0  0  0  0  0  0  0  0  0
   -5.2333  -51.3583  -14.3734 O   0  0  0  0  0  0  0  0  0  0  0  0
   -3.1761  -53.4430  -15.5900 H   0  0  0  0  0  0  0  0  0  0  0  0
   -4.7838  -53.9195  -15.0106 H   0  0  0  0  0  0  0  0  0  0  0  0
 10 11  1  0  0  0
 11 12  2  0  0  0
 12 13  1  0  0  0
 13  8  1  0  0  0
  8  1  1  0  0  0
  1  2  1  0  0  0
  2 26  1  0  0  0
 26 27  1  0  0  0
 27 28  1  0  0  0
 28 29  1  0  0  0
 29 30  1  0  0  0
 30 31  1  0  0  0
 31 32  1  0  0  0
 32 33  1  0  0  0
 33 34  1  0  0  0
 34 35  1  0  0  0
 34 36  2  0  0  0
  2  3  2  0  0  0
  3  4  1  0  0  0
  4  5  2  0  0  0
  5  6  1  0  0  0
  6  7  1  0  0  0
 13 14  2  0  0  0
 14 15  1  0  0  0
 15 16  2  0  0  0
 16 17  1  0  0  0
 17 18  2  0  0  0
 18 19  1  0  0  0
 19 20  2  0  0  0
 20 21  1  0  0  0
 21 22  1  0  0  0
 22 23  1  0  0  0
 23 24  1  0  0  0
 24 25  2  0  0  0
 16 11  1  0  0  0
 25 17  1  0  0  0
  6  1  2  0  0  0
 24 20  1  0  0  0
 33 29  1  0  0  0
  8  9  1  0  0  0
 35 37  1  0  0  0
 35 38  1  0  0  0
M  END
> <minimizedAffinity>
-7.87383

> <CNNscore>
0.1902009547

> <CNNaffinity>
6.8806061745

> <CNN_VS>
1.3086978197

> <CNNaffinity_variance>
0.2831711769

$$$$
[H]c1nc(N([H])c2c(Cl)c([H])c([H])c([H])c2C([H])([H])C([H])([H])O[C@@]2([H])C([H])([H])C([H])([H])O[C@@]2([H])C(=O)N([H])[H])nc(C([H])([H])[H])c1-c1c([H])c([H])c2c(c1[H])OC([H])([H])O2


 38 42  0  0  0  0  0  0  0  0999 V2000
    1.5835  -51.4010  -18.8550 C   0  0  0  0  0  0  0  0  0  0  0  0
    2.7060  -50.6467  -19.0999 C   0  0  0  0  0  0  0  0  0  0  0  0
    2.7825  -49.3469  -18.5919 C   0  0  0  0  0  0  0  0  0  0  0  0
    1.7341  -48.8675  -17.8641 C   0  0  0  0  0  0  0  0  0  0  0  0
    0.6089  -49.6367  -17.6229 C   0  0  0  0  0  0  0  0  0  0  0  0
    0.4984  -50.9209  -18.1080 C   0  0  0  0  0  0  0  0  0  0  0  0
   -0.9150  -51.9050  -17.8124 Cl  0  0  0  0  0  0  0  0  0  0  0  0
    1.3917  -52.7293  -19.3482 N   0  0  0  0  0  0  0  0  0  0  0  0
    1.4807  -53.5876  -18.8048 H   0  0  0  0  0  0  0  0  0  0  0  0
   -1.1125  -54.9755  -22.8936 C   0  0  0  0  0  0  0  0  0  0  0  0
   -0.1890  -53.8922  -22.4623 C   0  0  0  0  0  0  0  0  0  0  0  0
    0.1741  -53.7881  -21.1486 N   0  0  0  0  0  0  0  0  0  0  0  0
    1.0156  -52.8242  -20.7413 C   0  0  0  0  0  0  0  0  0  0  0  0
    1.4716  -51.9845  -21.6761 N   0  0  0  0  0  0  0  0  0  0  0  0
    1.1673  -52.0210  -22.9612 C   0  0  0  0  0  0  0  0  0  0  0  0
    0.2913  -53.0201  -23.4027 C   0  0  0  0  0  0  0  0  0  0  0  0
   -0.0423  -53.0484  -24.8245 C   0  0  0  0  0  0  0  0  0  0  0  0
    0.9162  -53.4467  -25.7616 C   0  0  0  0  0  0  0  0  0  0  0  0
    0.6418  -53.4740  -27.1067 C   0  0  0  0  0  0  0  0  0  0  0  0
   -0.6103  -53.1039  -27.5946 C   0  0  0  0  0  0  0  0  0  0  0  0
   -1.1837  -53.0240  -28.8372 O   0  0  0  0  0  0  0  0  0  0  0  0
   -2.4521  -52.4330  -28.7477 C   0  0  0  0  0  0  0  0  0  0  0  0
   -2.7204  -52.3886  -27.3705 O   0  0  0  0  0  0  0  0  0  0  0  0
   -1.5627  -52.7096  -26.6812 C   0  0  0  0  0  0  0  0  0  0  0  0
   -1.2634  -52.6889  -25.3197 C   0  0  0  0  0  0  0  0  0  0  0  0
    3.8280  -51.2107  -19.8696 C   0  0  0  0  0  0  0  0  0  0  0  0
    4.5465  -50.2886  -20.7779 C   0  0  0  0  0  0  0  0  0  0  0  0
    4.2275  -50.3351  -22.1088 O   0  0  0  0  0  0  0  0  0  0  0  0
    5.2617  -50.7195  -22.9252 C   0  0  0  0  0  0  0  0  0  0  0  0
    5.1006  -52.2198  -23.1777 C   0  0  0  0  0  0  0  0  0  0  0  0
    4.3285  -52.2467  -24.4556 C   0  0  0  0  0  0  0  0  0  0  0  0
    4.1626  -50.9538  -24.8870 O   0  0  0  0  0  0  0  0  0  0  0  0
    5.1861  -50.1846  -24.3178 C   0  0  0  0  0  0  0  0  0  0  0  0
    4.8890  -48.7660  -24.4160 C   0  0  0  0  0  0  0  0  0  0  0  0
    3.6163  -48.2856  -24.0378 N   0  0  0  0  0  0  0  0  0  0  0  0
    5.7447  -47.9582  -24.8315 O   0  0  0  0  0  0  0  0  0  0  0  0
    2.7958  -48.9142  -24.1622 H   0  0  0  0  0  0  0  0  0  0  0  0
    3.4282  -47.3413  -23.6392 H   0  0  0  0  0  0  0  0  0  0  0  0
 10 11  1  0  0  0
 11 12  2  0  0  0
 12 13  1  0  0  0
 13  8  1  0  0  0
  8  1  1  0  0  0
  1  2  1  0  0  0
  2 26  1  0  0  0
 26 27  1  0  0  0
 27 28  1  0  0  0
 28 29  1  0  0  0
 29 30  1  0  0  0
 30 31  1  0  0  0
 31 32  1  0  0  0
 32 33  1  0  0  0
 33 34  1  0  0  0
 34 35  1  0  0  0
 34 36  2  0  0  0
  2  3  2  0  0  0
  3  4  1  0  0  0
  4  5  2  0  0  0
  5  6  1  0  0  0
  6  7  1  0  0  0
 13 14  2  0  0  0
 14 15  1  0  0  0
 15 16  2  0  0  0
 16 17  1  0  0  0
 17 18  2  0  0  0
 18 19  1  0  0  0
 19 20  2  0  0  0
 20 21  1  0  0  0
 21 22  1  0  0  0
 22 23  1  0  0  0
 23 24  1  0  0  0
 24 25  2  0  0  0
 16 11  1  0  0  0
 25 17  1  0  0  0
  6  1  2  0  0  0
 24 20  1  0  0  0
 33 29  1  0  0  0
  8  9  1  0  0  0
 35 37  1  0  0  0
 35 38  1  0  0  0
M  END
> <minimizedAffinity>
-7.50811

> <CNNscore>
0.1560931355

> <CNNaffinity>
6.8491058350

> <CNN_VS>
1.0690983534

> <CNNaffinity_variance>
0.1684481651

$$$$
[H]c1nc(N([H])c2c(Cl)c([H])c([H])c([H])c2C([H])([H])C([H])([H])O[C@@]2([H])C([H])([H])C([H])([H])O[C@@]2([H])C(=O)N([H])[H])nc(C([H])([H])[H])c1-c1c([H])c([H])c2c(c1[H])OC([H])([H])O2


 38 42  0  0  0  0  0  0  0  0999 V2000
    0.7166  -52.6842  -24.0033 C   0  0  0  0  0  0  0  0  0  0  0  0
    1.2498  -51.5842  -24.6316 C   0  0  0  0  0  0  0  0  0  0  0  0
    0.5887  -51.0380  -25.7353 C   0  0  0  0  0  0  0  0  0  0  0  0
   -0.5718  -51.6180  -26.1541 C   0  0  0  0  0  0  0  0  0  0  0  0
   -1.1000  -52.7251  -25.5129 C   0  0  0  0  0  0  0  0  0  0  0  0
   -0.4760  -53.2904  -24.4230 C   0  0  0  0  0  0  0  0  0  0  0  0
   -1.1296  -54.6878  -23.6022 Cl  0  0  0  0  0  0  0  0  0  0  0  0
    1.3233  -53.3360  -22.8845 N   0  0  0  0  0  0  0  0  0  0  0  0
    1.9563  -54.1342  -22.9286 H   0  0  0  0  0  0  0  0  0  0  0  0
    2.7695  -51.0365  -18.8216 C   0  0  0  0  0  0  0  0  0  0  0  0
    1.6855  -51.6580  -19.6285 C   0  0  0  0  0  0  0  0  0  0  0  0
    1.9688  -52.1948  -20.8532 N   0  0  0  0  0  0  0  0  0  0  0  0
    1.0064  -52.7704  -21.5918 C   0  0  0  0  0  0  0  0  0  0  0  0
   -0.2251  -52.7892  -21.0725 N   0  0  0  0  0  0  0  0  0  0  0  0
   -0.5759  -52.2925  -19.8995 C   0  0  0  0  0  0  0  0  0  0  0  0
    0.4156  -51.6889  -19.1165 C   0  0  0  0  0  0  0  0  0  0  0  0
    0.0162  -51.1387  -17.8238 C   0  0  0  0  0  0  0  0  0  0  0  0
   -0.7037  -51.9256  -16.9192 C   0  0  0  0  0  0  0  0  0  0  0  0
   -1.1061  -51.4379  -15.7004 C   0  0  0  0  0  0  0  0  0  0  0  0
   -0.8114  -50.1316  -15.3138 C   0  0  0  0  0  0  0  0  0  0  0  0
   -1.0606  -49.3678  -14.2030 O   0  0  0  0  0  0  0  0  0  0  0  0
   -0.6521  -48.0448  -14.4240 C   0  0  0  0  0  0  0  0  0  0  0  0
    0.0800  -48.1004  -15.6204 O   0  0  0  0  0  0  0  0  0  0  0  0
   -0.1029  -49.3468  -16.1963 C   0  0  0  0  0  0  0  0  0  0  0  0
    0.2961  -49.8615  -17.4290 C   0  0  0  0  0  0  0  0  0  0  0  0
    2.4927  -50.9718  -24.1322 C   0  0  0  0  0  0  0  0  0  0  0  0
    3.7655  -51.5757  -24.5870 C   0  0  0  0  0  0  0  0  0  0  0  0
    4.9017  -51.2544  -23.8935 O   0  0  0  0  0  0  0  0  0  0  0  0
    4.7368  -50.2514  -22.9711 C   0  0  0  0  0  0  0  0  0  0  0  0
    5.2346  -50.7899  -21.6285 C   0  0  0  0  0  0  0  0  0  0  0  0
    6.6533  -50.3243  -21.6046 C   0  0  0  0  0  0  0  0  0  0  0  0
    6.8786  -49.5689  -22.7288 O   0  0  0  0  0  0  0  0  0  0  0  0
    5.6400  -49.0770  -23.1617 C   0  0  0  0  0  0  0  0  0  0  0  0
    5.7231  -48.5803  -24.5243 C   0  0  0  0  0  0  0  0  0  0  0  0
    6.5542  -49.2320  -25.4615 N   0  0  0  0  0  0  0  0  0  0  0  0
    5.0683  -47.5809  -24.8842 O   0  0  0  0  0  0  0  0  0  0  0  0
    7.4161  -49.7007  -25.1132 H   0  0  0  0  0  0  0  0  0  0  0  0
    6.3734  -49.2830  -26.4865 H   0  0  0  0  0  0  0  0  0  0  0  0
 10 11  1  0  0  0
 11 12  2  0  0  0
 12 13  1  0  0  0
 13  8  1  0  0  0
  8  1  1  0  0  0
  1  2  1  0  0  0
  2 26  1  0  0  0
 26 27  1  0  0  0
 27 28  1  0  0  0
 28 29  1  0  0  0
 29 30  1  0  0  0
 30 31  1  0  0  0
 31 32  1  0  0  0
 32 33  1  0  0  0
 33 34  1  0  0  0
 34 35  1  0  0  0
 34 36  2  0  0  0
  2  3  2  0  0  0
  3  4  1  0  0  0
  4  5  2  0  0  0
  5  6  1  0  0  0
  6  7  1  0  0  0
 13 14  2  0  0  0
 14 15  1  0  0  0
 15 16  2  0  0  0
 16 17  1  0  0  0
 17 18  2  0  0  0
 18 19  1  0  0  0
 19 20  2  0  0  0
 20 21  1  0  0  0
 21 22  1  0  0  0
 22 23  1  0  0  0
 23 24  1  0  0  0
 24 25  2  0  0  0
 16 11  1  0  0  0
 25 17  1  0  0  0
  6  1  2  0  0  0
 24 20  1  0  0  0
 33 29  1  0  0  0
  8  9  1  0  0  0
 35 37  1  0  0  0
 35 38  1  0  0  0
M  END
> <minimizedAffinity>
-6.79480

> <CNNscore>
0.1404991746

> <CNNaffinity>
6.5765151978

> <CNN_VS>
0.9239949584

> <CNNaffinity_variance>
0.3215616941

$$$$
[H]c1nc(N([H])c2c(Cl)c([H])c([H])c([H])c2C([H])([H])C([H])([H])O[C@@]2([H])C([H])([H])C([H])([H])O[C@@]2([H])C(=O)N([H])[H])nc(C([H])([H])[H])c1-c1c([H])c([H])c2c(c1[H])OC([H])([H])O2


 38 42  0  0  0  0  0  0  0  0999 V2000
    1.6465  -51.3377  -19.0269 C   0  0  0  0  0  0  0  0  0  0  0  0
    0.7381  -50.7657  -18.1686 C   0  0  0  0  0  0  0  0  0  0  0  0
    1.0117  -49.5105  -17.6182 C   0  0  0  0  0  0  0  0  0  0  0  0
    2.1783  -48.8903  -17.9543 C   0  0  0  0  0  0  0  0  0  0  0  0
    3.0855  -49.4755  -18.8206 C   0  0  0  0  0  0  0  0  0  0  0  0
    2.8497  -50.7111  -19.3815 C   0  0  0  0  0  0  0  0  0  0  0  0
    3.9844  -51.4636  -20.4768 Cl  0  0  0  0  0  0  0  0  0  0  0  0
    1.4780  -52.6258  -19.6243 N   0  0  0  0  0  0  0  0  0  0  0  0
    1.6384  -53.5228  -19.1666 H   0  0  0  0  0  0  0  0  0  0  0  0
   -1.0103  -54.7669  -23.2452 C   0  0  0  0  0  0  0  0  0  0  0  0
   -0.1845  -53.6331  -22.7500 C   0  0  0  0  0  0  0  0  0  0  0  0
    0.2589  -53.6259  -21.4570 N   0  0  0  0  0  0  0  0  0  0  0  0
    1.0149  -52.6172  -20.9943 C   0  0  0  0  0  0  0  0  0  0  0  0
    1.3055  -51.6353  -21.8535 N   0  0  0  0  0  0  0  0  0  0  0  0
    0.9149  -51.5719  -23.1141 C   0  0  0  0  0  0  0  0  0  0  0  0
    0.1261  -52.6158  -23.6126 C   0  0  0  0  0  0  0  0  0  0  0  0
   -0.3044  -52.5334  -25.0060 C   0  0  0  0  0  0  0  0  0  0  0  0
   -1.6099  -52.1376  -25.3141 C   0  0  0  0  0  0  0  0  0  0  0  0
   -2.0527  -52.0604  -26.6115 C   0  0  0  0  0  0  0  0  0  0  0  0
   -1.2140  -52.3752  -27.6793 C   0  0  0  0  0  0  0  0  0  0  0  0
   -1.3459  -52.3986  -29.0436 O   0  0  0  0  0  0  0  0  0  0  0  0
   -0.1987  -52.9512  -29.6311 C   0  0  0  0  0  0  0  0  0  0  0  0
    0.7289  -53.0290  -28.5804 O   0  0  0  0  0  0  0  0  0  0  0  0
    0.0740  -52.7665  -27.3885 C   0  0  0  0  0  0  0  0  0  0  0  0
    0.5036  -52.8383  -26.0640 C   0  0  0  0  0  0  0  0  0  0  0  0
   -0.5227  -51.4575  -17.8508 C   0  0  0  0  0  0  0  0  0  0  0  0
   -1.0139  -51.3467  -16.4586 C   0  0  0  0  0  0  0  0  0  0  0  0
   -2.0596  -52.1505  -16.0907 O   0  0  0  0  0  0  0  0  0  0  0  0
   -3.1862  -51.4700  -15.7010 C   0  0  0  0  0  0  0  0  0  0  0  0
   -4.3738  -52.1253  -16.4087 C   0  0  0  0  0  0  0  0  0  0  0  0
   -4.8450  -53.1127  -15.3923 C   0  0  0  0  0  0  0  0  0  0  0  0
   -4.0827  -52.9639  -14.2601 O   0  0  0  0  0  0  0  0  0  0  0  0
   -3.5642  -51.6622  -14.2687 C   0  0  0  0  0  0  0  0  0  0  0  0
   -2.4709  -51.5297  -13.3214 C   0  0  0  0  0  0  0  0  0  0  0  0
   -1.7091  -52.6631  -12.9628 N   0  0  0  0  0  0  0  0  0  0  0  0
   -2.1906  -50.4240  -12.8153 O   0  0  0  0  0  0  0  0  0  0  0  0
   -2.1791  -53.5921  -12.9615 H   0  0  0  0  0  0  0  0  0  0  0  0
   -0.7019  -52.6461  -12.6958 H   0  0  0  0  0  0  0  0  0  0  0  0
 10 11  1  0  0  0
 11 12  2  0  0  0
 12 13  1  0  0  0
 13  8  1  0  0  0
  8  1  1  0  0  0
  1  2  1  0  0  0
  2 26  1  0  0  0
 26 27  1  0  0  0
 27 28  1  0  0  0
 28 29  1  0  0  0
 29 30  1  0  0  0
 30 31  1  0  0  0
 31 32  1  0  0  0
 32 33  1  0  0  0
 33 34  1  0  0  0
 34 35  1  0  0  0
 34 36  2  0  0  0
  2  3  2  0  0  0
  3  4  1  0  0  0
  4  5  2  0  0  0
  5  6  1  0  0  0
  6  7  1  0  0  0
 13 14  2  0  0  0
 14 15  1  0  0  0
 15 16  2  0  0  0
 16 17  1  0  0  0
 17 18  2  0  0  0
 18 19  1  0  0  0
 19 20  2  0  0  0
 20 21  1  0  0  0
 21 22  1  0  0  0
 22 23  1  0  0  0
 23 24  1  0  0  0
 24 25  2  0  0  0
 16 11  1  0  0  0
 25 17  1  0  0  0
  6  1  2  0  0  0
 24 20  1  0  0  0
 33 29  1  0  0  0
  8  9  1  0  0  0
 35 37  1  0  0  0
 35 38  1  0  0  0
M  END
> <minimizedAffinity>
-8.22873

> <CNNscore>
0.1356137097

> <CNNaffinity>
6.8230895996

> <CNN_VS>
0.9253044724

> <CNNaffinity_variance>
0.2612542808

$$$$
[H]c1nc(N([H])c2c(Cl)c([H])c([H])c([H])c2C([H])([H])C([H])([H])O[C@@]2([H])C([H])([H])C([H])([H])O[C@@]2([H])C(=O)N([H])[H])nc(C([H])([H])[H])c1-c1c([H])c([H])c2c(c1[H])OC([H])([H])O2


 38 42  0  0  0  0  0  0  0  0999 V2000
    1.6402  -50.3825  -16.8219 C   0  0  0  0  0  0  0  0  0  0  0  0
    3.0140  -50.3747  -16.8624 C   0  0  0  0  0  0  0  0  0  0  0  0
    3.7337  -50.9697  -15.8225 C   0  0  0  0  0  0  0  0  0  0  0  0
    3.0440  -51.5431  -14.7957 C   0  0  0  0  0  0  0  0  0  0  0  0
    1.6602  -51.5458  -14.7659 C   0  0  0  0  0  0  0  0  0  0  0  0
    0.9183  -50.9688  -15.7726 C   0  0  0  0  0  0  0  0  0  0  0  0
   -0.8290  -50.9638  -15.7501 Cl  0  0  0  0  0  0  0  0  0  0  0  0
    0.8093  -49.7812  -17.8181 N   0  0  0  0  0  0  0  0  0  0  0  0
    0.3814  -48.8573  -17.7618 H   0  0  0  0  0  0  0  0  0  0  0  0
    0.4925  -54.1609  -19.9639 C   0  0  0  0  0  0  0  0  0  0  0  0
    0.4371  -52.6776  -20.0589 C   0  0  0  0  0  0  0  0  0  0  0  0
    0.6327  -51.9147  -18.9418 N   0  0  0  0  0  0  0  0  0  0  0  0
    0.5979  -50.5740  -19.0090 C   0  0  0  0  0  0  0  0  0  0  0  0
    0.3646  -50.0342  -20.2094 N   0  0  0  0  0  0  0  0  0  0  0  0
    0.1663  -50.7033  -21.3313 C   0  0  0  0  0  0  0  0  0  0  0  0
    0.1996  -52.1021  -21.2788 C   0  0  0  0  0  0  0  0  0  0  0  0
   -0.0257  -52.8321  -22.5237 C   0  0  0  0  0  0  0  0  0  0  0  0
   -0.7750  -54.0129  -22.5182 C   0  0  0  0  0  0  0  0  0  0  0  0
   -0.9969  -54.7315  -23.6670 C   0  0  0  0  0  0  0  0  0  0  0  0
   -0.4814  -54.3102  -24.8916 C   0  0  0  0  0  0  0  0  0  0  0  0
   -0.5213  -54.7847  -26.1771 O   0  0  0  0  0  0  0  0  0  0  0  0
    0.3175  -54.0207  -27.0011 C   0  0  0  0  0  0  0  0  0  0  0  0
    0.6703  -52.9151  -26.2114 O   0  0  0  0  0  0  0  0  0  0  0  0
    0.2584  -53.1487  -24.9097 C   0  0  0  0  0  0  0  0  0  0  0  0
    0.4719  -52.4341  -23.7317 C   0  0  0  0  0  0  0  0  0  0  0  0
    3.7212  -49.7669  -18.0025 C   0  0  0  0  0  0  0  0  0  0  0  0
    4.0446  -50.6569  -19.1404 C   0  0  0  0  0  0  0  0  0  0  0  0
    4.6940  -50.1039  -20.2117 O   0  0  0  0  0  0  0  0  0  0  0  0
    3.9188  -49.9723  -21.3367 C   0  0  0  0  0  0  0  0  0  0  0  0
    3.3231  -48.5635  -21.3092 C   0  0  0  0  0  0  0  0  0  0  0  0
    4.3055  -47.7861  -22.1219 C   0  0  0  0  0  0  0  0  0  0  0  0
    5.2561  -48.6554  -22.5973 O   0  0  0  0  0  0  0  0  0  0  0  0
    4.6849  -49.9347  -22.6185 C   0  0  0  0  0  0  0  0  0  0  0  0
    5.7053  -50.9596  -22.7549 C   0  0  0  0  0  0  0  0  0  0  0  0
    5.3744  -52.3153  -22.5396 N   0  0  0  0  0  0  0  0  0  0  0  0
    6.8777  -50.6614  -23.0613 O   0  0  0  0  0  0  0  0  0  0  0  0
    4.6215  -52.5357  -21.8552 H   0  0  0  0  0  0  0  0  0  0  0  0
    5.8278  -53.1239  -23.0155 H   0  0  0  0  0  0  0  0  0  0  0  0
 10 11  1  0  0  0
 11 12  2  0  0  0
 12 13  1  0  0  0
 13  8  1  0  0  0
  8  1  1  0  0  0
  1  2  1  0  0  0
  2 26  1  0  0  0
 26 27  1  0  0  0
 27 28  1  0  0  0
 28 29  1  0  0  0
 29 30  1  0  0  0
 30 31  1  0  0  0
 31 32  1  0  0  0
 32 33  1  0  0  0
 33 34  1  0  0  0
 34 35  1  0  0  0
 34 36  2  0  0  0
  2  3  2  0  0  0
  3  4  1  0  0  0
  4  5  2  0  0  0
  5  6  1  0  0  0
  6  7  1  0  0  0
 13 14  2  0  0  0
 14 15  1  0  0  0
 15 16  2  0  0  0
 16 17  1  0  0  0
 17 18  2  0  0  0
 18 19  1  0  0  0
 19 20  2  0  0  0
 20 21  1  0  0  0
 21 22  1  0  0  0
 22 23  1  0  0  0
 23 24  1  0  0  0
 24 25  2  0  0  0
 16 11  1  0  0  0
 25 17  1  0  0  0
  6  1  2  0  0  0
 24 20  1  0  0  0
 33 29  1  0  0  0
  8  9  1  0  0  0
 35 37  1  0  0  0
 35 38  1  0  0  0
M  END
> <minimizedAffinity>
-7.49549

> <CNNscore>
0.1117067412

> <CNNaffinity>
6.2320899963

> <CNN_VS>
0.6961664557

> <CNNaffinity_variance>
0.3663564324

$$$$
[H]c1nc(N([H])c2c(C(=O)N3C([H])([H])C([H])([H])N([H])C([H])([H])[C@@]3([H])C([H])([H])[H])c([H])nc3c([H])c([H])c(C(N([H])[H])(C([H])([H])[H])C([H])([H])[H])c([H])c23)c2nc([H])c([H])c([H])c2n1


 38 42  0  0  0  0  0  0  0  0999 V2000
    1.0991  -52.7198  -26.1779 C   0  0  0  0  0  0  0  0  0  0  0  0
    2.3047  -52.9676  -26.7993 C   0  0  0  0  0  0  0  0  0  0  0  0
    3.5125  -52.7393  -26.1601 C   0  0  0  0  0  0  0  0  0  0  0  0
    3.5714  -52.2507  -24.8651 C   0  0  0  0  0  0  0  0  0  0  0  0
    4.7227  -52.0237  -24.2286 N   0  0  0  0  0  0  0  0  0  0  0  0
    4.7771  -51.5511  -22.9719 C   0  0  0  0  0  0  0  0  0  0  0  0
    3.5881  -51.2854  -22.3041 C   0  0  0  0  0  0  0  0  0  0  0  0
    2.3796  -51.5154  -22.9528 C   0  0  0  0  0  0  0  0  0  0  0  0
    2.3728  -52.0015  -24.2400 C   0  0  0  0  0  0  0  0  0  0  0  0
    1.1465  -52.2349  -24.8928 C   0  0  0  0  0  0  0  0  0  0  0  0
    3.5695  -50.8631  -20.9336 C   0  0  0  0  0  0  0  0  0  0  0  0
    3.5562  -51.8552  -20.0792 O   0  0  0  0  0  0  0  0  0  0  0  0
    3.5629  -49.6096  -20.3169 N   0  0  0  0  0  0  0  0  0  0  0  0
    3.4929  -48.2803  -20.8023 C   0  0  0  0  0  0  0  0  0  0  0  0
    4.7399  -47.4769  -20.4601 C   0  0  0  0  0  0  0  0  0  0  0  0
    5.0833  -47.6460  -19.0599 N   0  0  0  0  0  0  0  0  0  0  0  0
    5.1134  -49.0129  -18.6282 C   0  0  0  0  0  0  0  0  0  0  0  0
    3.7320  -49.6011  -18.8042 C   0  0  0  0  0  0  0  0  0  0  0  0
    2.7182  -48.7260  -18.1614 C   0  0  0  0  0  0  0  0  0  0  0  0
    6.0285  -47.2335  -18.9377 H   0  0  0  0  0  0  0  0  0  0  0  0
   -0.0467  -52.7252  -28.3809 C   0  0  0  0  0  0  0  0  0  0  0  0
   -0.1784  -52.9766  -26.8965 C   0  0  0  0  0  0  0  0  0  0  0  0
   -1.2867  -52.1109  -26.3137 C   0  0  0  0  0  0  0  0  0  0  0  0
   -0.6151  -54.3602  -26.7366 N   0  0  0  0  0  0  0  0  0  0  0  0
   -0.5245  -54.6338  -25.7333 H   0  0  0  0  0  0  0  0  0  0  0  0
    0.0684  -54.9492  -27.2912 H   0  0  0  0  0  0  0  0  0  0  0  0
    1.1175  -51.2247  -22.3411 N   0  0  0  0  0  0  0  0  0  0  0  0
    0.8042  -50.2396  -22.3491 H   0  0  0  0  0  0  0  0  0  0  0  0
    0.3367  -52.2552  -21.7358 C   0  0  0  0  0  0  0  0  0  0  0  0
   -0.0950  -53.3053  -22.4588 N   0  0  0  0  0  0  0  0  0  0  0  0
   -0.8180  -54.2663  -21.8601 C   0  0  0  0  0  0  0  0  0  0  0  0
   -1.1289  -54.2171  -20.5529 N   0  0  0  0  0  0  0  0  0  0  0  0
   -0.7255  -53.1961  -19.7892 C   0  0  0  0  0  0  0  0  0  0  0  0
   -1.0086  -53.0784  -18.4552 C   0  0  0  0  0  0  0  0  0  0  0  0
   -0.5764  -52.0078  -17.7094 C   0  0  0  0  0  0  0  0  0  0  0  0
    0.1620  -51.0416  -18.3562 C   0  0  0  0  0  0  0  0  0  0  0  0
    0.4442  -51.1523  -19.6716 N   0  0  0  0  0  0  0  0  0  0  0  0
    0.0254  -52.2002  -20.4169 C   0  0  0  0  0  0  0  0  0  0  0  0
 21 22  1  0  0  0
 22 23  1  0  0  0
 22 24  1  0  0  0
 22  1  1  0  0  0
  1  2  2  0  0  0
  2  3  1  0  0  0
  3  4  2  0  0  0
  4  5  1  0  0  0
  5  6  2  0  0  0
  6  7  1  0  0  0
  7 11  1  0  0  0
 11 12  2  0  0  0
 11 13  1  0  0  0
 13 14  1  0  0  0
 14 15  1  0  0  0
 15 16  1  0  0  0
 16 17  1  0  0  0
 17 18  1  0  0  0
 18 19  1  0  0  0
  7  8  2  0  0  0
  8 27  1  0  0  0
 27 29  1  0  0  0
 29 30  2  0  0  0
 30 31  1  0  0  0
 31 32  2  0  0  0
 32 33  1  0  0  0
 33 34  2  0  0  0
 34 35  1  0  0  0
 35 36  2  0  0  0
 36 37  1  0  0  0
 37 38  2  0  0  0
  8  9  1  0  0  0
  9 10  2  0  0  0
 10  1  1  0  0  0
  9  4  1  0  0  0
 18 13  1  0  0  0
 38 29  1  0  0  0
 38 33  1  0  0  0
 24 25  1  0  0  0
 24 26  1  0  0  0
 16 20  1  0  0  0
 27 28  1  0  0  0
M  END
> <minimizedAffinity>
-9.18427

> <CNNscore>
0.7851800919

> <CNNaffinity>
7.6841659546

> <CNN_VS>
6.0334539413

> <CNNaffinity_variance>
0.1477125287

$$$$
[H]c1nc(N([H])c2c(C(=O)N3C([H])([H])C([H])([H])N([H])C([H])([H])[C@@]3([H])C([H])([H])[H])c([H])nc3c([H])c([H])c(C(N([H])[H])(C([H])([H])[H])C([H])([H])[H])c([H])c23)c2nc([H])c([H])c([H])c2n1


 38 42  0  0  0  0  0  0  0  0999 V2000
    0.1408  -51.2711  -18.3332 C   0  0  0  0  0  0  0  0  0  0  0  0
   -0.5945  -52.4195  -18.1288 C   0  0  0  0  0  0  0  0  0  0  0  0
   -0.9530  -53.2496  -19.1784 C   0  0  0  0  0  0  0  0  0  0  0  0
   -0.5919  -52.9693  -20.4861 C   0  0  0  0  0  0  0  0  0  0  0  0
   -0.9247  -53.7543  -21.5133 N   0  0  0  0  0  0  0  0  0  0  0  0
   -0.5720  -53.4808  -22.7808 C   0  0  0  0  0  0  0  0  0  0  0  0
    0.1692  -52.3341  -23.0372 C   0  0  0  0  0  0  0  0  0  0  0  0
    0.5239  -51.5047  -21.9787 C   0  0  0  0  0  0  0  0  0  0  0  0
    0.1413  -51.8257  -20.6967 C   0  0  0  0  0  0  0  0  0  0  0  0
    0.5042  -50.9839  -19.6271 C   0  0  0  0  0  0  0  0  0  0  0  0
    0.6541  -52.0261  -24.3514 C   0  0  0  0  0  0  0  0  0  0  0  0
   -0.1888  -51.3290  -25.0713 O   0  0  0  0  0  0  0  0  0  0  0  0
    1.8424  -52.3150  -25.0268 N   0  0  0  0  0  0  0  0  0  0  0  0
    2.9878  -53.0850  -24.7067 C   0  0  0  0  0  0  0  0  0  0  0  0
    4.2503  -52.2369  -24.6396 C   0  0  0  0  0  0  0  0  0  0  0  0
    4.3444  -51.3753  -25.8038 N   0  0  0  0  0  0  0  0  0  0  0  0
    3.1444  -50.6429  -26.0854 C   0  0  0  0  0  0  0  0  0  0  0  0
    2.0368  -51.6309  -26.3725 C   0  0  0  0  0  0  0  0  0  0  0  0
    2.4757  -52.6048  -27.4049 C   0  0  0  0  0  0  0  0  0  0  0  0
    5.1115  -50.7026  -25.6098 H   0  0  0  0  0  0  0  0  0  0  0  0
    1.7269  -50.9210  -16.4551 C   0  0  0  0  0  0  0  0  0  0  0  0
    0.5067  -50.4034  -17.1810 C   0  0  0  0  0  0  0  0  0  0  0  0
   -0.6683  -50.2919  -16.2194 C   0  0  0  0  0  0  0  0  0  0  0  0
    0.8126  -49.0423  -17.6104 N   0  0  0  0  0  0  0  0  0  0  0  0
    0.0813  -48.7234  -18.2836 H   0  0  0  0  0  0  0  0  0  0  0  0
    1.7290  -49.1005  -18.1382 H   0  0  0  0  0  0  0  0  0  0  0  0
    1.2503  -50.2858  -22.1743 N   0  0  0  0  0  0  0  0  0  0  0  0
    0.7026  -49.4423  -22.4133 H   0  0  0  0  0  0  0  0  0  0  0  0
    2.6725  -50.2479  -22.0558 C   0  0  0  0  0  0  0  0  0  0  0  0
    3.3317  -51.2054  -21.3772 N   0  0  0  0  0  0  0  0  0  0  0  0
    4.6712  -51.1507  -21.2920 C   0  0  0  0  0  0  0  0  0  0  0  0
    5.3841  -50.1654  -21.8652 N   0  0  0  0  0  0  0  0  0  0  0  0
    4.7790  -49.1893  -22.5504 C   0  0  0  0  0  0  0  0  0  0  0  0
    5.4398  -48.1541  -23.1550 C   0  0  0  0  0  0  0  0  0  0  0  0
    4.7756  -47.1691  -23.8461 C   0  0  0  0  0  0  0  0  0  0  0  0
    3.4026  -47.2572  -23.9125 C   0  0  0  0  0  0  0  0  0  0  0  0
    2.7456  -48.2757  -23.3182 N   0  0  0  0  0  0  0  0  0  0  0  0
    3.3867  -49.2512  -22.6355 C   0  0  0  0  0  0  0  0  0  0  0  0
 21 22  1  0  0  0
 22 23  1  0  0  0
 22 24  1  0  0  0
 22  1  1  0  0  0
  1  2  2  0  0  0
  2  3  1  0  0  0
  3  4  2  0  0  0
  4  5  1  0  0  0
  5  6  2  0  0  0
  6  7  1  0  0  0
  7 11  1  0  0  0
 11 12  2  0  0  0
 11 13  1  0  0  0
 13 14  1  0  0  0
 14 15  1  0  0  0
 15 16  1  0  0  0
 16 17  1  0  0  0
 17 18  1  0  0  0
 18 19  1  0  0  0
  7  8  2  0  0  0
  8 27  1  0  0  0
 27 29  1  0  0  0
 29 30  2  0  0  0
 30 31  1  0  0  0
 31 32  2  0  0  0
 32 33  1  0  0  0
 33 34  2  0  0  0
 34 35  1  0  0  0
 35 36  2  0  0  0
 36 37  1  0  0  0
 37 38  2  0  0  0
  8  9  1  0  0  0
  9 10  2  0  0  0
 10  1  1  0  0  0
  9  4  1  0  0  0
 18 13  1  0  0  0
 38 29  1  0  0  0
 38 33  1  0  0  0
 24 25  1  0  0  0
 24 26  1  0  0  0
 16 20  1  0  0  0
 27 28  1  0  0  0
M  END
> <minimizedAffinity>
-8.31259

> <CNNscore>
0.3463841677

> <CNNaffinity>
7.1145591736

> <CNN_VS>
2.4643707275

> <CNNaffinity_variance>
0.1186027154

$$$$
[H]c1nc(N([H])c2c(C(=O)N3C([H])([H])C([H])([H])N([H])C([H])([H])[C@@]3([H])C([H])([H])[H])c([H])nc3c([H])c([H])c(C(N([H])[H])(C([H])([H])[H])C([H])([H])[H])c([H])c23)c2nc([H])c([H])c([H])c2n1


 38 42  0  0  0  0  0  0  0  0999 V2000
    0.9862  -52.4406  -25.8085 C   0  0  0  0  0  0  0  0  0  0  0  0
    2.0338  -52.4381  -26.7049 C   0  0  0  0  0  0  0  0  0  0  0  0
    3.1483  -51.6365  -26.5183 C   0  0  0  0  0  0  0  0  0  0  0  0
    3.2678  -50.7970  -25.4228 C   0  0  0  0  0  0  0  0  0  0  0  0
    4.3320  -50.0165  -25.2214 N   0  0  0  0  0  0  0  0  0  0  0  0
    4.4461  -49.2041  -24.1572 C   0  0  0  0  0  0  0  0  0  0  0  0
    3.4155  -49.1713  -23.2260 C   0  0  0  0  0  0  0  0  0  0  0  0
    2.2991  -49.9774  -23.4209 C   0  0  0  0  0  0  0  0  0  0  0  0
    2.2266  -50.7948  -24.5253 C   0  0  0  0  0  0  0  0  0  0  0  0
    1.0949  -51.6111  -24.7180 C   0  0  0  0  0  0  0  0  0  0  0  0
    3.5081  -48.3948  -22.0237 C   0  0  0  0  0  0  0  0  0  0  0  0
    2.4135  -47.7346  -21.7401 O   0  0  0  0  0  0  0  0  0  0  0  0
    4.5258  -48.1950  -21.0877 N   0  0  0  0  0  0  0  0  0  0  0  0
    5.8763  -48.6155  -21.0054 C   0  0  0  0  0  0  0  0  0  0  0  0
    6.1284  -49.5061  -19.7967 C   0  0  0  0  0  0  0  0  0  0  0  0
    5.5523  -48.9150  -18.6027 N   0  0  0  0  0  0  0  0  0  0  0  0
    4.1922  -48.4899  -18.7611 C   0  0  0  0  0  0  0  0  0  0  0  0
    4.1453  -47.4238  -19.8318 C   0  0  0  0  0  0  0  0  0  0  0  0
    5.1412  -46.3612  -19.5389 C   0  0  0  0  0  0  0  0  0  0  0  0
    5.5931  -49.6448  -17.8650 H   0  0  0  0  0  0  0  0  0  0  0  0
    0.1111  -54.4186  -27.0280 C   0  0  0  0  0  0  0  0  0  0  0  0
   -0.1951  -53.3147  -26.0425 C   0  0  0  0  0  0  0  0  0  0  0  0
   -1.3697  -52.4814  -26.5359 C   0  0  0  0  0  0  0  0  0  0  0  0
   -0.6402  -53.9566  -24.8095 N   0  0  0  0  0  0  0  0  0  0  0  0
   -0.6682  -53.2465  -24.0448 H   0  0  0  0  0  0  0  0  0  0  0  0
    0.1077  -54.6641  -24.5609 H   0  0  0  0  0  0  0  0  0  0  0  0
    1.1817  -49.9635  -22.5247 N   0  0  0  0  0  0  0  0  0  0  0  0
    0.5994  -49.1096  -22.5088 H   0  0  0  0  0  0  0  0  0  0  0  0
    0.8984  -51.0806  -21.6823 C   0  0  0  0  0  0  0  0  0  0  0  0
    0.7695  -52.3167  -22.1994 N   0  0  0  0  0  0  0  0  0  0  0  0
    0.5145  -53.3511  -21.3812 C   0  0  0  0  0  0  0  0  0  0  0  0
    0.3823  -53.1955  -20.0522 N   0  0  0  0  0  0  0  0  0  0  0  0
    0.5005  -51.9893  -19.4871 C   0  0  0  0  0  0  0  0  0  0  0  0
    0.3737  -51.7565  -18.1442 C   0  0  0  0  0  0  0  0  0  0  0  0
    0.4989  -50.4976  -17.6070 C   0  0  0  0  0  0  0  0  0  0  0  0
    0.7600  -49.4610  -18.4756 C   0  0  0  0  0  0  0  0  0  0  0  0
    0.8860  -49.6846  -19.8009 N   0  0  0  0  0  0  0  0  0  0  0  0
    0.7653  -50.9178  -20.3424 C   0  0  0  0  0  0  0  0  0  0  0  0
 21 22  1  0  0  0
 22 23  1  0  0  0
 22 24  1  0  0  0
 22  1  1  0  0  0
  1  2  2  0  0  0
  2  3  1  0  0  0
  3  4  2  0  0  0
  4  5  1  0  0  0
  5  6  2  0  0  0
  6  7  1  0  0  0
  7 11  1  0  0  0
 11 12  2  0  0  0
 11 13  1  0  0  0
 13 14  1  0  0  0
 14 15  1  0  0  0
 15 16  1  0  0  0
 16 17  1  0  0  0
 17 18  1  0  0  0
 18 19  1  0  0  0
  7  8  2  0  0  0
  8 27  1  0  0  0
 27 29  1  0  0  0
 29 30  2  0  0  0
 30 31  1  0  0  0
 31 32  2  0  0  0
 32 33  1  0  0  0
 33 34  2  0  0  0
 34 35  1  0  0  0
 35 36  2  0  0  0
 36 37  1  0  0  0
 37 38  2  0  0  0
  8  9  1  0  0  0
  9 10  2  0  0  0
 10  1  1  0  0  0
  9  4  1  0  0  0
 18 13  1  0  0  0
 38 29  1  0  0  0
 38 33  1  0  0  0
 24 25  1  0  0  0
 24 26  1  0  0  0
 16 20  1  0  0  0
 27 28  1  0  0  0
M  END
> <minimizedAffinity>
-7.63634

> <CNNscore>
0.3401125371

> <CNNaffinity>
7.0731658936

> <CNN_VS>
2.4056723118

> <CNNaffinity_variance>
0.4330468178

$$$$
[H]c1nc(N([H])c2c(C(=O)N3C([H])([H])C([H])([H])N([H])C([H])([H])[C@@]3([H])C([H])([H])[H])c([H])nc3c([H])c([H])c(C(N([H])[H])(C([H])([H])[H])C([H])([H])[H])c([H])c23)c2nc([H])c([H])c([H])c2n1


 38 42  0  0  0  0  0  0  0  0999 V2000
    1.7281  -52.6087  -26.0993 C   0  0  0  0  0  0  0  0  0  0  0  0
    2.9718  -52.9938  -26.5532 C   0  0  0  0  0  0  0  0  0  0  0  0
    4.1109  -52.8262  -25.7826 C   0  0  0  0  0  0  0  0  0  0  0  0
    4.0594  -52.2637  -24.5176 C   0  0  0  0  0  0  0  0  0  0  0  0
    5.1428  -52.0931  -23.7565 N   0  0  0  0  0  0  0  0  0  0  0  0
    5.0901  -51.5485  -22.5292 C   0  0  0  0  0  0  0  0  0  0  0  0
    3.8589  -51.1441  -22.0282 C   0  0  0  0  0  0  0  0  0  0  0  0
    2.7201  -51.3139  -22.8082 C   0  0  0  0  0  0  0  0  0  0  0  0
    2.8223  -51.8776  -24.0592 C   0  0  0  0  0  0  0  0  0  0  0  0
    1.6662  -52.0495  -24.8453 C   0  0  0  0  0  0  0  0  0  0  0  0
    3.7159  -50.6364  -20.6945 C   0  0  0  0  0  0  0  0  0  0  0  0
    3.8718  -51.5474  -19.7670 O   0  0  0  0  0  0  0  0  0  0  0  0
    3.4444  -49.3680  -20.1757 N   0  0  0  0  0  0  0  0  0  0  0  0
    3.1296  -48.1174  -20.7624 C   0  0  0  0  0  0  0  0  0  0  0  0
    4.1835  -47.0603  -20.4632 C   0  0  0  0  0  0  0  0  0  0  0  0
    4.5105  -47.0569  -19.0490 N   0  0  0  0  0  0  0  0  0  0  0  0
    4.7953  -48.3560  -18.5135 C   0  0  0  0  0  0  0  0  0  0  0  0
    3.5625  -49.2175  -18.6657 C   0  0  0  0  0  0  0  0  0  0  0  0
    2.3774  -48.5167  -18.1077 C   0  0  0  0  0  0  0  0  0  0  0  0
    5.3521  -46.4576  -18.9439 H   0  0  0  0  0  0  0  0  0  0  0  0
   -0.6253  -51.9326  -26.5116 C   0  0  0  0  0  0  0  0  0  0  0  0
    0.5269  -52.8038  -26.9557 C   0  0  0  0  0  0  0  0  0  0  0  0
    0.1122  -54.2685  -26.9450 C   0  0  0  0  0  0  0  0  0  0  0  0
    0.8015  -52.4680  -28.3494 N   0  0  0  0  0  0  0  0  0  0  0  0
    1.7106  -52.8964  -28.6318 H   0  0  0  0  0  0  0  0  0  0  0  0
    0.9212  -51.4161  -28.3794 H   0  0  0  0  0  0  0  0  0  0  0  0
    1.4255  -50.8820  -22.3731 N   0  0  0  0  0  0  0  0  0  0  0  0
    1.0379  -50.0317  -22.8149 H   0  0  0  0  0  0  0  0  0  0  0  0
    0.7123  -51.5936  -21.3617 C   0  0  0  0  0  0  0  0  0  0  0  0
    0.7604  -51.1951  -20.0769 N   0  0  0  0  0  0  0  0  0  0  0  0
    0.0696  -51.8769  -19.1481 C   0  0  0  0  0  0  0  0  0  0  0  0
   -0.6750  -52.9527  -19.4580 N   0  0  0  0  0  0  0  0  0  0  0  0
   -0.7569  -53.3910  -20.7187 C   0  0  0  0  0  0  0  0  0  0  0  0
   -1.4906  -54.4800  -21.1053 C   0  0  0  0  0  0  0  0  0  0  0  0
   -1.5424  -54.8977  -22.4137 C   0  0  0  0  0  0  0  0  0  0  0  0
   -0.8216  -54.1750  -23.3386 C   0  0  0  0  0  0  0  0  0  0  0  0
   -0.0962  -53.1003  -22.9632 N   0  0  0  0  0  0  0  0  0  0  0  0
   -0.0368  -52.6786  -21.6797 C   0  0  0  0  0  0  0  0  0  0  0  0
 21 22  1  0  0  0
 22 23  1  0  0  0
 22 24  1  0  0  0
 22  1  1  0  0  0
  1  2  2  0  0  0
  2  3  1  0  0  0
  3  4  2  0  0  0
  4  5  1  0  0  0
  5  6  2  0  0  0
  6  7  1  0  0  0
  7 11  1  0  0  0
 11 12  2  0  0  0
 11 13  1  0  0  0
 13 14  1  0  0  0
 14 15  1  0  0  0
 15 16  1  0  0  0
 16 17  1  0  0  0
 17 18  1  0  0  0
 18 19  1  0  0  0
  7  8  2  0  0  0
  8 27  1  0  0  0
 27 29  1  0  0  0
 29 30  2  0  0  0
 30 31  1  0  0  0
 31 32  2  0  0  0
 32 33  1  0  0  0
 33 34  2  0  0  0
 34 35  1  0  0  0
 35 36  2  0  0  0
 36 37  1  0  0  0
 37 38  2  0  0  0
  8  9  1  0  0  0
  9 10  2  0  0  0
 10  1  1  0  0  0
  9  4  1  0  0  0
 18 13  1  0  0  0
 38 29  1  0  0  0
 38 33  1  0  0  0
 24 25  1  0  0  0
 24 26  1  0  0  0
 16 20  1  0  0  0
 27 28  1  0  0  0
M  END
> <minimizedAffinity>
-8.74350

> <CNNscore>
0.3291653395

> <CNNaffinity>
7.0621147156

> <CNN_VS>
2.3246033192

> <CNNaffinity_variance>
0.0839406997

$$$$
[H]c1nc(N([H])c2c(C(=O)N3C([H])([H])C([H])([H])N([H])C([H])([H])[C@@]3([H])C([H])([H])[H])c([H])nc3c([H])c([H])c(C(N([H])[H])(C([H])([H])[H])C([H])([H])[H])c([H])c23)c2nc([H])c([H])c([H])c2n1


 38 42  0  0  0  0  0  0  0  0999 V2000
   -0.2745  -53.5117  -24.8153 C   0  0  0  0  0  0  0  0  0  0  0  0
   -1.1649  -54.4093  -24.2652 C   0  0  0  0  0  0  0  0  0  0  0  0
   -1.1906  -54.6662  -22.9040 C   0  0  0  0  0  0  0  0  0  0  0  0
   -0.3242  -54.0354  -22.0262 C   0  0  0  0  0  0  0  0  0  0  0  0
   -0.3309  -54.2659  -20.7113 N   0  0  0  0  0  0  0  0  0  0  0  0
    0.5097  -53.6516  -19.8617 C   0  0  0  0  0  0  0  0  0  0  0  0
    1.4259  -52.7387  -20.3690 C   0  0  0  0  0  0  0  0  0  0  0  0
    1.4471  -52.4873  -21.7366 C   0  0  0  0  0  0  0  0  0  0  0  0
    0.5661  -53.1393  -22.5684 C   0  0  0  0  0  0  0  0  0  0  0  0
    0.5895  -52.8804  -23.9528 C   0  0  0  0  0  0  0  0  0  0  0  0
    2.2925  -51.9827  -19.5120 C   0  0  0  0  0  0  0  0  0  0  0  0
    3.5551  -52.0489  -19.8527 O   0  0  0  0  0  0  0  0  0  0  0  0
    2.0707  -51.1869  -18.3854 N   0  0  0  0  0  0  0  0  0  0  0  0
    0.9230  -50.8839  -17.6118 C   0  0  0  0  0  0  0  0  0  0  0  0
    0.5768  -49.4019  -17.6529 C   0  0  0  0  0  0  0  0  0  0  0  0
    1.7609  -48.5980  -17.4112 N   0  0  0  0  0  0  0  0  0  0  0  0
    2.8920  -48.9719  -18.2091 C   0  0  0  0  0  0  0  0  0  0  0  0
    3.2660  -50.3971  -17.8714 C   0  0  0  0  0  0  0  0  0  0  0  0
    3.4126  -50.5523  -16.4013 C   0  0  0  0  0  0  0  0  0  0  0  0
    1.5007  -47.6178  -17.6346 H   0  0  0  0  0  0  0  0  0  0  0  0
    0.1295  -54.4925  -27.0604 C   0  0  0  0  0  0  0  0  0  0  0  0
   -0.2758  -53.2621  -26.2822 C   0  0  0  0  0  0  0  0  0  0  0  0
    0.6524  -52.1019  -26.6137 C   0  0  0  0  0  0  0  0  0  0  0  0
   -1.5996  -52.8740  -26.7592 N   0  0  0  0  0  0  0  0  0  0  0  0
   -1.9991  -52.1570  -26.1143 H   0  0  0  0  0  0  0  0  0  0  0  0
   -2.2033  -53.7412  -26.6858 H   0  0  0  0  0  0  0  0  0  0  0  0
    2.3917  -51.5911  -22.3335 N   0  0  0  0  0  0  0  0  0  0  0  0
    3.2037  -52.0123  -22.8149 H   0  0  0  0  0  0  0  0  0  0  0  0
    2.2194  -50.1763  -22.2513 C   0  0  0  0  0  0  0  0  0  0  0  0
    1.2702  -49.6441  -21.4591 N   0  0  0  0  0  0  0  0  0  0  0  0
    1.1386  -48.3089  -21.3924 C   0  0  0  0  0  0  0  0  0  0  0  0
    1.9279  -47.4770  -22.0944 N   0  0  0  0  0  0  0  0  0  0  0  0
    2.8859  -47.9533  -22.8966 C   0  0  0  0  0  0  0  0  0  0  0  0
    3.7216  -47.1669  -23.6429 C   0  0  0  0  0  0  0  0  0  0  0  0
    4.6908  -47.7007  -24.4583 C   0  0  0  0  0  0  0  0  0  0  0  0
    4.7967  -49.0733  -24.5020 C   0  0  0  0  0  0  0  0  0  0  0  0
    3.9753  -49.8539  -23.7684 N   0  0  0  0  0  0  0  0  0  0  0  0
    3.0180  -49.3418  -22.9622 C   0  0  0  0  0  0  0  0  0  0  0  0
 21 22  1  0  0  0
 22 23  1  0  0  0
 22 24  1  0  0  0
 22  1  1  0  0  0
  1  2  2  0  0  0
  2  3  1  0  0  0
  3  4  2  0  0  0
  4  5  1  0  0  0
  5  6  2  0  0  0
  6  7  1  0  0  0
  7 11  1  0  0  0
 11 12  2  0  0  0
 11 13  1  0  0  0
 13 14  1  0  0  0
 14 15  1  0  0  0
 15 16  1  0  0  0
 16 17  1  0  0  0
 17 18  1  0  0  0
 18 19  1  0  0  0
  7  8  2  0  0  0
  8 27  1  0  0  0
 27 29  1  0  0  0
 29 30  2  0  0  0
 30 31  1  0  0  0
 31 32  2  0  0  0
 32 33  1  0  0  0
 33 34  2  0  0  0
 34 35  1  0  0  0
 35 36  2  0  0  0
 36 37  1  0  0  0
 37 38  2  0  0  0
  8  9  1  0  0  0
  9 10  2  0  0  0
 10  1  1  0  0  0
  9  4  1  0  0  0
 18 13  1  0  0  0
 38 29  1  0  0  0
 38 33  1  0  0  0
 24 25  1  0  0  0
 24 26  1  0  0  0
 16 20  1  0  0  0
 27 28  1  0  0  0
M  END
> <minimizedAffinity>
-8.90866

> <CNNscore>
0.2796085179

> <CNNaffinity>
7.1171159744

> <CNN_VS>
1.9900062084

> <CNNaffinity_variance>
0.1420766264

$$$$
[H]c1nc(N([H])c2c(C(=O)N3C([H])([H])C([H])([H])N([H])C([H])([H])[C@@]3([H])C([H])([H])[H])c([H])nc3c([H])c([H])c(C(N([H])[H])(C([H])([H])[H])C([H])([H])[H])c([H])c23)c2nc([H])c([H])c([H])c2n1


 38 42  0  0  0  0  0  0  0  0999 V2000
    0.6115  -53.2053  -24.5461 C   0  0  0  0  0  0  0  0  0  0  0  0
   -0.5976  -53.7301  -24.1414 C   0  0  0  0  0  0  0  0  0  0  0  0
   -0.9803  -53.7315  -22.8098 C   0  0  0  0  0  0  0  0  0  0  0  0
   -0.1689  -53.2065  -21.8172 C   0  0  0  0  0  0  0  0  0  0  0  0
   -0.5164  -53.1959  -20.5283 N   0  0  0  0  0  0  0  0  0  0  0  0
    0.2718  -52.6848  -19.5675 C   0  0  0  0  0  0  0  0  0  0  0  0
    1.5006  -52.1447  -19.9262 C   0  0  0  0  0  0  0  0  0  0  0  0
    1.8787  -52.1483  -21.2645 C   0  0  0  0  0  0  0  0  0  0  0  0
    1.0380  -52.6818  -22.2142 C   0  0  0  0  0  0  0  0  0  0  0  0
    1.4239  -52.6818  -23.5689 C   0  0  0  0  0  0  0  0  0  0  0  0
    2.3533  -51.5045  -18.9670 C   0  0  0  0  0  0  0  0  0  0  0  0
    3.6268  -51.5866  -19.2601 O   0  0  0  0  0  0  0  0  0  0  0  0
    2.1085  -50.8083  -17.7808 N   0  0  0  0  0  0  0  0  0  0  0  0
    0.9384  -50.5348  -17.0300 C   0  0  0  0  0  0  0  0  0  0  0  0
    0.6448  -49.0434  -16.9460 C   0  0  0  0  0  0  0  0  0  0  0  0
    1.8435  -48.3106  -16.5813 N   0  0  0  0  0  0  0  0  0  0  0  0
    2.9956  -48.6517  -17.3635 C   0  0  0  0  0  0  0  0  0  0  0  0
    3.3058  -50.1152  -17.1461 C   0  0  0  0  0  0  0  0  0  0  0  0
    3.3813  -50.4110  -15.6922 C   0  0  0  0  0  0  0  0  0  0  0  0
    1.6268  -47.3048  -16.7222 H   0  0  0  0  0  0  0  0  0  0  0  0
    2.4841  -53.1111  -26.1740 C   0  0  0  0  0  0  0  0  0  0  0  0
    0.9888  -53.2219  -25.9854 C   0  0  0  0  0  0  0  0  0  0  0  0
    0.2816  -52.0929  -26.7222 C   0  0  0  0  0  0  0  0  0  0  0  0
    0.5685  -54.4592  -26.6359 N   0  0  0  0  0  0  0  0  0  0  0  0
   -0.4145  -54.6748  -26.3585 H   0  0  0  0  0  0  0  0  0  0  0  0
    1.1867  -55.2229  -26.2403 H   0  0  0  0  0  0  0  0  0  0  0  0
    3.1477  -51.6472  -21.7006 N   0  0  0  0  0  0  0  0  0  0  0  0
    3.9925  -52.0759  -21.2871 H   0  0  0  0  0  0  0  0  0  0  0  0
    3.2340  -50.5904  -22.6566 C   0  0  0  0  0  0  0  0  0  0  0  0
    3.5039  -50.8526  -23.9490 N   0  0  0  0  0  0  0  0  0  0  0  0
    3.5674  -49.8394  -24.8287 C   0  0  0  0  0  0  0  0  0  0  0  0
    3.3692  -48.5611  -24.4621 N   0  0  0  0  0  0  0  0  0  0  0  0
    3.0985  -48.2455  -23.1911 C   0  0  0  0  0  0  0  0  0  0  0  0
    2.8904  -46.9677  -22.7464 C   0  0  0  0  0  0  0  0  0  0  0  0
    2.6189  -46.6892  -21.4282 C   0  0  0  0  0  0  0  0  0  0  0  0
    2.5618  -47.7524  -20.5545 C   0  0  0  0  0  0  0  0  0  0  0  0
    2.7661  -49.0146  -20.9872 N   0  0  0  0  0  0  0  0  0  0  0  0
    3.0339  -49.3026  -22.2811 C   0  0  0  0  0  0  0  0  0  0  0  0
 21 22  1  0  0  0
 22 23  1  0  0  0
 22 24  1  0  0  0
 22  1  1  0  0  0
  1  2  2  0  0  0
  2  3  1  0  0  0
  3  4  2  0  0  0
  4  5  1  0  0  0
  5  6  2  0  0  0
  6  7  1  0  0  0
  7 11  1  0  0  0
 11 12  2  0  0  0
 11 13  1  0  0  0
 13 14  1  0  0  0
 14 15  1  0  0  0
 15 16  1  0  0  0
 16 17  1  0  0  0
 17 18  1  0  0  0
 18 19  1  0  0  0
  7  8  2  0  0  0
  8 27  1  0  0  0
 27 29  1  0  0  0
 29 30  2  0  0  0
 30 31  1  0  0  0
 31 32  2  0  0  0
 32 33  1  0  0  0
 33 34  2  0  0  0
 34 35  1  0  0  0
 35 36  2  0  0  0
 36 37  1  0  0  0
 37 38  2  0  0  0
  8  9  1  0  0  0
  9 10  2  0  0  0
 10  1  1  0  0  0
  9  4  1  0  0  0
 18 13  1  0  0  0
 38 29  1  0  0  0
 38 33  1  0  0  0
 24 25  1  0  0  0
 24 26  1  0  0  0
 16 20  1  0  0  0
 27 28  1  0  0  0
M  END
> <minimizedAffinity>
-8.05609

> <CNNscore>
0.2773463130

> <CNNaffinity>
7.0713286400

> <CNN_VS>
1.9612069130

> <CNNaffinity_variance>
0.2656965554

$$$$
[H]c1nc(N([H])c2c(C(=O)N3C([H])([H])C([H])([H])N([H])C([H])([H])[C@@]3([H])C([H])([H])[H])c([H])nc3c([H])c([H])c(C(N([H])[H])(C([H])([H])[H])C([H])([H])[H])c([H])c23)c2nc([H])c([H])c([H])c2n1


 38 42  0  0  0  0  0  0  0  0999 V2000
    0.6841  -52.8837  -24.7501 C   0  0  0  0  0  0  0  0  0  0  0  0
   -0.3844  -53.6924  -24.4256 C   0  0  0  0  0  0  0  0  0  0  0  0
   -0.7148  -53.9669  -23.1084 C   0  0  0  0  0  0  0  0  0  0  0  0
    0.0105  -53.4438  -22.0504 C   0  0  0  0  0  0  0  0  0  0  0  0
   -0.2892  -53.6933  -20.7736 N   0  0  0  0  0  0  0  0  0  0  0  0
    0.4151  -53.1835  -19.7490 C   0  0  0  0  0  0  0  0  0  0  0  0
    1.5015  -52.3629  -20.0257 C   0  0  0  0  0  0  0  0  0  0  0  0
    1.8282  -52.0933  -21.3504 C   0  0  0  0  0  0  0  0  0  0  0  0
    1.0772  -52.6367  -22.3671 C   0  0  0  0  0  0  0  0  0  0  0  0
    1.4103  -52.3595  -23.7075 C   0  0  0  0  0  0  0  0  0  0  0  0
    2.2436  -51.7150  -18.9834 C   0  0  0  0  0  0  0  0  0  0  0  0
    3.5416  -51.7900  -19.1392 O   0  0  0  0  0  0  0  0  0  0  0  0
    1.8700  -51.0175  -17.8320 N   0  0  0  0  0  0  0  0  0  0  0  0
    0.6252  -50.7495  -17.2107 C   0  0  0  0  0  0  0  0  0  0  0  0
    0.3154  -49.2597  -17.1630 C   0  0  0  0  0  0  0  0  0  0  0  0
    1.4642  -48.5186  -16.6753 N   0  0  0  0  0  0  0  0  0  0  0  0
    2.6950  -48.8544  -17.3295 C   0  0  0  0  0  0  0  0  0  0  0  0
    2.9890  -50.3154  -17.0758 C   0  0  0  0  0  0  0  0  0  0  0  0
    2.9114  -50.6071  -15.6213 C   0  0  0  0  0  0  0  0  0  0  0  0
    1.2578  -47.5145  -16.8415 H   0  0  0  0  0  0  0  0  0  0  0  0
    1.9434  -51.4331  -26.3235 C   0  0  0  0  0  0  0  0  0  0  0  0
    1.0092  -52.6119  -26.1765 C   0  0  0  0  0  0  0  0  0  0  0  0
   -0.2703  -52.3692  -26.9650 C   0  0  0  0  0  0  0  0  0  0  0  0
    1.6645  -53.7549  -26.8046 N   0  0  0  0  0  0  0  0  0  0  0  0
    1.1494  -54.6266  -26.5508 H   0  0  0  0  0  0  0  0  0  0  0  0
    2.6284  -53.8155  -26.3698 H   0  0  0  0  0  0  0  0  0  0  0  0
    2.9590  -51.2909  -21.7096 N   0  0  0  0  0  0  0  0  0  0  0  0
    3.8879  -51.7435  -21.6808 H   0  0  0  0  0  0  0  0  0  0  0  0
    2.8035  -49.9204  -22.0779 C   0  0  0  0  0  0  0  0  0  0  0  0
    2.0029  -49.1041  -21.3676 N   0  0  0  0  0  0  0  0  0  0  0  0
    1.8848  -47.8160  -21.7303 C   0  0  0  0  0  0  0  0  0  0  0  0
    2.5434  -47.3077  -22.7865 N   0  0  0  0  0  0  0  0  0  0  0  0
    3.3510  -48.0751  -23.5262 C   0  0  0  0  0  0  0  0  0  0  0  0
    4.0478  -47.6269  -24.6159 C   0  0  0  0  0  0  0  0  0  0  0  0
    4.8641  -48.4535  -25.3504 C   0  0  0  0  0  0  0  0  0  0  0  0
    4.9607  -49.7677  -24.9498 C   0  0  0  0  0  0  0  0  0  0  0  0
    4.2759  -50.2154  -23.8762 N   0  0  0  0  0  0  0  0  0  0  0  0
    3.4697  -49.4130  -23.1448 C   0  0  0  0  0  0  0  0  0  0  0  0
 21 22  1  0  0  0
 22 23  1  0  0  0
 22 24  1  0  0  0
 22  1  1  0  0  0
  1  2  2  0  0  0
  2  3  1  0  0  0
  3  4  2  0  0  0
  4  5  1  0  0  0
  5  6  2  0  0  0
  6  7  1  0  0  0
  7 11  1  0  0  0
 11 12  2  0  0  0
 11 13  1  0  0  0
 13 14  1  0  0  0
 14 15  1  0  0  0
 15 16  1  0  0  0
 16 17  1  0  0  0
 17 18  1  0  0  0
 18 19  1  0  0  0
  7  8  2  0  0  0
  8 27  1  0  0  0
 27 29  1  0  0  0
 29 30  2  0  0  0
 30 31  1  0  0  0
 31 32  2  0  0  0
 32 33  1  0  0  0
 33 34  2  0  0  0
 34 35  1  0  0  0
 35 36  2  0  0  0
 36 37  1  0  0  0
 37 38  2  0  0  0
  8  9  1  0  0  0
  9 10  2  0  0  0
 10  1  1  0  0  0
  9  4  1  0  0  0
 18 13  1  0  0  0
 38 29  1  0  0  0
 38 33  1  0  0  0
 24 25  1  0  0  0
 24 26  1  0  0  0
 16 20  1  0  0  0
 27 28  1  0  0  0
M  END
> <minimizedAffinity>
-8.38994

> <CNNscore>
0.2576390505

> <CNNaffinity>
7.0307679176

> <CNN_VS>
1.8114004135

> <CNNaffinity_variance>
0.3094775379

$$$$
[H]c1nc(N([H])c2c(C(=O)N3C([H])([H])C([H])([H])N([H])C([H])([H])[C@@]3([H])C([H])([H])[H])c([H])nc3c([H])c([H])c(C(N([H])[H])(C([H])([H])[H])C([H])([H])[H])c([H])c23)c2nc([H])c([H])c([H])c2n1


 38 42  0  0  0  0  0  0  0  0999 V2000
    1.1080  -52.5677  -26.2977 C   0  0  0  0  0  0  0  0  0  0  0  0
    2.2619  -53.0280  -26.8958 C   0  0  0  0  0  0  0  0  0  0  0  0
    3.5111  -52.7862  -26.3477 C   0  0  0  0  0  0  0  0  0  0  0  0
    3.6655  -52.0704  -25.1717 C   0  0  0  0  0  0  0  0  0  0  0  0
    4.8582  -51.8258  -24.6242 N   0  0  0  0  0  0  0  0  0  0  0  0
    5.0051  -51.1323  -23.4826 C   0  0  0  0  0  0  0  0  0  0  0  0
    3.8712  -50.6473  -22.8429 C   0  0  0  0  0  0  0  0  0  0  0  0
    2.6208  -50.8924  -23.4000 C   0  0  0  0  0  0  0  0  0  0  0  0
    2.5188  -51.6087  -24.5704 C   0  0  0  0  0  0  0  0  0  0  0  0
    1.2502  -51.8563  -25.1304 C   0  0  0  0  0  0  0  0  0  0  0  0
    3.9466  -49.9757  -21.5779 C   0  0  0  0  0  0  0  0  0  0  0  0
    4.2357  -50.7707  -20.5784 O   0  0  0  0  0  0  0  0  0  0  0  0
    3.7759  -48.6453  -21.1874 N   0  0  0  0  0  0  0  0  0  0  0  0
    3.3878  -47.4666  -21.8711 C   0  0  0  0  0  0  0  0  0  0  0  0
    4.4886  -46.4150  -21.8744 C   0  0  0  0  0  0  0  0  0  0  0  0
    5.0346  -46.2486  -20.5399 N   0  0  0  0  0  0  0  0  0  0  0  0
    5.3844  -47.4808  -19.8956 C   0  0  0  0  0  0  0  0  0  0  0  0
    4.1325  -48.3146  -19.7450 C   0  0  0  0  0  0  0  0  0  0  0  0
    3.0589  -47.5133  -19.1029 C   0  0  0  0  0  0  0  0  0  0  0  0
    5.8895  -45.6682  -20.6428 H   0  0  0  0  0  0  0  0  0  0  0  0
   -0.2167  -52.5479  -28.3978 C   0  0  0  0  0  0  0  0  0  0  0  0
   -0.2164  -52.8463  -26.9163 C   0  0  0  0  0  0  0  0  0  0  0  0
   -1.2985  -52.0353  -26.2172 C   0  0  0  0  0  0  0  0  0  0  0  0
   -0.5952  -54.2477  -26.7646 N   0  0  0  0  0  0  0  0  0  0  0  0
   -0.4128  -54.5469  -25.7813 H   0  0  0  0  0  0  0  0  0  0  0  0
    0.0575  -54.7974  -27.3919 H   0  0  0  0  0  0  0  0  0  0  0  0
    1.4134  -50.3872  -22.8179 N   0  0  0  0  0  0  0  0  0  0  0  0
    0.9463  -49.6035  -23.3040 H   0  0  0  0  0  0  0  0  0  0  0  0
    0.8904  -50.9389  -21.6096 C   0  0  0  0  0  0  0  0  0  0  0  0
    1.0608  -50.3054  -20.4342 N   0  0  0  0  0  0  0  0  0  0  0  0
    0.5475  -50.8420  -19.3148 C   0  0  0  0  0  0  0  0  0  0  0  0
   -0.1368  -51.9994  -19.3257 N   0  0  0  0  0  0  0  0  0  0  0  0
   -0.3344  -52.6694  -20.4659 C   0  0  0  0  0  0  0  0  0  0  0  0
   -1.0160  -53.8534  -20.5508 C   0  0  0  0  0  0  0  0  0  0  0  0
   -1.1914  -54.5103  -21.7453 C   0  0  0  0  0  0  0  0  0  0  0  0
   -0.6513  -53.9311  -22.8723 C   0  0  0  0  0  0  0  0  0  0  0  0
    0.0219  -52.7637  -22.7947 N   0  0  0  0  0  0  0  0  0  0  0  0
    0.2015  -52.1071  -21.6262 C   0  0  0  0  0  0  0  0  0  0  0  0
 21 22  1  0  0  0
 22 23  1  0  0  0
 22 24  1  0  0  0
 22  1  1  0  0  0
  1  2  2  0  0  0
  2  3  1  0  0  0
  3  4  2  0  0  0
  4  5  1  0  0  0
  5  6  2  0  0  0
  6  7  1  0  0  0
  7 11  1  0  0  0
 11 12  2  0  0  0
 11 13  1  0  0  0
 13 14  1  0  0  0
 14 15  1  0  0  0
 15 16  1  0  0  0
 16 17  1  0  0  0
 17 18  1  0  0  0
 18 19  1  0  0  0
  7  8  2  0  0  0
  8 27  1  0  0  0
 27 29  1  0  0  0
 29 30  2  0  0  0
 30 31  1  0  0  0
 31 32  2  0  0  0
 32 33  1  0  0  0
 33 34  2  0  0  0
 34 35  1  0  0  0
 35 36  2  0  0  0
 36 37  1  0  0  0
 37 38  2  0  0  0
  8  9  1  0  0  0
  9 10  2  0  0  0
 10  1  1  0  0  0
  9  4  1  0  0  0
 18 13  1  0  0  0
 38 29  1  0  0  0
 38 33  1  0  0  0
 24 25  1  0  0  0
 24 26  1  0  0  0
 16 20  1  0  0  0
 27 28  1  0  0  0
M  END
> <minimizedAffinity>
-8.86249

> <CNNscore>
0.2221487015

> <CNNaffinity>
6.7363271713

> <CNN_VS>
1.4964662790

> <CNNaffinity_variance>
0.3647398949

$$$$
[H]c1nc(N([H])c2c(C(=O)N3C([H])([H])C([H])([H])N([H])C([H])([H])[C@@]3([H])C([H])([H])[H])c([H])nc3c([H])c([H])c(C(N([H])[H])(C([H])([H])[H])C([H])([H])[H])c([H])c23)c2nc([H])c([H])c([H])c2n1


 38 42  0  0  0  0  0  0  0  0999 V2000
   -0.1365  -51.9388  -17.2575 C   0  0  0  0  0  0  0  0  0  0  0  0
   -1.3203  -52.6411  -17.3379 C   0  0  0  0  0  0  0  0  0  0  0  0
   -1.7717  -53.1702  -18.5361 C   0  0  0  0  0  0  0  0  0  0  0  0
   -1.0581  -53.0213  -19.7141 C   0  0  0  0  0  0  0  0  0  0  0  0
   -1.4723  -53.5227  -20.8799 N   0  0  0  0  0  0  0  0  0  0  0  0
   -0.7775  -53.3780  -22.0210 C   0  0  0  0  0  0  0  0  0  0  0  0
    0.4218  -52.6774  -21.9906 C   0  0  0  0  0  0  0  0  0  0  0  0
    0.8677  -52.1476  -20.7845 C   0  0  0  0  0  0  0  0  0  0  0  0
    0.1231  -52.3220  -19.6408 C   0  0  0  0  0  0  0  0  0  0  0  0
    0.5793  -51.7854  -18.4208 C   0  0  0  0  0  0  0  0  0  0  0  0
    1.2572  -52.5592  -23.1504 C   0  0  0  0  0  0  0  0  0  0  0  0
    2.5117  -52.8600  -22.9260 O   0  0  0  0  0  0  0  0  0  0  0  0
    1.0116  -52.1892  -24.4749 N   0  0  0  0  0  0  0  0  0  0  0  0
   -0.1329  -51.7151  -25.1626 C   0  0  0  0  0  0  0  0  0  0  0  0
   -0.5811  -52.6706  -26.2598 C   0  0  0  0  0  0  0  0  0  0  0  0
    0.5510  -53.0754  -27.0730 N   0  0  0  0  0  0  0  0  0  0  0  0
    1.6832  -53.5217  -26.3149 C   0  0  0  0  0  0  0  0  0  0  0  0
    2.1633  -52.3769  -25.4523 C   0  0  0  0  0  0  0  0  0  0  0  0
    2.3598  -51.1599  -26.2814 C   0  0  0  0  0  0  0  0  0  0  0  0
    0.2181  -53.8559  -27.6718 H   0  0  0  0  0  0  0  0  0  0  0  0
   -0.4803  -50.1626  -15.5568 C   0  0  0  0  0  0  0  0  0  0  0  0
    0.3161  -51.3844  -15.9529 C   0  0  0  0  0  0  0  0  0  0  0  0
    1.7990  -51.0462  -16.0172 C   0  0  0  0  0  0  0  0  0  0  0  0
    0.1663  -52.3576  -14.8754 N   0  0  0  0  0  0  0  0  0  0  0  0
    0.5299  -53.2820  -15.1963 H   0  0  0  0  0  0  0  0  0  0  0  0
   -0.8758  -52.4618  -14.7175 H   0  0  0  0  0  0  0  0  0  0  0  0
    2.0725  -51.3789  -20.6874 N   0  0  0  0  0  0  0  0  0  0  0  0
    2.9547  -51.8987  -20.5459 H   0  0  0  0  0  0  0  0  0  0  0  0
    2.0464  -49.9539  -20.7700 C   0  0  0  0  0  0  0  0  0  0  0  0
    1.2807  -49.3321  -21.6859 N   0  0  0  0  0  0  0  0  0  0  0  0
    1.2668  -47.9896  -21.7328 C   0  0  0  0  0  0  0  0  0  0  0  0
    1.9965  -47.2375  -20.8904 N   0  0  0  0  0  0  0  0  0  0  0  0
    2.7744  -47.8045  -19.9622 C   0  0  0  0  0  0  0  0  0  0  0  0
    3.5463  -47.1024  -19.0762 C   0  0  0  0  0  0  0  0  0  0  0  0
    4.3351  -47.7280  -18.1405 C   0  0  0  0  0  0  0  0  0  0  0  0
    4.3247  -49.1052  -18.1216 C   0  0  0  0  0  0  0  0  0  0  0  0
    3.5656  -49.8028  -18.9929 N   0  0  0  0  0  0  0  0  0  0  0  0
    2.7850  -49.2000  -19.9181 C   0  0  0  0  0  0  0  0  0  0  0  0
 21 22  1  0  0  0
 22 23  1  0  0  0
 22 24  1  0  0  0
 22  1  1  0  0  0
  1  2  2  0  0  0
  2  3  1  0  0  0
  3  4  2  0  0  0
  4  5  1  0  0  0
  5  6  2  0  0  0
  6  7  1  0  0  0
  7 11  1  0  0  0
 11 12  2  0  0  0
 11 13  1  0  0  0
 13 14  1  0  0  0
 14 15  1  0  0  0
 15 16  1  0  0  0
 16 17  1  0  0  0
 17 18  1  0  0  0
 18 19  1  0  0  0
  7  8  2  0  0  0
  8 27  1  0  0  0
 27 29  1  0  0  0
 29 30  2  0  0  0
 30 31  1  0  0  0
 31 32  2  0  0  0
 32 33  1  0  0  0
 33 34  2  0  0  0
 34 35  1  0  0  0
 35 36  2  0  0  0
 36 37  1  0  0  0
 37 38  2  0  0  0
  8  9  1  0  0  0
  9 10  2  0  0  0
 10  1  1  0  0  0
  9  4  1  0  0  0
 18 13  1  0  0  0
 38 29  1  0  0  0
 38 33  1  0  0  0
 24 25  1  0  0  0
 24 26  1  0  0  0
 16 20  1  0  0  0
 27 28  1  0  0  0
M  END
> <minimizedAffinity>
-6.85999

> <CNNscore>
0.2217874080

> <CNNaffinity>
7.0326147079

> <CNN_VS>
1.5597454309

> <CNNaffinity_variance>
0.2846671343

$$$$
[H]c1c([H])c(-c2nn([H])c3c([H])c([H])c(C(=O)N([H])C([H])([H])[H])c([H])c23)c([H])c([H])c1F


 22 24  0  0  0  0  0  0  0  0999 V2000
    1.1303  -52.6760  -25.7719 C   0  0  0  0  0  0  0  0  0  0  0  0
    0.6296  -53.7199  -26.5234 C   0  0  0  0  0  0  0  0  0  0  0  0
   -0.1892  -54.7059  -26.0188 C   0  0  0  0  0  0  0  0  0  0  0  0
   -0.5358  -54.6612  -24.6936 C   0  0  0  0  0  0  0  0  0  0  0  0
   -1.3027  -55.4544  -23.9154 N   0  0  0  0  0  0  0  0  0  0  0  0
   -1.3229  -54.9722  -22.6880 N   0  0  0  0  0  0  0  0  0  0  0  0
   -0.5604  -53.8398  -22.6372 C   0  0  0  0  0  0  0  0  0  0  0  0
   -0.0488  -53.6188  -23.8968 C   0  0  0  0  0  0  0  0  0  0  0  0
    0.7719  -52.6474  -24.4443 C   0  0  0  0  0  0  0  0  0  0  0  0
   -1.8218  -56.3252  -24.1891 H   0  0  0  0  0  0  0  0  0  0  0  0
   -0.3257  -53.0050  -21.4735 C   0  0  0  0  0  0  0  0  0  0  0  0
   -0.0278  -51.6658  -21.5959 C   0  0  0  0  0  0  0  0  0  0  0  0
    0.1937  -50.8506  -20.5028 C   0  0  0  0  0  0  0  0  0  0  0  0
    0.1149  -51.3941  -19.2281 C   0  0  0  0  0  0  0  0  0  0  0  0
    0.3395  -50.5586  -18.1791 F   0  0  0  0  0  0  0  0  0  0  0  0
   -0.1795  -52.7217  -19.0780 C   0  0  0  0  0  0  0  0  0  0  0  0
   -0.4001  -53.5279  -20.2025 C   0  0  0  0  0  0  0  0  0  0  0  0
    3.2924  -49.5472  -26.3683 C   0  0  0  0  0  0  0  0  0  0  0  0
    2.4402  -50.5237  -25.7329 N   0  0  0  0  0  0  0  0  0  0  0  0
    1.9799  -51.6907  -26.3870 C   0  0  0  0  0  0  0  0  0  0  0  0
    2.3562  -51.8489  -27.5862 O   0  0  0  0  0  0  0  0  0  0  0  0
    2.1465  -50.3706  -24.7507 H   0  0  0  0  0  0  0  0  0  0  0  0
 18 19  1  0  0  0
 19 20  1  0  0  0
 20 21  2  0  0  0
 20  1  1  0  0  0
  1  2  2  0  0  0
  2  3  1  0  0  0
  3  4  2  0  0  0
  4  5  1  0  0  0
  5  6  1  0  0  0
  6  7  2  0  0  0
  7 11  1  0  0  0
 11 12  2  0  0  0
 12 13  1  0  0  0
 13 14  2  0  0  0
 14 15  1  0  0  0
 14 16  1  0  0  0
 16 17  2  0  0  0
  7  8  1  0  0  0
  8  9  2  0  0  0
  9  1  1  0  0  0
  8  4  1  0  0  0
 17 11  1  0  0  0
 19 22  1  0  0  0
  5 10  1  0  0  0
M  END
> <minimizedAffinity>
-7.81791

> <CNNscore>
0.9588471055

> <CNNaffinity>
6.2047958374

> <CNN_VS>
5.9494504929

> <CNNaffinity_variance>
0.0578946061

$$$$
[H]c1c([H])c(-c2nn([H])c3c([H])c([H])c(C(=O)N([H])C([H])([H])[H])c([H])c23)c([H])c([H])c1F


 22 24  0  0  0  0  0  0  0  0999 V2000
    0.6879  -51.8303  -22.0708 C   0  0  0  0  0  0  0  0  0  0  0  0
    0.2783  -52.6179  -21.0139 C   0  0  0  0  0  0  0  0  0  0  0  0
   -0.3850  -53.8162  -21.1608 C   0  0  0  0  0  0  0  0  0  0  0  0
   -0.6616  -54.2661  -22.4255 C   0  0  0  0  0  0  0  0  0  0  0  0
   -1.2788  -55.3713  -22.8948 N   0  0  0  0  0  0  0  0  0  0  0  0
   -1.2894  -55.3377  -24.2132 N   0  0  0  0  0  0  0  0  0  0  0  0
   -0.6718  -54.1959  -24.6388 C   0  0  0  0  0  0  0  0  0  0  0  0
   -0.2631  -53.4969  -23.5246 C   0  0  0  0  0  0  0  0  0  0  0  0
    0.4018  -52.2977  -23.3324 C   0  0  0  0  0  0  0  0  0  0  0  0
   -1.7005  -56.1612  -22.3462 H   0  0  0  0  0  0  0  0  0  0  0  0
   -0.4699  -53.7816  -26.0150 C   0  0  0  0  0  0  0  0  0  0  0  0
   -1.2386  -52.7939  -26.5901 C   0  0  0  0  0  0  0  0  0  0  0  0
   -1.0608  -52.3791  -27.8957 C   0  0  0  0  0  0  0  0  0  0  0  0
   -0.0714  -52.9756  -28.6649 C   0  0  0  0  0  0  0  0  0  0  0  0
    0.0713  -52.5391  -29.9448 F   0  0  0  0  0  0  0  0  0  0  0  0
    0.7066  -53.9593  -28.1184 C   0  0  0  0  0  0  0  0  0  0  0  0
    0.5068  -54.3625  -26.7915 C   0  0  0  0  0  0  0  0  0  0  0  0
    1.5174  -48.2654  -20.8777 C   0  0  0  0  0  0  0  0  0  0  0  0
    0.8098  -49.5002  -21.1194 N   0  0  0  0  0  0  0  0  0  0  0  0
    1.3759  -50.5916  -21.8194 C   0  0  0  0  0  0  0  0  0  0  0  0
    2.5618  -50.4377  -22.2371 O   0  0  0  0  0  0  0  0  0  0  0  0
   -0.1598  -49.6006  -20.7669 H   0  0  0  0  0  0  0  0  0  0  0  0
 18 19  1  0  0  0
 19 20  1  0  0  0
 20 21  2  0  0  0
 20  1  1  0  0  0
  1  2  2  0  0  0
  2  3  1  0  0  0
  3  4  2  0  0  0
  4  5  1  0  0  0
  5  6  1  0  0  0
  6  7  2  0  0  0
  7 11  1  0  0  0
 11 12  2  0  0  0
 12 13  1  0  0  0
 13 14  2  0  0  0
 14 15  1  0  0  0
 14 16  1  0  0  0
 16 17  2  0  0  0
  7  8  1  0  0  0
  8  9  2  0  0  0
  9  1  1  0  0  0
  8  4  1  0  0  0
 17 11  1  0  0  0
 19 22  1  0  0  0
  5 10  1  0  0  0
M  END
> <minimizedAffinity>
-8.23073

> <CNNscore>
0.8663442731

> <CNNaffinity>
6.0049810410

> <CNN_VS>
5.2023811340

> <CNNaffinity_variance>
0.1226181760

$$$$
[H]c1c([H])c(-c2nn([H])c3c([H])c([H])c(C(=O)N([H])C([H])([H])[H])c([H])c23)c([H])c([H])c1F


 22 24  0  0  0  0  0  0  0  0999 V2000
    1.1682  -52.0487  -23.9161 C   0  0  0  0  0  0  0  0  0  0  0  0
    0.6371  -52.9945  -24.7695 C   0  0  0  0  0  0  0  0  0  0  0  0
   -0.2632  -53.9615  -24.3798 C   0  0  0  0  0  0  0  0  0  0  0  0
   -0.6648  -53.9991  -23.0700 C   0  0  0  0  0  0  0  0  0  0  0  0
   -1.5134  -54.7993  -22.3900 N   0  0  0  0  0  0  0  0  0  0  0  0
   -1.5580  -54.4155  -21.1290 N   0  0  0  0  0  0  0  0  0  0  0  0
   -0.7293  -53.3433  -20.9558 C   0  0  0  0  0  0  0  0  0  0  0  0
   -0.1495  -53.0574  -22.1721 C   0  0  0  0  0  0  0  0  0  0  0  0
    0.7538  -52.1018  -22.6056 C   0  0  0  0  0  0  0  0  0  0  0  0
   -2.0732  -55.6096  -22.7543 H   0  0  0  0  0  0  0  0  0  0  0  0
   -0.4948  -52.6206  -19.7193 C   0  0  0  0  0  0  0  0  0  0  0  0
    0.2962  -51.4935  -19.6827 C   0  0  0  0  0  0  0  0  0  0  0  0
    0.5288  -50.7862  -18.5191 C   0  0  0  0  0  0  0  0  0  0  0  0
   -0.0533  -51.2213  -17.3366 C   0  0  0  0  0  0  0  0  0  0  0  0
    0.2005  -50.4976  -16.2137 F   0  0  0  0  0  0  0  0  0  0  0  0
   -0.8435  -52.3380  -17.3448 C   0  0  0  0  0  0  0  0  0  0  0  0
   -1.0644  -53.0383  -18.5381 C   0  0  0  0  0  0  0  0  0  0  0  0
    3.1088  -49.6743  -26.2433 C   0  0  0  0  0  0  0  0  0  0  0  0
    2.1616  -50.6521  -25.7633 N   0  0  0  0  0  0  0  0  0  0  0  0
    2.1041  -51.0758  -24.4146 C   0  0  0  0  0  0  0  0  0  0  0  0
    2.9403  -50.5479  -23.6230 O   0  0  0  0  0  0  0  0  0  0  0  0
    1.4879  -51.0689  -26.4316 H   0  0  0  0  0  0  0  0  0  0  0  0
 18 19  1  0  0  0
 19 20  1  0  0  0
 20 21  2  0  0  0
 20  1  1  0  0  0
  1  2  2  0  0  0
  2  3  1  0  0  0
  3  4  2  0  0  0
  4  5  1  0  0  0
  5  6  1  0  0  0
  6  7  2  0  0  0
  7 11  1  0  0  0
 11 12  2  0  0  0
 12 13  1  0  0  0
 13 14  2  0  0  0
 14 15  1  0  0  0
 14 16  1  0  0  0
 16 17  2  0  0  0
  7  8  1  0  0  0
  8  9  2  0  0  0
  9  1  1  0  0  0
  8  4  1  0  0  0
 17 11  1  0  0  0
 19 22  1  0  0  0
  5 10  1  0  0  0
M  END
> <minimizedAffinity>
-7.14458

> <CNNscore>
0.8663279414

> <CNNaffinity>
5.7429389954

> <CNN_VS>
4.9752683640

> <CNNaffinity_variance>
0.0492045879

$$$$
[H]c1c([H])c(-c2nn([H])c3c([H])c([H])c(C(=O)N([H])C([H])([H])[H])c([H])c23)c([H])c([H])c1F


 22 24  0  0  0  0  0  0  0  0999 V2000
    0.6857  -51.3476  -22.1524 C   0  0  0  0  0  0  0  0  0  0  0  0
    0.3369  -52.0822  -21.0371 C   0  0  0  0  0  0  0  0  0  0  0  0
   -0.2722  -53.3165  -21.0901 C   0  0  0  0  0  0  0  0  0  0  0  0
   -0.5551  -53.8603  -22.3159 C   0  0  0  0  0  0  0  0  0  0  0  0
   -1.1297  -55.0208  -22.6976 N   0  0  0  0  0  0  0  0  0  0  0  0
   -1.1709  -55.0740  -24.0147 N   0  0  0  0  0  0  0  0  0  0  0  0
   -0.6172  -53.9355  -24.5282 C   0  0  0  0  0  0  0  0  0  0  0  0
   -0.2175  -53.1472  -23.4718 C   0  0  0  0  0  0  0  0  0  0  0  0
    0.3943  -51.9091  -23.3738 C   0  0  0  0  0  0  0  0  0  0  0  0
   -1.5016  -55.7915  -22.0889 H   0  0  0  0  0  0  0  0  0  0  0  0
   -0.4654  -53.6034  -25.9328 C   0  0  0  0  0  0  0  0  0  0  0  0
    0.4630  -54.2393  -26.7271 C   0  0  0  0  0  0  0  0  0  0  0  0
    0.6213  -53.9441  -28.0673 C   0  0  0  0  0  0  0  0  0  0  0  0
   -0.1822  -52.9701  -28.6437 C   0  0  0  0  0  0  0  0  0  0  0  0
    0.0051  -52.7092  -29.9650 F   0  0  0  0  0  0  0  0  0  0  0  0
   -1.1125  -52.3230  -27.8774 C   0  0  0  0  0  0  0  0  0  0  0  0
   -1.2541  -52.6404  -26.5202 C   0  0  0  0  0  0  0  0  0  0  0  0
    3.0189  -48.3226  -22.6272 C   0  0  0  0  0  0  0  0  0  0  0  0
    2.3964  -49.6137  -22.7980 N   0  0  0  0  0  0  0  0  0  0  0  0
    1.3200  -50.0650  -21.9984 C   0  0  0  0  0  0  0  0  0  0  0  0
    0.9129  -49.2685  -21.1016 O   0  0  0  0  0  0  0  0  0  0  0  0
    2.7484  -50.2468  -23.5394 H   0  0  0  0  0  0  0  0  0  0  0  0
 18 19  1  0  0  0
 19 20  1  0  0  0
 20 21  2  0  0  0
 20  1  1  0  0  0
  1  2  2  0  0  0
  2  3  1  0  0  0
  3  4  2  0  0  0
  4  5  1  0  0  0
  5  6  1  0  0  0
  6  7  2  0  0  0
  7 11  1  0  0  0
 11 12  2  0  0  0
 12 13  1  0  0  0
 13 14  2  0  0  0
 14 15  1  0  0  0
 14 16  1  0  0  0
 16 17  2  0  0  0
  7  8  1  0  0  0
  8  9  2  0  0  0
  9  1  1  0  0  0
  8  4  1  0  0  0
 17 11  1  0  0  0
 19 22  1  0  0  0
  5 10  1  0  0  0
M  END
> <minimizedAffinity>
-8.25145

> <CNNscore>
0.8331201673

> <CNNaffinity>
5.8903799057

> <CNN_VS>
4.9073944092

> <CNNaffinity_variance>
0.1357852072

$$$$
[H]c1c([H])c(-c2nn([H])c3c([H])c([H])c(C(=O)N([H])C([H])([H])[H])c([H])c23)c([H])c([H])c1F


 22 24  0  0  0  0  0  0  0  0999 V2000
    0.8184  -50.4441  -20.4033 C   0  0  0  0  0  0  0  0  0  0  0  0
    0.4488  -51.1259  -19.2616 C   0  0  0  0  0  0  0  0  0  0  0  0
   -0.0640  -52.4043  -19.2625 C   0  0  0  0  0  0  0  0  0  0  0  0
   -0.2224  -53.0505  -20.4608 C   0  0  0  0  0  0  0  0  0  0  0  0
   -0.6838  -54.2752  -20.7922 N   0  0  0  0  0  0  0  0  0  0  0  0
   -0.6311  -54.4209  -22.1019 N   0  0  0  0  0  0  0  0  0  0  0  0
   -0.1279  -53.2806  -22.6612 C   0  0  0  0  0  0  0  0  0  0  0  0
    0.1405  -52.3938  -21.6421 C   0  0  0  0  0  0  0  0  0  0  0  0
    0.6525  -51.1082  -21.5964 C   0  0  0  0  0  0  0  0  0  0  0  0
   -1.0393  -55.0292  -20.1535 H   0  0  0  0  0  0  0  0  0  0  0  0
    0.0948  -53.0340  -24.0740 C   0  0  0  0  0  0  0  0  0  0  0  0
   -0.9140  -52.5775  -24.8933 C   0  0  0  0  0  0  0  0  0  0  0  0
   -0.7240  -52.3302  -26.2390 C   0  0  0  0  0  0  0  0  0  0  0  0
    0.5289  -52.5476  -26.7953 C   0  0  0  0  0  0  0  0  0  0  0  0
    0.6745  -52.2923  -28.1229 F   0  0  0  0  0  0  0  0  0  0  0  0
    1.5487  -53.0008  -26.0039 C   0  0  0  0  0  0  0  0  0  0  0  0
    1.3310  -53.2441  -24.6414 C   0  0  0  0  0  0  0  0  0  0  0  0
    2.9361  -47.3979  -19.3756 C   0  0  0  0  0  0  0  0  0  0  0  0
    2.4218  -48.7440  -19.4607 N   0  0  0  0  0  0  0  0  0  0  0  0
    1.3458  -49.1088  -20.3038 C   0  0  0  0  0  0  0  0  0  0  0  0
    0.8378  -48.1810  -21.0007 O   0  0  0  0  0  0  0  0  0  0  0  0
    2.8554  -49.4849  -18.8798 H   0  0  0  0  0  0  0  0  0  0  0  0
 18 19  1  0  0  0
 19 20  1  0  0  0
 20 21  2  0  0  0
 20  1  1  0  0  0
  1  2  2  0  0  0
  2  3  1  0  0  0
  3  4  2  0  0  0
  4  5  1  0  0  0
  5  6  1  0  0  0
  6  7  2  0  0  0
  7 11  1  0  0  0
 11 12  2  0  0  0
 12 13  1  0  0  0
 13 14  2  0  0  0
 14 15  1  0  0  0
 14 16  1  0  0  0
 16 17  2  0  0  0
  7  8  1  0  0  0
  8  9  2  0  0  0
  9  1  1  0  0  0
  8  4  1  0  0  0
 17 11  1  0  0  0
 19 22  1  0  0  0
  5 10  1  0  0  0
M  END
> <minimizedAffinity>
-7.49929

> <CNNscore>
0.6976134777

> <CNNaffinity>
5.5481348038

> <CNN_VS>
3.8704535961

> <CNNaffinity_variance>
0.1952438653

$$$$
[H]c1c([H])c(-c2nn([H])c3c([H])c([H])c(C(=O)N([H])C([H])([H])[H])c([H])c23)c([H])c([H])c1F


 22 24  0  0  0  0  0  0  0  0999 V2000
   -0.2221  -52.2533  -21.3384 C   0  0  0  0  0  0  0  0  0  0  0  0
   -1.1322  -53.1122  -20.7561 C   0  0  0  0  0  0  0  0  0  0  0  0
   -1.6520  -54.2221  -21.3849 C   0  0  0  0  0  0  0  0  0  0  0  0
   -1.2510  -54.5031  -22.6650 C   0  0  0  0  0  0  0  0  0  0  0  0
   -1.5641  -55.4895  -23.5320 N   0  0  0  0  0  0  0  0  0  0  0  0
   -0.8969  -55.3101  -24.6554 N   0  0  0  0  0  0  0  0  0  0  0  0
   -0.1242  -54.1889  -24.5452 C   0  0  0  0  0  0  0  0  0  0  0  0
   -0.3293  -53.6567  -23.2915 C   0  0  0  0  0  0  0  0  0  0  0  0
    0.1687  -52.5511  -22.6232 C   0  0  0  0  0  0  0  0  0  0  0  0
   -2.2241  -56.2936  -23.3889 H   0  0  0  0  0  0  0  0  0  0  0  0
    0.7632  -53.6455  -25.5569 C   0  0  0  0  0  0  0  0  0  0  0  0
    2.0526  -53.2662  -25.2557 C   0  0  0  0  0  0  0  0  0  0  0  0
    2.9168  -52.7523  -26.2029 C   0  0  0  0  0  0  0  0  0  0  0  0
    2.4767  -52.6092  -27.5115 C   0  0  0  0  0  0  0  0  0  0  0  0
    3.3576  -52.0996  -28.4133 F   0  0  0  0  0  0  0  0  0  0  0  0
    1.2005  -52.9783  -27.8380 C   0  0  0  0  0  0  0  0  0  0  0  0
    0.3429  -53.4972  -26.8591 C   0  0  0  0  0  0  0  0  0  0  0  0
    1.2587  -48.8130  -20.4490 C   0  0  0  0  0  0  0  0  0  0  0  0
    0.7734  -49.9423  -21.2059 N   0  0  0  0  0  0  0  0  0  0  0  0
    0.2662  -51.1172  -20.6025 C   0  0  0  0  0  0  0  0  0  0  0  0
    0.2546  -51.1390  -19.3360 O   0  0  0  0  0  0  0  0  0  0  0  0
    0.7938  -49.8989  -22.2413 H   0  0  0  0  0  0  0  0  0  0  0  0
 18 19  1  0  0  0
 19 20  1  0  0  0
 20 21  2  0  0  0
 20  1  1  0  0  0
  1  2  2  0  0  0
  2  3  1  0  0  0
  3  4  2  0  0  0
  4  5  1  0  0  0
  5  6  1  0  0  0
  6  7  2  0  0  0
  7 11  1  0  0  0
 11 12  2  0  0  0
 12 13  1  0  0  0
 13 14  2  0  0  0
 14 15  1  0  0  0
 14 16  1  0  0  0
 16 17  2  0  0  0
  7  8  1  0  0  0
  8  9  2  0  0  0
  9  1  1  0  0  0
  8  4  1  0  0  0
 17 11  1  0  0  0
 19 22  1  0  0  0
  5 10  1  0  0  0
M  END
> <minimizedAffinity>
-8.12791

> <CNNscore>
0.6224699616

> <CNNaffinity>
5.6936483383

> <CNN_VS>
3.5441250801

> <CNNaffinity_variance>
0.2387476712

$$$$
[H]c1c([H])c(-c2nn([H])c3c([H])c([H])c(C(=O)N([H])C([H])([H])[H])c([H])c23)c([H])c([H])c1F


 22 24  0  0  0  0  0  0  0  0999 V2000
   -0.3510  -52.5781  -20.6318 C   0  0  0  0  0  0  0  0  0  0  0  0
   -1.2608  -53.5721  -20.3331 C   0  0  0  0  0  0  0  0  0  0  0  0
   -1.7189  -54.4943  -21.2481 C   0  0  0  0  0  0  0  0  0  0  0  0
   -1.2526  -54.4337  -22.5354 C   0  0  0  0  0  0  0  0  0  0  0  0
   -1.4972  -55.1723  -23.6387 N   0  0  0  0  0  0  0  0  0  0  0  0
   -0.7857  -54.7018  -24.6446 N   0  0  0  0  0  0  0  0  0  0  0  0
   -0.0519  -53.6326  -24.2148 C   0  0  0  0  0  0  0  0  0  0  0  0
   -0.3288  -53.4403  -22.8794 C   0  0  0  0  0  0  0  0  0  0  0  0
    0.1059  -52.5327  -21.9283 C   0  0  0  0  0  0  0  0  0  0  0  0
   -2.1392  -55.9973  -23.7378 H   0  0  0  0  0  0  0  0  0  0  0  0
    0.8638  -52.8348  -25.0093 C   0  0  0  0  0  0  0  0  0  0  0  0
    0.4863  -51.6224  -25.5429 C   0  0  0  0  0  0  0  0  0  0  0  0
    1.3421  -50.8432  -26.2970 C   0  0  0  0  0  0  0  0  0  0  0  0
    2.6345  -51.2922  -26.5311 C   0  0  0  0  0  0  0  0  0  0  0  0
    3.4454  -50.4962  -27.2779 F   0  0  0  0  0  0  0  0  0  0  0  0
    3.0355  -52.4930  -26.0127 C   0  0  0  0  0  0  0  0  0  0  0  0
    2.1487  -53.2651  -25.2508 C   0  0  0  0  0  0  0  0  0  0  0  0
    0.2616  -50.9126  -17.2155 C   0  0  0  0  0  0  0  0  0  0  0  0
   -0.1696  -51.8480  -18.2268 N   0  0  0  0  0  0  0  0  0  0  0  0
    0.0702  -51.6584  -19.6082 C   0  0  0  0  0  0  0  0  0  0  0  0
    0.6961  -50.6054  -19.9311 O   0  0  0  0  0  0  0  0  0  0  0  0
   -0.6799  -52.7020  -17.9361 H   0  0  0  0  0  0  0  0  0  0  0  0
 18 19  1  0  0  0
 19 20  1  0  0  0
 20 21  2  0  0  0
 20  1  1  0  0  0
  1  2  2  0  0  0
  2  3  1  0  0  0
  3  4  2  0  0  0
  4  5  1  0  0  0
  5  6  1  0  0  0
  6  7  2  0  0  0
  7 11  1  0  0  0
 11 12  2  0  0  0
 12 13  1  0  0  0
 13 14  2  0  0  0
 14 15  1  0  0  0
 14 16  1  0  0  0
 16 17  2  0  0  0
  7  8  1  0  0  0
  8  9  2  0  0  0
  9  1  1  0  0  0
  8  4  1  0  0  0
 17 11  1  0  0  0
 19 22  1  0  0  0
  5 10  1  0  0  0
M  END
> <minimizedAffinity>
-7.56338

> <CNNscore>
0.5108329058

> <CNNaffinity>
5.4705257416

> <CNN_VS>
2.7945246696

> <CNNaffinity_variance>
0.1531426013

$$$$
[H]c1c([H])c(-c2nn([H])c3c([H])c([H])c(C(=O)N([H])C([H])([H])[H])c([H])c23)c([H])c([H])c1F


 22 24  0  0  0  0  0  0  0  0999 V2000
   -0.2357  -53.8218  -24.2951 C   0  0  0  0  0  0  0  0  0  0  0  0
   -1.0270  -54.8605  -23.8480 C   0  0  0  0  0  0  0  0  0  0  0  0
   -1.3841  -55.0417  -22.5300 C   0  0  0  0  0  0  0  0  0  0  0  0
   -0.9344  -54.1455  -21.5956 C   0  0  0  0  0  0  0  0  0  0  0  0
   -1.1039  -54.0454  -20.2600 N   0  0  0  0  0  0  0  0  0  0  0  0
   -0.4561  -52.9854  -19.8169 N   0  0  0  0  0  0  0  0  0  0  0  0
    0.1580  -52.3626  -20.8664 C   0  0  0  0  0  0  0  0  0  0  0  0
   -0.1292  -53.0778  -22.0080 C   0  0  0  0  0  0  0  0  0  0  0  0
    0.2062  -52.9323  -23.3434 C   0  0  0  0  0  0  0  0  0  0  0  0
   -1.6512  -54.6790  -19.6262 H   0  0  0  0  0  0  0  0  0  0  0  0
    0.9672  -51.1594  -20.8065 C   0  0  0  0  0  0  0  0  0  0  0  0
    0.4101  -49.9085  -20.9548 C   0  0  0  0  0  0  0  0  0  0  0  0
    1.1592  -48.7493  -20.8956 C   0  0  0  0  0  0  0  0  0  0  0  0
    2.5272  -48.8397  -20.6788 C   0  0  0  0  0  0  0  0  0  0  0  0
    3.2285  -47.6760  -20.6274 F   0  0  0  0  0  0  0  0  0  0  0  0
    3.1063  -50.0700  -20.5281 C   0  0  0  0  0  0  0  0  0  0  0  0
    2.3248  -51.2312  -20.5920 C   0  0  0  0  0  0  0  0  0  0  0  0
   -0.4986  -53.2241  -28.0889 C   0  0  0  0  0  0  0  0  0  0  0  0
   -0.8411  -53.3265  -26.6904 N   0  0  0  0  0  0  0  0  0  0  0  0
    0.0853  -53.7136  -25.6937 C   0  0  0  0  0  0  0  0  0  0  0  0
    1.2604  -53.9740  -26.0887 O   0  0  0  0  0  0  0  0  0  0  0  0
   -1.8098  -53.1078  -26.3934 H   0  0  0  0  0  0  0  0  0  0  0  0
 18 19  1  0  0  0
 19 20  1  0  0  0
 20 21  2  0  0  0
 20  1  1  0  0  0
  1  2  2  0  0  0
  2  3  1  0  0  0
  3  4  2  0  0  0
  4  5  1  0  0  0
  5  6  1  0  0  0
  6  7  2  0  0  0
  7 11  1  0  0  0
 11 12  2  0  0  0
 12 13  1  0  0  0
 13 14  2  0  0  0
 14 15  1  0  0  0
 14 16  1  0  0  0
 16 17  2  0  0  0
  7  8  1  0  0  0
  8  9  2  0  0  0
  9  1  1  0  0  0
  8  4  1  0  0  0
 17 11  1  0  0  0
 19 22  1  0  0  0
  5 10  1  0  0  0
M  END
> <minimizedAffinity>
-7.81711

> <CNNscore>
0.4773640335

> <CNNaffinity>
5.6643629074

> <CNN_VS>
2.7039630413

> <CNNaffinity_variance>
0.1077596769

$$$$
[H]c1c([H])c(-c2nn([H])c3c([H])c([H])c(C(=O)N([H])C([H])([H])[H])c([H])c23)c([H])c([H])c1F


 22 24  0  0  0  0  0  0  0  0999 V2000
    1.6482  -52.0012  -21.0261 C   0  0  0  0  0  0  0  0  0  0  0  0
    0.6987  -52.3965  -20.1056 C   0  0  0  0  0  0  0  0  0  0  0  0
   -0.3666  -53.2167  -20.4050 C   0  0  0  0  0  0  0  0  0  0  0  0
   -0.5052  -53.6755  -21.6890 C   0  0  0  0  0  0  0  0  0  0  0  0
   -1.4138  -54.4746  -22.2880 N   0  0  0  0  0  0  0  0  0  0  0  0
   -1.0973  -54.6169  -23.5603 N   0  0  0  0  0  0  0  0  0  0  0  0
    0.0388  -53.9052  -23.8233 C   0  0  0  0  0  0  0  0  0  0  0  0
    0.4365  -53.2977  -22.6529 C   0  0  0  0  0  0  0  0  0  0  0  0
    1.4930  -52.4713  -22.3094 C   0  0  0  0  0  0  0  0  0  0  0  0
   -2.2549  -54.9351  -21.8599 H   0  0  0  0  0  0  0  0  0  0  0  0
    0.7199  -53.8016  -25.1007 C   0  0  0  0  0  0  0  0  0  0  0  0
    2.0054  -53.3160  -25.1942 C   0  0  0  0  0  0  0  0  0  0  0  0
    2.6757  -53.2138  -26.3978 C   0  0  0  0  0  0  0  0  0  0  0  0
    2.0362  -53.6139  -27.5629 C   0  0  0  0  0  0  0  0  0  0  0  0
    2.7300  -53.4972  -28.7265 F   0  0  0  0  0  0  0  0  0  0  0  0
    0.7591  -54.1001  -27.4984 C   0  0  0  0  0  0  0  0  0  0  0  0
    0.1004  -54.1941  -26.2654 C   0  0  0  0  0  0  0  0  0  0  0  0
    3.9205  -49.6868  -18.9525 C   0  0  0  0  0  0  0  0  0  0  0  0
    2.8282  -50.5474  -19.3399 N   0  0  0  0  0  0  0  0  0  0  0  0
    2.7280  -51.1409  -20.6202 C   0  0  0  0  0  0  0  0  0  0  0  0
    3.6614  -50.8797  -21.4359 O   0  0  0  0  0  0  0  0  0  0  0  0
    2.0771  -50.7453  -18.6536 H   0  0  0  0  0  0  0  0  0  0  0  0
 18 19  1  0  0  0
 19 20  1  0  0  0
 20 21  2  0  0  0
 20  1  1  0  0  0
  1  2  2  0  0  0
  2  3  1  0  0  0
  3  4  2  0  0  0
  4  5  1  0  0  0
  5  6  1  0  0  0
  6  7  2  0  0  0
  7 11  1  0  0  0
 11 12  2  0  0  0
 12 13  1  0  0  0
 13 14  2  0  0  0
 14 15  1  0  0  0
 14 16  1  0  0  0
 16 17  2  0  0  0
  7  8  1  0  0  0
  8  9  2  0  0  0
  9  1  1  0  0  0
  8  4  1  0  0  0
 17 11  1  0  0  0
 19 22  1  0  0  0
  5 10  1  0  0  0
M  END
> <minimizedAffinity>
-5.87786

> <CNNscore>
0.4739674330

> <CNNaffinity>
5.4427232742

> <CNN_VS>
2.5796735287

> <CNNaffinity_variance>
0.2812058628

$$$$
[H]C1=C(N2C([H])([H])C([H])([H])C([H])([H])[C@@]2([H])N([H])c2nc(N([H])c3c([H])c([H])c(C(=O)N([H])C([H])([H])C(F)(F)F)c([H])c3[H])nc([H])c2C(F)(F)F)C([H])([H])C([H])([H])C(C([H])([H])[H])(C([H])([H])[H])C(=O)N([H])C([H])([H])C([H])([H])C1([H])[H]


 48 51  0  0  0  0  0  0  0  0999 V2000
    0.5356  -52.0763  -22.5729 C   0  0  0  0  0  0  0  0  0  0  0  0
    0.2558  -52.3971  -21.3090 N   0  0  0  0  0  0  0  0  0  0  0  0
   -0.4171  -53.4909  -20.8891 C   0  0  0  0  0  0  0  0  0  0  0  0
   -0.8257  -54.3062  -21.8742 N   0  0  0  0  0  0  0  0  0  0  0  0
   -0.5921  -54.0655  -23.1712 C   0  0  0  0  0  0  0  0  0  0  0  0
    0.1006  -52.9371  -23.5838 C   0  0  0  0  0  0  0  0  0  0  0  0
    0.3350  -52.6931  -25.0304 C   0  0  0  0  0  0  0  0  0  0  0  0
    1.6564  -52.6479  -25.3728 F   0  0  0  0  0  0  0  0  0  0  0  0
   -0.1775  -51.4301  -25.3872 F   0  0  0  0  0  0  0  0  0  0  0  0
   -0.4119  -53.5756  -25.8189 F   0  0  0  0  0  0  0  0  0  0  0  0
    1.2801  -50.9453  -22.9184 N   0  0  0  0  0  0  0  0  0  0  0  0
    1.4088  -50.7224  -23.9683 H   0  0  0  0  0  0  0  0  0  0  0  0
    3.1621  -49.4764  -22.3962 N   0  0  0  0  0  0  0  0  0  0  0  0
    3.5171  -48.6780  -21.2144 C   0  0  0  0  0  0  0  0  0  0  0  0
    2.2136  -48.0894  -20.8041 C   0  0  0  0  0  0  0  0  0  0  0  0
    1.1196  -48.8543  -21.5797 C   0  0  0  0  0  0  0  0  0  0  0  0
    1.8904  -50.0563  -22.0113 C   0  0  0  0  0  0  0  0  0  0  0  0
    7.2382  -50.3078  -24.1116 C   0  0  0  0  0  0  0  0  0  0  0  0
    7.9968  -49.6597  -25.1862 C   0  0  0  0  0  0  0  0  0  0  0  0
    7.3585  -48.8492  -26.1518 N   0  0  0  0  0  0  0  0  0  0  0  0
    6.1165  -48.2331  -26.2390 C   0  0  0  0  0  0  0  0  0  0  0  0
    5.3818  -48.4799  -27.2638 O   0  0  0  0  0  0  0  0  0  0  0  0
    5.4537  -47.2878  -25.3109 C   0  0  0  0  0  0  0  0  0  0  0  0
    6.2775  -46.9132  -24.1069 C   0  0  0  0  0  0  0  0  0  0  0  0
    5.4108  -45.9424  -26.1066 C   0  0  0  0  0  0  0  0  0  0  0  0
    4.0237  -47.5655  -25.0164 C   0  0  0  0  0  0  0  0  0  0  0  0
    3.5867  -48.9571  -24.8025 C   0  0  0  0  0  0  0  0  0  0  0  0
    3.9399  -49.6554  -23.5893 C   0  0  0  0  0  0  0  0  0  0  0  0
    4.9496  -50.5025  -23.4437 C   0  0  0  0  0  0  0  0  0  0  0  0
    5.9163  -50.9098  -24.4779 C   0  0  0  0  0  0  0  0  0  0  0  0
    7.9989  -48.6825  -27.0083 H   0  0  0  0  0  0  0  0  0  0  0  0
   -0.6233  -53.7115  -19.5026 N   0  0  0  0  0  0  0  0  0  0  0  0
   -0.7266  -54.7512  -19.2509 H   0  0  0  0  0  0  0  0  0  0  0  0
   -0.6971  -52.7667  -18.4771 C   0  0  0  0  0  0  0  0  0  0  0  0
   -1.5101  -52.8003  -17.3839 C   0  0  0  0  0  0  0  0  0  0  0  0
   -1.4948  -51.8249  -16.3913 C   0  0  0  0  0  0  0  0  0  0  0  0
   -0.6449  -50.7507  -16.4557 C   0  0  0  0  0  0  0  0  0  0  0  0
    0.1961  -50.6970  -17.5661 C   0  0  0  0  0  0  0  0  0  0  0  0
    0.1734  -51.6562  -18.5317 C   0  0  0  0  0  0  0  0  0  0  0  0
   -0.5989  -49.7069  -15.4444 C   0  0  0  0  0  0  0  0  0  0  0  0
   -0.3660  -50.0896  -14.2722 O   0  0  0  0  0  0  0  0  0  0  0  0
   -0.7963  -48.3583  -15.7417 N   0  0  0  0  0  0  0  0  0  0  0  0
   -0.9940  -48.1271  -16.7761 H   0  0  0  0  0  0  0  0  0  0  0  0
   -0.7720  -47.2135  -14.8865 C   0  0  0  0  0  0  0  0  0  0  0  0
   -2.0738  -46.6536  -14.4577 C   0  0  0  0  0  0  0  0  0  0  0  0
   -2.0501  -45.3011  -14.3288 F   0  0  0  0  0  0  0  0  0  0  0  0
   -3.0940  -47.0509  -15.3162 F   0  0  0  0  0  0  0  0  0  0  0  0
   -2.3628  -47.2299  -13.2119 F   0  0  0  0  0  0  0  0  0  0  0  0
 18 19  1  0  0  0
 19 20  1  0  0  0
 20 21  1  0  0  0
 21 22  2  0  0  0
 21 23  1  0  0  0
 23 24  1  0  0  0
 23 25  1  0  0  0
 23 26  1  0  0  0
 26 27  1  0  0  0
 27 28  1  0  0  0
 28 29  2  0  0  0
 29 30  1  0  0  0
 28 13  1  0  0  0
 13 14  1  0  0  0
 14 15  1  0  0  0
 15 16  1  0  0  0
 16 17  1  0  0  0
 17 11  1  0  0  0
 11  1  1  0  0  0
  1  2  2  0  0  0
  2  3  1  0  0  0
  3 32  1  0  0  0
 32 34  1  0  0  0
 34 35  2  0  0  0
 35 36  1  0  0  0
 36 37  2  0  0  0
 37 38  1  0  0  0
 38 39  2  0  0  0
 37 40  1  0  0  0
 40 41  2  0  0  0
 40 42  1  0  0  0
 42 44  1  0  0  0
 44 45  1  0  0  0
 45 46  1  0  0  0
 45 47  1  0  0  0
 45 48  1  0  0  0
  3  4  2  0  0  0
  4  5  1  0  0  0
  5  6  2  0  0  0
  6  7  1  0  0  0
  7  8  1  0  0  0
  7  9  1  0  0  0
  7 10  1  0  0  0
 30 18  1  0  0  0
 17 13  1  0  0  0
  6  1  1  0  0  0
 39 34  1  0  0  0
 20 31  1  0  0  0
 11 12  1  0  0  0
 32 33  1  0  0  0
 42 43  1  0  0  0
M  END
> <minimizedAffinity>
-8.45966

> <CNNscore>
0.5586336255

> <CNNaffinity>
7.4665589333

> <CNN_VS>
4.1710710526

> <CNNaffinity_variance>
0.0595916621

$$$$
[H]C1=C(N2C([H])([H])C([H])([H])C([H])([H])[C@@]2([H])N([H])c2nc(N([H])c3c([H])c([H])c(C(=O)N([H])C([H])([H])C(F)(F)F)c([H])c3[H])nc([H])c2C(F)(F)F)C([H])([H])C([H])([H])C(C([H])([H])[H])(C([H])([H])[H])C(=O)N([H])C([H])([H])C([H])([H])C1([H])[H]


 48 51  0  0  0  0  0  0  0  0999 V2000
    0.5936  -52.3728  -23.8772 C   0  0  0  0  0  0  0  0  0  0  0  0
    0.6968  -52.6463  -22.5760 N   0  0  0  0  0  0  0  0  0  0  0  0
    0.0356  -53.6147  -21.9049 C   0  0  0  0  0  0  0  0  0  0  0  0
   -0.7963  -54.3484  -22.6611 N   0  0  0  0  0  0  0  0  0  0  0  0
   -0.9660  -54.1462  -23.9745 C   0  0  0  0  0  0  0  0  0  0  0  0
   -0.2784  -53.1469  -24.6469 C   0  0  0  0  0  0  0  0  0  0  0  0
   -0.4960  -52.9411  -26.1020 C   0  0  0  0  0  0  0  0  0  0  0  0
    0.2692  -51.9437  -26.6362 F   0  0  0  0  0  0  0  0  0  0  0  0
   -1.8274  -52.5411  -26.3305 F   0  0  0  0  0  0  0  0  0  0  0  0
   -0.4002  -54.1486  -26.8029 F   0  0  0  0  0  0  0  0  0  0  0  0
    1.3519  -51.3797  -24.5032 N   0  0  0  0  0  0  0  0  0  0  0  0
    0.8338  -50.5162  -24.8962 H   0  0  0  0  0  0  0  0  0  0  0  0
    3.5264  -50.4017  -23.9676 N   0  0  0  0  0  0  0  0  0  0  0  0
    4.8951  -50.6817  -24.4239 C   0  0  0  0  0  0  0  0  0  0  0  0
    4.9397  -52.1686  -24.4558 C   0  0  0  0  0  0  0  0  0  0  0  0
    3.4803  -52.6572  -24.3357 C   0  0  0  0  0  0  0  0  0  0  0  0
    2.7504  -51.4013  -24.6748 C   0  0  0  0  0  0  0  0  0  0  0  0
    3.9839  -46.0761  -22.8149 C   0  0  0  0  0  0  0  0  0  0  0  0
    4.1618  -45.4254  -21.5129 C   0  0  0  0  0  0  0  0  0  0  0  0
    3.8271  -46.0852  -20.3090 N   0  0  0  0  0  0  0  0  0  0  0  0
    3.5751  -47.4059  -19.9596 C   0  0  0  0  0  0  0  0  0  0  0  0
    2.4651  -47.6829  -19.3747 O   0  0  0  0  0  0  0  0  0  0  0  0
    4.4059  -48.6176  -20.1492 C   0  0  0  0  0  0  0  0  0  0  0  0
    5.7463  -48.3625  -20.7870 C   0  0  0  0  0  0  0  0  0  0  0  0
    4.8107  -49.0309  -18.6965 C   0  0  0  0  0  0  0  0  0  0  0  0
    3.6948  -49.8150  -20.6681 C   0  0  0  0  0  0  0  0  0  0  0  0
    2.6909  -49.6535  -21.7355 C   0  0  0  0  0  0  0  0  0  0  0  0
    3.1025  -49.3513  -23.0858 C   0  0  0  0  0  0  0  0  0  0  0  0
    3.1229  -48.1484  -23.6433 C   0  0  0  0  0  0  0  0  0  0  0  0
    2.7328  -46.8760  -23.0118 C   0  0  0  0  0  0  0  0  0  0  0  0
    3.7567  -45.3860  -19.4857 H   0  0  0  0  0  0  0  0  0  0  0  0
    0.2633  -53.8020  -20.5168 N   0  0  0  0  0  0  0  0  0  0  0  0
    0.6474  -54.7772  -20.2794 H   0  0  0  0  0  0  0  0  0  0  0  0
    0.0570  -52.8949  -19.4755 C   0  0  0  0  0  0  0  0  0  0  0  0
   -0.8801  -52.9732  -18.4892 C   0  0  0  0  0  0  0  0  0  0  0  0
   -0.9944  -52.0338  -17.4688 C   0  0  0  0  0  0  0  0  0  0  0  0
   -0.1550  -50.9520  -17.3939 C   0  0  0  0  0  0  0  0  0  0  0  0
    0.8118  -50.8528  -18.3931 C   0  0  0  0  0  0  0  0  0  0  0  0
    0.9153  -51.7770  -19.3871 C   0  0  0  0  0  0  0  0  0  0  0  0
   -0.2418  -49.9447  -16.3489 C   0  0  0  0  0  0  0  0  0  0  0  0
    0.7330  -49.1590  -16.2628 O   0  0  0  0  0  0  0  0  0  0  0  0
   -1.3348  -49.8418  -15.4882 N   0  0  0  0  0  0  0  0  0  0  0  0
   -2.1219  -50.5636  -15.6366 H   0  0  0  0  0  0  0  0  0  0  0  0
   -1.5893  -48.9166  -14.4291 C   0  0  0  0  0  0  0  0  0  0  0  0
   -2.2075  -47.6202  -14.7887 C   0  0  0  0  0  0  0  0  0  0  0  0
   -3.2864  -47.7578  -15.6033 F   0  0  0  0  0  0  0  0  0  0  0  0
   -2.5374  -46.8925  -13.6497 F   0  0  0  0  0  0  0  0  0  0  0  0
   -1.2192  -46.8802  -15.4546 F   0  0  0  0  0  0  0  0  0  0  0  0
 18 19  1  0  0  0
 19 20  1  0  0  0
 20 21  1  0  0  0
 21 22  2  0  0  0
 21 23  1  0  0  0
 23 24  1  0  0  0
 23 25  1  0  0  0
 23 26  1  0  0  0
 26 27  1  0  0  0
 27 28  1  0  0  0
 28 29  2  0  0  0
 29 30  1  0  0  0
 28 13  1  0  0  0
 13 14  1  0  0  0
 14 15  1  0  0  0
 15 16  1  0  0  0
 16 17  1  0  0  0
 17 11  1  0  0  0
 11  1  1  0  0  0
  1  2  2  0  0  0
  2  3  1  0  0  0
  3 32  1  0  0  0
 32 34  1  0  0  0
 34 35  2  0  0  0
 35 36  1  0  0  0
 36 37  2  0  0  0
 37 38  1  0  0  0
 38 39  2  0  0  0
 37 40  1  0  0  0
 40 41  2  0  0  0
 40 42  1  0  0  0
 42 44  1  0  0  0
 44 45  1  0  0  0
 45 46  1  0  0  0
 45 47  1  0  0  0
 45 48  1  0  0  0
  3  4  2  0  0  0
  4  5  1  0  0  0
  5  6  2  0  0  0
  6  7  1  0  0  0
  7  8  1  0  0  0
  7  9  1  0  0  0
  7 10  1  0  0  0
 30 18  1  0  0  0
 17 13  1  0  0  0
  6  1  1  0  0  0
 39 34  1  0  0  0
 20 31  1  0  0  0
 11 12  1  0  0  0
 32 33  1  0  0  0
 42 43  1  0  0  0
M  END
> <minimizedAffinity>
-8.61009

> <CNNscore>
0.4317324162

> <CNNaffinity>
7.6259894371

> <CNN_VS>
3.2923867702

> <CNNaffinity_variance>
0.1183399931

$$$$
[H]C1=C(N2C([H])([H])C([H])([H])C([H])([H])[C@@]2([H])N([H])c2nc(N([H])c3c([H])c([H])c(C(=O)N([H])C([H])([H])C(F)(F)F)c([H])c3[H])nc([H])c2C(F)(F)F)C([H])([H])C([H])([H])C(C([H])([H])[H])(C([H])([H])[H])C(=O)N([H])C([H])([H])C([H])([H])C1([H])[H]


 48 51  0  0  0  0  0  0  0  0999 V2000
    0.9067  -52.2632  -22.7136 C   0  0  0  0  0  0  0  0  0  0  0  0
    0.6463  -52.5739  -21.4431 N   0  0  0  0  0  0  0  0  0  0  0  0
   -0.2023  -53.5315  -21.0091 C   0  0  0  0  0  0  0  0  0  0  0  0
   -0.8226  -54.2113  -21.9866 N   0  0  0  0  0  0  0  0  0  0  0  0
   -0.6251  -53.9688  -23.2893 C   0  0  0  0  0  0  0  0  0  0  0  0
    0.2502  -52.9814  -23.7163 C   0  0  0  0  0  0  0  0  0  0  0  0
    0.4399  -52.7297  -25.1681 C   0  0  0  0  0  0  0  0  0  0  0  0
    1.7271  -52.9006  -25.5916 F   0  0  0  0  0  0  0  0  0  0  0  0
    0.1357  -51.3853  -25.4600 F   0  0  0  0  0  0  0  0  0  0  0  0
   -0.4933  -53.4414  -25.9303 F   0  0  0  0  0  0  0  0  0  0  0  0
    1.8372  -51.2860  -23.0772 N   0  0  0  0  0  0  0  0  0  0  0  0
    1.4667  -50.3646  -23.5038 H   0  0  0  0  0  0  0  0  0  0  0  0
    4.0526  -50.4181  -23.6345 N   0  0  0  0  0  0  0  0  0  0  0  0
    5.4168  -50.8681  -23.3233 C   0  0  0  0  0  0  0  0  0  0  0  0
    5.3164  -51.2793  -21.8968 C   0  0  0  0  0  0  0  0  0  0  0  0
    3.8109  -51.3557  -21.5639 C   0  0  0  0  0  0  0  0  0  0  0  0
    3.2356  -51.3933  -22.9396 C   0  0  0  0  0  0  0  0  0  0  0  0
    4.5338  -48.4244  -27.6398 C   0  0  0  0  0  0  0  0  0  0  0  0
    4.7819  -47.0281  -28.0127 C   0  0  0  0  0  0  0  0  0  0  0  0
    4.5260  -45.9696  -27.1123 N   0  0  0  0  0  0  0  0  0  0  0  0
    4.3086  -45.8869  -25.7427 C   0  0  0  0  0  0  0  0  0  0  0  0
    3.2383  -45.3106  -25.3269 O   0  0  0  0  0  0  0  0  0  0  0  0
    5.1390  -46.3689  -24.6146 C   0  0  0  0  0  0  0  0  0  0  0  0
    6.4365  -47.0143  -25.0250 C   0  0  0  0  0  0  0  0  0  0  0  0
    5.6335  -45.0578  -23.9206 C   0  0  0  0  0  0  0  0  0  0  0  0
    4.4106  -47.0833  -23.5339 C   0  0  0  0  0  0  0  0  0  0  0  0
    3.3435  -48.0363  -23.8891 C   0  0  0  0  0  0  0  0  0  0  0  0
    3.6712  -49.3161  -24.4715 C   0  0  0  0  0  0  0  0  0  0  0  0
    3.6462  -49.6133  -25.7635 C   0  0  0  0  0  0  0  0  0  0  0  0
    3.2813  -48.7119  -26.8699 C   0  0  0  0  0  0  0  0  0  0  0  0
    4.4975  -45.0171  -27.6256 H   0  0  0  0  0  0  0  0  0  0  0  0
   -0.3636  -53.7634  -19.6185 N   0  0  0  0  0  0  0  0  0  0  0  0
   -0.3270  -54.8050  -19.3567 H   0  0  0  0  0  0  0  0  0  0  0  0
   -0.5501  -52.8261  -18.6004 C   0  0  0  0  0  0  0  0  0  0  0  0
   -1.4277  -52.9038  -17.5608 C   0  0  0  0  0  0  0  0  0  0  0  0
   -1.5249  -51.9314  -16.5699 C   0  0  0  0  0  0  0  0  0  0  0  0
   -0.7284  -50.8152  -16.5812 C   0  0  0  0  0  0  0  0  0  0  0  0
    0.1772  -50.7159  -17.6362 C   0  0  0  0  0  0  0  0  0  0  0  0
    0.2645  -51.6726  -18.6007 C   0  0  0  0  0  0  0  0  0  0  0  0
   -0.7996  -49.7730  -15.5698 C   0  0  0  0  0  0  0  0  0  0  0  0
   -0.9051  -50.1674  -14.3831 O   0  0  0  0  0  0  0  0  0  0  0  0
   -0.7523  -48.4140  -15.8812 N   0  0  0  0  0  0  0  0  0  0  0  0
   -0.6648  -48.1726  -16.9285 H   0  0  0  0  0  0  0  0  0  0  0  0
   -0.7943  -47.2707  -15.0247 C   0  0  0  0  0  0  0  0  0  0  0  0
   -2.1196  -46.8410  -14.5238 C   0  0  0  0  0  0  0  0  0  0  0  0
   -2.3945  -47.3178  -13.2815 F   0  0  0  0  0  0  0  0  0  0  0  0
   -2.2404  -45.4553  -14.5597 F   0  0  0  0  0  0  0  0  0  0  0  0
   -3.0674  -47.3410  -15.4290 F   0  0  0  0  0  0  0  0  0  0  0  0
 18 19  1  0  0  0
 19 20  1  0  0  0
 20 21  1  0  0  0
 21 22  2  0  0  0
 21 23  1  0  0  0
 23 24  1  0  0  0
 23 25  1  0  0  0
 23 26  1  0  0  0
 26 27  1  0  0  0
 27 28  1  0  0  0
 28 29  2  0  0  0
 29 30  1  0  0  0
 28 13  1  0  0  0
 13 14  1  0  0  0
 14 15  1  0  0  0
 15 16  1  0  0  0
 16 17  1  0  0  0
 17 11  1  0  0  0
 11  1  1  0  0  0
  1  2  2  0  0  0
  2  3  1  0  0  0
  3 32  1  0  0  0
 32 34  1  0  0  0
 34 35  2  0  0  0
 35 36  1  0  0  0
 36 37  2  0  0  0
 37 38  1  0  0  0
 38 39  2  0  0  0
 37 40  1  0  0  0
 40 41  2  0  0  0
 40 42  1  0  0  0
 42 44  1  0  0  0
 44 45  1  0  0  0
 45 46  1  0  0  0
 45 47  1  0  0  0
 45 48  1  0  0  0
  3  4  2  0  0  0
  4  5  1  0  0  0
  5  6  2  0  0  0
  6  7  1  0  0  0
  7  8  1  0  0  0
  7  9  1  0  0  0
  7 10  1  0  0  0
 30 18  1  0  0  0
 17 13  1  0  0  0
  6  1  1  0  0  0
 39 34  1  0  0  0
 20 31  1  0  0  0
 11 12  1  0  0  0
 32 33  1  0  0  0
 42 43  1  0  0  0
M  END
> <minimizedAffinity>
-8.50347

> <CNNscore>
0.3485734761

> <CNNaffinity>
7.3561844826

> <CNN_VS>
2.5641708374

> <CNNaffinity_variance>
0.1368706524

$$$$
[H]C1=C(N2C([H])([H])C([H])([H])C([H])([H])[C@@]2([H])N([H])c2nc(N([H])c3c([H])c([H])c(C(=O)N([H])C([H])([H])C(F)(F)F)c([H])c3[H])nc([H])c2C(F)(F)F)C([H])([H])C([H])([H])C(C([H])([H])[H])(C([H])([H])[H])C(=O)N([H])C([H])([H])C([H])([H])C1([H])[H]


 48 51  0  0  0  0  0  0  0  0999 V2000
    1.1049  -52.2239  -23.9312 C   0  0  0  0  0  0  0  0  0  0  0  0
    1.0121  -52.4721  -22.6242 N   0  0  0  0  0  0  0  0  0  0  0  0
    0.2134  -53.3900  -22.0367 C   0  0  0  0  0  0  0  0  0  0  0  0
   -0.5436  -54.0980  -22.8898 N   0  0  0  0  0  0  0  0  0  0  0  0
   -0.5185  -53.9178  -24.2171 C   0  0  0  0  0  0  0  0  0  0  0  0
    0.3080  -52.9706  -24.8028 C   0  0  0  0  0  0  0  0  0  0  0  0
    0.3055  -52.7877  -26.2771 C   0  0  0  0  0  0  0  0  0  0  0  0
   -0.1817  -51.5769  -26.6796 F   0  0  0  0  0  0  0  0  0  0  0  0
   -0.5466  -53.7394  -26.8715 F   0  0  0  0  0  0  0  0  0  0  0  0
    1.5565  -53.0917  -26.8258 F   0  0  0  0  0  0  0  0  0  0  0  0
    1.9946  -51.2853  -24.4609 N   0  0  0  0  0  0  0  0  0  0  0  0
    1.6319  -50.6190  -25.2309 H   0  0  0  0  0  0  0  0  0  0  0  0
    3.9103  -49.7959  -24.1718 N   0  0  0  0  0  0  0  0  0  0  0  0
    5.3062  -50.0190  -23.7694 C   0  0  0  0  0  0  0  0  0  0  0  0
    5.1810  -50.9971  -22.6551 C   0  0  0  0  0  0  0  0  0  0  0  0
    3.7357  -51.5375  -22.7016 C   0  0  0  0  0  0  0  0  0  0  0  0
    3.3421  -51.1264  -24.0804 C   0  0  0  0  0  0  0  0  0  0  0  0
    4.0453  -46.4077  -27.1299 C   0  0  0  0  0  0  0  0  0  0  0  0
    3.9861  -44.9532  -26.9530 C   0  0  0  0  0  0  0  0  0  0  0  0
    3.4758  -44.3764  -25.7682 N   0  0  0  0  0  0  0  0  0  0  0  0
    3.2077  -44.8516  -24.4907 C   0  0  0  0  0  0  0  0  0  0  0  0
    2.0247  -44.6936  -24.0149 O   0  0  0  0  0  0  0  0  0  0  0  0
    4.0932  -45.5432  -23.5253 C   0  0  0  0  0  0  0  0  0  0  0  0
    5.5127  -45.7211  -23.9960 C   0  0  0  0  0  0  0  0  0  0  0  0
    4.2635  -44.5128  -22.3615 C   0  0  0  0  0  0  0  0  0  0  0  0
    3.5128  -46.7356  -22.8543 C   0  0  0  0  0  0  0  0  0  0  0  0
    2.6953  -47.6795  -23.6378 C   0  0  0  0  0  0  0  0  0  0  0  0
    3.3160  -48.5608  -24.5982 C   0  0  0  0  0  0  0  0  0  0  0  0
    3.3936  -48.3569  -25.9061 C   0  0  0  0  0  0  0  0  0  0  0  0
    2.8676  -47.2008  -26.6521 C   0  0  0  0  0  0  0  0  0  0  0  0
    3.2498  -43.3273  -25.9092 H   0  0  0  0  0  0  0  0  0  0  0  0
    0.2362  -53.5563  -20.6276 N   0  0  0  0  0  0  0  0  0  0  0  0
    0.2758  -54.5866  -20.3243 H   0  0  0  0  0  0  0  0  0  0  0  0
    0.2195  -52.5704  -19.6390 C   0  0  0  0  0  0  0  0  0  0  0  0
    0.8710  -51.3736  -19.6590 C   0  0  0  0  0  0  0  0  0  0  0  0
    0.7724  -50.4339  -18.6372 C   0  0  0  0  0  0  0  0  0  0  0  0
   -0.0007  -50.6610  -17.5275 C   0  0  0  0  0  0  0  0  0  0  0  0
   -0.6764  -51.8794  -17.4869 C   0  0  0  0  0  0  0  0  0  0  0  0
   -0.5733  -52.7921  -18.4917 C   0  0  0  0  0  0  0  0  0  0  0  0
   -0.1285  -49.7099  -16.4351 C   0  0  0  0  0  0  0  0  0  0  0  0
   -1.0829  -49.9082  -15.6448 O   0  0  0  0  0  0  0  0  0  0  0  0
    0.7483  -48.6391  -16.2597 N   0  0  0  0  0  0  0  0  0  0  0  0
    1.5348  -48.5484  -16.9916 H   0  0  0  0  0  0  0  0  0  0  0  0
    0.7793  -47.6302  -15.2478 C   0  0  0  0  0  0  0  0  0  0  0  0
    1.2975  -48.0152  -13.9154 C   0  0  0  0  0  0  0  0  0  0  0  0
    0.3418  -48.5519  -13.1122 F   0  0  0  0  0  0  0  0  0  0  0  0
    2.3847  -48.8753  -14.0332 F   0  0  0  0  0  0  0  0  0  0  0  0
    1.7883  -46.8409  -13.3257 F   0  0  0  0  0  0  0  0  0  0  0  0
 18 19  1  0  0  0
 19 20  1  0  0  0
 20 21  1  0  0  0
 21 22  2  0  0  0
 21 23  1  0  0  0
 23 24  1  0  0  0
 23 25  1  0  0  0
 23 26  1  0  0  0
 26 27  1  0  0  0
 27 28  1  0  0  0
 28 29  2  0  0  0
 29 30  1  0  0  0
 28 13  1  0  0  0
 13 14  1  0  0  0
 14 15  1  0  0  0
 15 16  1  0  0  0
 16 17  1  0  0  0
 17 11  1  0  0  0
 11  1  1  0  0  0
  1  2  2  0  0  0
  2  3  1  0  0  0
  3 32  1  0  0  0
 32 34  1  0  0  0
 34 35  2  0  0  0
 35 36  1  0  0  0
 36 37  2  0  0  0
 37 38  1  0  0  0
 38 39  2  0  0  0
 37 40  1  0  0  0
 40 41  2  0  0  0
 40 42  1  0  0  0
 42 44  1  0  0  0
 44 45  1  0  0  0
 45 46  1  0  0  0
 45 47  1  0  0  0
 45 48  1  0  0  0
  3  4  2  0  0  0
  4  5  1  0  0  0
  5  6  2  0  0  0
  6  7  1  0  0  0
  7  8  1  0  0  0
  7  9  1  0  0  0
  7 10  1  0  0  0
 30 18  1  0  0  0
 17 13  1  0  0  0
  6  1  1  0  0  0
 39 34  1  0  0  0
 20 31  1  0  0  0
 11 12  1  0  0  0
 32 33  1  0  0  0
 42 43  1  0  0  0
M  END
> <minimizedAffinity>
-8.18984

> <CNNscore>
0.3259997368

> <CNNaffinity>
7.5141272545

> <CNN_VS>
2.4496035576

> <CNNaffinity_variance>
0.2048396319

$$$$
[H]C1=C(N2C([H])([H])C([H])([H])C([H])([H])[C@@]2([H])N([H])c2nc(N([H])c3c([H])c([H])c(C(=O)N([H])C([H])([H])C(F)(F)F)c([H])c3[H])nc([H])c2C(F)(F)F)C([H])([H])C([H])([H])C(C([H])([H])[H])(C([H])([H])[H])C(=O)N([H])C([H])([H])C([H])([H])C1([H])[H]


 48 51  0  0  0  0  0  0  0  0999 V2000
    0.7386  -52.2588  -23.7193 C   0  0  0  0  0  0  0  0  0  0  0  0
    0.7088  -52.4873  -22.4058 N   0  0  0  0  0  0  0  0  0  0  0  0
    0.0513  -53.4884  -21.7804 C   0  0  0  0  0  0  0  0  0  0  0  0
   -0.6251  -54.3086  -22.6001 N   0  0  0  0  0  0  0  0  0  0  0  0
   -0.6540  -54.1568  -23.9309 C   0  0  0  0  0  0  0  0  0  0  0  0
    0.0272  -53.1229  -24.5556 C   0  0  0  0  0  0  0  0  0  0  0  0
   -0.0327  -52.9753  -26.0327 C   0  0  0  0  0  0  0  0  0  0  0  0
   -0.7002  -51.8578  -26.4465 F   0  0  0  0  0  0  0  0  0  0  0  0
   -0.7485  -54.0541  -26.5883 F   0  0  0  0  0  0  0  0  0  0  0  0
    1.2376  -53.1056  -26.6052 F   0  0  0  0  0  0  0  0  0  0  0  0
    1.4848  -51.2239  -24.2896 N   0  0  0  0  0  0  0  0  0  0  0  0
    0.9584  -50.3391  -24.6190 H   0  0  0  0  0  0  0  0  0  0  0  0
    3.6550  -50.2239  -23.7777 N   0  0  0  0  0  0  0  0  0  0  0  0
    5.0205  -50.4851  -24.2547 C   0  0  0  0  0  0  0  0  0  0  0  0
    5.0818  -51.9711  -24.2967 C   0  0  0  0  0  0  0  0  0  0  0  0
    3.6299  -52.4775  -24.1597 C   0  0  0  0  0  0  0  0  0  0  0  0
    2.8809  -51.2280  -24.4805 C   0  0  0  0  0  0  0  0  0  0  0  0
    3.8112  -45.8322  -22.8096 C   0  0  0  0  0  0  0  0  0  0  0  0
    4.0688  -45.1166  -21.5559 C   0  0  0  0  0  0  0  0  0  0  0  0
    3.9373  -45.7568  -20.3031 N   0  0  0  0  0  0  0  0  0  0  0  0
    3.8571  -47.0805  -19.8893 C   0  0  0  0  0  0  0  0  0  0  0  0
    2.8522  -47.4376  -19.1728 O   0  0  0  0  0  0  0  0  0  0  0  0
    4.7765  -48.2149  -20.1386 C   0  0  0  0  0  0  0  0  0  0  0  0
    6.0055  -47.8599  -20.9336 C   0  0  0  0  0  0  0  0  0  0  0  0
    5.3799  -48.5303  -18.7310 C   0  0  0  0  0  0  0  0  0  0  0  0
    4.1330  -49.4937  -20.5377 C   0  0  0  0  0  0  0  0  0  0  0  0
    3.0050  -49.4701  -21.4865 C   0  0  0  0  0  0  0  0  0  0  0  0
    3.2313  -49.1842  -22.8834 C   0  0  0  0  0  0  0  0  0  0  0  0
    3.0708  -48.0077  -23.4737 C   0  0  0  0  0  0  0  0  0  0  0  0
    2.6306  -46.7538  -22.8381 C   0  0  0  0  0  0  0  0  0  0  0  0
    3.8911  -45.0353  -19.4975 H   0  0  0  0  0  0  0  0  0  0  0  0
    0.1277  -53.6184  -20.3694 N   0  0  0  0  0  0  0  0  0  0  0  0
    0.2368  -54.6369  -20.0442 H   0  0  0  0  0  0  0  0  0  0  0  0
    0.0844  -52.6111  -19.4035 C   0  0  0  0  0  0  0  0  0  0  0  0
   -0.6517  -52.6015  -18.2566 C   0  0  0  0  0  0  0  0  0  0  0  0
   -0.6097  -51.5626  -17.3316 C   0  0  0  0  0  0  0  0  0  0  0  0
    0.1898  -50.4650  -17.5230 C   0  0  0  0  0  0  0  0  0  0  0  0
    0.9518  -50.4547  -18.6901 C   0  0  0  0  0  0  0  0  0  0  0  0
    0.9036  -51.4759  -19.5889 C   0  0  0  0  0  0  0  0  0  0  0  0
    0.2609  -49.3556  -16.5858 C   0  0  0  0  0  0  0  0  0  0  0  0
   -0.7566  -49.1733  -15.8743 O   0  0  0  0  0  0  0  0  0  0  0  0
    1.3839  -48.5361  -16.4696 N   0  0  0  0  0  0  0  0  0  0  0  0
    2.2074  -48.7682  -17.1257 H   0  0  0  0  0  0  0  0  0  0  0  0
    1.6281  -47.4255  -15.6038 C   0  0  0  0  0  0  0  0  0  0  0  0
    2.9714  -46.8048  -15.6518 C   0  0  0  0  0  0  0  0  0  0  0  0
    3.9603  -47.7046  -15.8946 F   0  0  0  0  0  0  0  0  0  0  0  0
    3.0081  -45.7674  -16.5782 F   0  0  0  0  0  0  0  0  0  0  0  0
    3.1822  -46.2168  -14.3958 F   0  0  0  0  0  0  0  0  0  0  0  0
 18 19  1  0  0  0
 19 20  1  0  0  0
 20 21  1  0  0  0
 21 22  2  0  0  0
 21 23  1  0  0  0
 23 24  1  0  0  0
 23 25  1  0  0  0
 23 26  1  0  0  0
 26 27  1  0  0  0
 27 28  1  0  0  0
 28 29  2  0  0  0
 29 30  1  0  0  0
 28 13  1  0  0  0
 13 14  1  0  0  0
 14 15  1  0  0  0
 15 16  1  0  0  0
 16 17  1  0  0  0
 17 11  1  0  0  0
 11  1  1  0  0  0
  1  2  2  0  0  0
  2  3  1  0  0  0
  3 32  1  0  0  0
 32 34  1  0  0  0
 34 35  2  0  0  0
 35 36  1  0  0  0
 36 37  2  0  0  0
 37 38  1  0  0  0
 38 39  2  0  0  0
 37 40  1  0  0  0
 40 41  2  0  0  0
 40 42  1  0  0  0
 42 44  1  0  0  0
 44 45  1  0  0  0
 45 46  1  0  0  0
 45 47  1  0  0  0
 45 48  1  0  0  0
  3  4  2  0  0  0
  4  5  1  0  0  0
  5  6  2  0  0  0
  6  7  1  0  0  0
  7  8  1  0  0  0
  7  9  1  0  0  0
  7 10  1  0  0  0
 30 18  1  0  0  0
 17 13  1  0  0  0
  6  1  1  0  0  0
 39 34  1  0  0  0
 20 31  1  0  0  0
 11 12  1  0  0  0
 32 33  1  0  0  0
 42 43  1  0  0  0
M  END
> <minimizedAffinity>
-8.02965

> <CNNscore>
0.2806634307

> <CNNaffinity>
7.3965940475

> <CNN_VS>
2.0759534836

> <CNNaffinity_variance>
0.2835620344

$$$$
[H]C1=C(N2C([H])([H])C([H])([H])C([H])([H])[C@@]2([H])N([H])c2nc(N([H])c3c([H])c([H])c(C(=O)N([H])C([H])([H])C(F)(F)F)c([H])c3[H])nc([H])c2C(F)(F)F)C([H])([H])C([H])([H])C(C([H])([H])[H])(C([H])([H])[H])C(=O)N([H])C([H])([H])C([H])([H])C1([H])[H]


 48 51  0  0  0  0  0  0  0  0999 V2000
    0.0840  -51.9038  -19.1484 C   0  0  0  0  0  0  0  0  0  0  0  0
    0.5241  -52.1614  -20.3806 N   0  0  0  0  0  0  0  0  0  0  0  0
    0.1040  -53.1579  -21.1906 C   0  0  0  0  0  0  0  0  0  0  0  0
   -0.8499  -53.9409  -20.6623 N   0  0  0  0  0  0  0  0  0  0  0  0
   -1.3518  -53.7596  -19.4335 C   0  0  0  0  0  0  0  0  0  0  0  0
   -0.9083  -52.7309  -18.6159 C   0  0  0  0  0  0  0  0  0  0  0  0
   -1.4775  -52.5622  -17.2541 C   0  0  0  0  0  0  0  0  0  0  0  0
   -2.6907  -53.1668  -17.0870 F   0  0  0  0  0  0  0  0  0  0  0  0
   -1.7138  -51.1958  -17.0049 F   0  0  0  0  0  0  0  0  0  0  0  0
   -0.5449  -52.9099  -16.2702 F   0  0  0  0  0  0  0  0  0  0  0  0
    0.5411  -50.8200  -18.3938 N   0  0  0  0  0  0  0  0  0  0  0  0
   -0.0167  -49.8954  -18.4421 H   0  0  0  0  0  0  0  0  0  0  0  0
    2.9425  -50.4300  -18.1631 N   0  0  0  0  0  0  0  0  0  0  0  0
    3.8881  -50.6069  -17.0519 C   0  0  0  0  0  0  0  0  0  0  0  0
    3.1220  -50.1083  -15.8779 C   0  0  0  0  0  0  0  0  0  0  0  0
    1.6514  -49.9833  -16.3304 C   0  0  0  0  0  0  0  0  0  0  0  0
    1.6809  -50.8199  -17.5651 C   0  0  0  0  0  0  0  0  0  0  0  0
    6.0959  -50.1573  -21.3616 C   0  0  0  0  0  0  0  0  0  0  0  0
    6.4960  -49.0601  -22.2483 C   0  0  0  0  0  0  0  0  0  0  0  0
    5.6409  -47.9617  -22.4914 N   0  0  0  0  0  0  0  0  0  0  0  0
    4.5038  -47.4570  -21.8733 C   0  0  0  0  0  0  0  0  0  0  0  0
    3.4443  -47.2929  -22.5813 O   0  0  0  0  0  0  0  0  0  0  0  0
    4.2849  -47.0490  -20.4661 C   0  0  0  0  0  0  0  0  0  0  0  0
    5.5004  -47.1683  -19.5848 C   0  0  0  0  0  0  0  0  0  0  0  0
    4.0925  -45.4993  -20.5462 C   0  0  0  0  0  0  0  0  0  0  0  0
    3.0230  -47.5263  -19.8428 C   0  0  0  0  0  0  0  0  0  0  0  0
    2.5636  -48.9027  -20.1033 C   0  0  0  0  0  0  0  0  0  0  0  0
    3.2465  -50.0259  -19.5065 C   0  0  0  0  0  0  0  0  0  0  0  0
    4.1656  -50.7802  -20.0936 C   0  0  0  0  0  0  0  0  0  0  0  0
    4.6804  -50.6365  -21.4662 C   0  0  0  0  0  0  0  0  0  0  0  0
    5.9622  -47.3998  -23.3590 H   0  0  0  0  0  0  0  0  0  0  0  0
    0.6532  -53.2977  -22.4916 N   0  0  0  0  0  0  0  0  0  0  0  0
    0.4056  -54.2345  -22.9564 H   0  0  0  0  0  0  0  0  0  0  0  0
    1.4393  -52.3881  -23.2018 C   0  0  0  0  0  0  0  0  0  0  0  0
    2.6625  -52.6159  -23.7577 C   0  0  0  0  0  0  0  0  0  0  0  0
    3.3644  -51.6540  -24.4781 C   0  0  0  0  0  0  0  0  0  0  0  0
    2.8575  -50.3951  -24.6747 C   0  0  0  0  0  0  0  0  0  0  0  0
    1.6067  -50.1408  -24.1145 C   0  0  0  0  0  0  0  0  0  0  0  0
    0.9281  -51.0886  -23.4115 C   0  0  0  0  0  0  0  0  0  0  0  0
    3.5582  -49.3588  -25.4160 C   0  0  0  0  0  0  0  0  0  0  0  0
    2.8555  -48.3964  -25.8095 O   0  0  0  0  0  0  0  0  0  0  0  0
    4.9269  -49.4136  -25.6800 N   0  0  0  0  0  0  0  0  0  0  0  0
    5.4455  -50.2814  -25.3050 H   0  0  0  0  0  0  0  0  0  0  0  0
    5.7693  -48.4891  -26.3715 C   0  0  0  0  0  0  0  0  0  0  0  0
    7.2125  -48.5015  -26.0411 C   0  0  0  0  0  0  0  0  0  0  0  0
    8.0031  -48.2617  -27.1199 F   0  0  0  0  0  0  0  0  0  0  0  0
    7.4957  -47.6088  -25.0121 F   0  0  0  0  0  0  0  0  0  0  0  0
    7.4940  -49.7808  -25.5392 F   0  0  0  0  0  0  0  0  0  0  0  0
 18 19  1  0  0  0
 19 20  1  0  0  0
 20 21  1  0  0  0
 21 22  2  0  0  0
 21 23  1  0  0  0
 23 24  1  0  0  0
 23 25  1  0  0  0
 23 26  1  0  0  0
 26 27  1  0  0  0
 27 28  1  0  0  0
 28 29  2  0  0  0
 29 30  1  0  0  0
 28 13  1  0  0  0
 13 14  1  0  0  0
 14 15  1  0  0  0
 15 16  1  0  0  0
 16 17  1  0  0  0
 17 11  1  0  0  0
 11  1  1  0  0  0
  1  2  2  0  0  0
  2  3  1  0  0  0
  3 32  1  0  0  0
 32 34  1  0  0  0
 34 35  2  0  0  0
 35 36  1  0  0  0
 36 37  2  0  0  0
 37 38  1  0  0  0
 38 39  2  0  0  0
 37 40  1  0  0  0
 40 41  2  0  0  0
 40 42  1  0  0  0
 42 44  1  0  0  0
 44 45  1  0  0  0
 45 46  1  0  0  0
 45 47  1  0  0  0
 45 48  1  0  0  0
  3  4  2  0  0  0
  4  5  1  0  0  0
  5  6  2  0  0  0
  6  7  1  0  0  0
  7  8  1  0  0  0
  7  9  1  0  0  0
  7 10  1  0  0  0
 30 18  1  0  0  0
 17 13  1  0  0  0
  6  1  1  0  0  0
 39 34  1  0  0  0
 20 31  1  0  0  0
 11 12  1  0  0  0
 32 33  1  0  0  0
 42 43  1  0  0  0
M  END
> <minimizedAffinity>
-6.54845

> <CNNscore>
0.2675699294

> <CNNaffinity>
6.7935500145

> <CNN_VS>
1.8177497387

> <CNNaffinity_variance>
0.1974694580

$$$$
[H]C1=C(N2C([H])([H])C([H])([H])C([H])([H])[C@@]2([H])N([H])c2nc(N([H])c3c([H])c([H])c(C(=O)N([H])C([H])([H])C(F)(F)F)c([H])c3[H])nc([H])c2C(F)(F)F)C([H])([H])C([H])([H])C(C([H])([H])[H])(C([H])([H])[H])C(=O)N([H])C([H])([H])C([H])([H])C1([H])[H]


 48 51  0  0  0  0  0  0  0  0999 V2000
    1.5879  -51.5974  -23.3177 C   0  0  0  0  0  0  0  0  0  0  0  0
    1.4422  -52.0480  -22.0710 N   0  0  0  0  0  0  0  0  0  0  0  0
    0.4687  -52.8717  -21.6243 C   0  0  0  0  0  0  0  0  0  0  0  0
   -0.4168  -53.2474  -22.5608 N   0  0  0  0  0  0  0  0  0  0  0  0
   -0.3515  -52.8448  -23.8369 C   0  0  0  0  0  0  0  0  0  0  0  0
    0.6554  -51.9989  -24.2776 C   0  0  0  0  0  0  0  0  0  0  0  0
    0.6947  -51.5621  -25.6970 C   0  0  0  0  0  0  0  0  0  0  0  0
    1.5079  -52.3262  -26.4845 F   0  0  0  0  0  0  0  0  0  0  0  0
    1.2273  -50.2603  -25.7778 F   0  0  0  0  0  0  0  0  0  0  0  0
   -0.5965  -51.4120  -26.2152 F   0  0  0  0  0  0  0  0  0  0  0  0
    2.6545  -50.7828  -23.7069 N   0  0  0  0  0  0  0  0  0  0  0  0
    2.5034  -49.7124  -23.7068 H   0  0  0  0  0  0  0  0  0  0  0  0
    5.0820  -50.6379  -23.4657 N   0  0  0  0  0  0  0  0  0  0  0  0
    6.2025  -51.2860  -24.1619 C   0  0  0  0  0  0  0  0  0  0  0  0
    5.7352  -52.6905  -24.3132 C   0  0  0  0  0  0  0  0  0  0  0  0
    4.2255  -52.6911  -23.9908 C   0  0  0  0  0  0  0  0  0  0  0  0
    3.9276  -51.2342  -24.1085 C   0  0  0  0  0  0  0  0  0  0  0  0
    3.4590  -49.1549  -19.5395 C   0  0  0  0  0  0  0  0  0  0  0  0
    3.0250  -47.8244  -19.1015 C   0  0  0  0  0  0  0  0  0  0  0  0
    3.4245  -46.6568  -19.7899 N   0  0  0  0  0  0  0  0  0  0  0  0
    3.9757  -46.4033  -21.0395 C   0  0  0  0  0  0  0  0  0  0  0  0
    5.0724  -45.7368  -21.1007 O   0  0  0  0  0  0  0  0  0  0  0  0
    3.4954  -46.7831  -22.3884 C   0  0  0  0  0  0  0  0  0  0  0  0
    2.1859  -47.5271  -22.3988 C   0  0  0  0  0  0  0  0  0  0  0  0
    3.1005  -45.4213  -23.0477 C   0  0  0  0  0  0  0  0  0  0  0  0
    4.5234  -47.3328  -23.3103 C   0  0  0  0  0  0  0  0  0  0  0  0
    5.5309  -48.2750  -22.7903 C   0  0  0  0  0  0  0  0  0  0  0  0
    5.1587  -49.6275  -22.4489 C   0  0  0  0  0  0  0  0  0  0  0  0
    4.8763  -50.0744  -21.2328 C   0  0  0  0  0  0  0  0  0  0  0  0
    4.8831  -49.2956  -19.9825 C   0  0  0  0  0  0  0  0  0  0  0  0
    3.2536  -45.7714  -19.1911 H   0  0  0  0  0  0  0  0  0  0  0  0
    0.4529  -53.2852  -20.2670 N   0  0  0  0  0  0  0  0  0  0  0  0
    0.7947  -54.2947  -20.1288 H   0  0  0  0  0  0  0  0  0  0  0  0
    0.0643  -52.5531  -19.1433 C   0  0  0  0  0  0  0  0  0  0  0  0
   -0.8981  -52.8846  -18.2372 C   0  0  0  0  0  0  0  0  0  0  0  0
   -1.1994  -52.1052  -17.1243 C   0  0  0  0  0  0  0  0  0  0  0  0
   -0.5335  -50.9340  -16.8686 C   0  0  0  0  0  0  0  0  0  0  0  0
    0.4557  -50.5761  -17.7831 C   0  0  0  0  0  0  0  0  0  0  0  0
    0.7430  -51.3455  -18.8688 C   0  0  0  0  0  0  0  0  0  0  0  0
   -0.8189  -50.0871  -15.7217 C   0  0  0  0  0  0  0  0  0  0  0  0
   -1.2115  -50.6794  -14.6873 O   0  0  0  0  0  0  0  0  0  0  0  0
   -0.6685  -48.7005  -15.7508 N   0  0  0  0  0  0  0  0  0  0  0  0
   -0.3298  -48.2821  -16.6851 H   0  0  0  0  0  0  0  0  0  0  0  0
   -0.8865  -47.7285  -14.7260 C   0  0  0  0  0  0  0  0  0  0  0  0
   -2.2888  -47.3846  -14.3982 C   0  0  0  0  0  0  0  0  0  0  0  0
   -2.8192  -48.1886  -13.4397 F   0  0  0  0  0  0  0  0  0  0  0  0
   -2.4023  -46.0453  -14.0388 F   0  0  0  0  0  0  0  0  0  0  0  0
   -3.0224  -47.5362  -15.5841 F   0  0  0  0  0  0  0  0  0  0  0  0
 18 19  1  0  0  0
 19 20  1  0  0  0
 20 21  1  0  0  0
 21 22  2  0  0  0
 21 23  1  0  0  0
 23 24  1  0  0  0
 23 25  1  0  0  0
 23 26  1  0  0  0
 26 27  1  0  0  0
 27 28  1  0  0  0
 28 29  2  0  0  0
 29 30  1  0  0  0
 28 13  1  0  0  0
 13 14  1  0  0  0
 14 15  1  0  0  0
 15 16  1  0  0  0
 16 17  1  0  0  0
 17 11  1  0  0  0
 11  1  1  0  0  0
  1  2  2  0  0  0
  2  3  1  0  0  0
  3 32  1  0  0  0
 32 34  1  0  0  0
 34 35  2  0  0  0
 35 36  1  0  0  0
 36 37  2  0  0  0
 37 38  1  0  0  0
 38 39  2  0  0  0
 37 40  1  0  0  0
 40 41  2  0  0  0
 40 42  1  0  0  0
 42 44  1  0  0  0
 44 45  1  0  0  0
 45 46  1  0  0  0
 45 47  1  0  0  0
 45 48  1  0  0  0
  3  4  2  0  0  0
  4  5  1  0  0  0
  5  6  2  0  0  0
  6  7  1  0  0  0
  7  8  1  0  0  0
  7  9  1  0  0  0
  7 10  1  0  0  0
 30 18  1  0  0  0
 17 13  1  0  0  0
  6  1  1  0  0  0
 39 34  1  0  0  0
 20 31  1  0  0  0
 11 12  1  0  0  0
 32 33  1  0  0  0
 42 43  1  0  0  0
M  END
> <minimizedAffinity>
-8.21059

> <CNNscore>
0.2014221549

> <CNNaffinity>
7.1420135498

> <CNN_VS>
1.4385597706

> <CNNaffinity_variance>
0.1825275570

$$$$
[H]C1=C(N2C([H])([H])C([H])([H])C([H])([H])[C@@]2([H])N([H])c2nc(N([H])c3c([H])c([H])c(C(=O)N([H])C([H])([H])C(F)(F)F)c([H])c3[H])nc([H])c2C(F)(F)F)C([H])([H])C([H])([H])C(C([H])([H])[H])(C([H])([H])[H])C(=O)N([H])C([H])([H])C([H])([H])C1([H])[H]


 48 51  0  0  0  0  0  0  0  0999 V2000
    1.2073  -52.4053  -25.4717 C   0  0  0  0  0  0  0  0  0  0  0  0
    0.5724  -52.5417  -24.3069 N   0  0  0  0  0  0  0  0  0  0  0  0
   -0.3057  -53.5156  -23.9811 C   0  0  0  0  0  0  0  0  0  0  0  0
   -0.5315  -54.4112  -24.9553 N   0  0  0  0  0  0  0  0  0  0  0  0
    0.0589  -54.3542  -26.1566 C   0  0  0  0  0  0  0  0  0  0  0  0
    0.9579  -53.3469  -26.4733 C   0  0  0  0  0  0  0  0  0  0  0  0
    1.5884  -53.3054  -27.8178 C   0  0  0  0  0  0  0  0  0  0  0  0
    1.1068  -52.3103  -28.6199 F   0  0  0  0  0  0  0  0  0  0  0  0
    1.3076  -54.4998  -28.5103 F   0  0  0  0  0  0  0  0  0  0  0  0
    2.9845  -53.3124  -27.7214 F   0  0  0  0  0  0  0  0  0  0  0  0
    2.1388  -51.3912  -25.7103 N   0  0  0  0  0  0  0  0  0  0  0  0
    1.8258  -50.5419  -26.3012 H   0  0  0  0  0  0  0  0  0  0  0  0
    4.0494  -50.0851  -24.9255 N   0  0  0  0  0  0  0  0  0  0  0  0
    5.4253  -50.4409  -24.5508 C   0  0  0  0  0  0  0  0  0  0  0  0
    5.2465  -51.6979  -23.7750 C   0  0  0  0  0  0  0  0  0  0  0  0
    3.8013  -52.1750  -24.0334 C   0  0  0  0  0  0  0  0  0  0  0  0
    3.4697  -51.3742  -25.2474 C   0  0  0  0  0  0  0  0  0  0  0  0
    3.9782  -46.1592  -27.1234 C   0  0  0  0  0  0  0  0  0  0  0  0
    4.0394  -44.7728  -26.6495 C   0  0  0  0  0  0  0  0  0  0  0  0
    3.7426  -44.4400  -25.3086 N   0  0  0  0  0  0  0  0  0  0  0  0
    3.6302  -45.1628  -24.1276 C   0  0  0  0  0  0  0  0  0  0  0  0
    2.5404  -45.0681  -23.4538 O   0  0  0  0  0  0  0  0  0  0  0  0
    4.5982  -46.0707  -23.4695 C   0  0  0  0  0  0  0  0  0  0  0  0
    5.9211  -46.1939  -24.1789 C   0  0  0  0  0  0  0  0  0  0  0  0
    5.0000  -45.3131  -22.1619 C   0  0  0  0  0  0  0  0  0  0  0  0
    4.0439  -47.3568  -22.9721 C   0  0  0  0  0  0  0  0  0  0  0  0
    3.0632  -48.0877  -23.7950 C   0  0  0  0  0  0  0  0  0  0  0  0
    3.4814  -48.7688  -24.9972 C   0  0  0  0  0  0  0  0  0  0  0  0
    3.3838  -48.2983  -26.2331 C   0  0  0  0  0  0  0  0  0  0  0  0
    2.8323  -46.9945  -26.6404 C   0  0  0  0  0  0  0  0  0  0  0  0
    3.5672  -43.3776  -25.1984 H   0  0  0  0  0  0  0  0  0  0  0  0
   -0.8909  -53.5438  -22.6887 N   0  0  0  0  0  0  0  0  0  0  0  0
   -1.8085  -54.1020  -22.6523 H   0  0  0  0  0  0  0  0  0  0  0  0
   -0.4209  -52.9561  -21.5124 C   0  0  0  0  0  0  0  0  0  0  0  0
   -0.0929  -53.5883  -20.3505 C   0  0  0  0  0  0  0  0  0  0  0  0
    0.3989  -52.9222  -19.2320 C   0  0  0  0  0  0  0  0  0  0  0  0
    0.5856  -51.5636  -19.2319 C   0  0  0  0  0  0  0  0  0  0  0  0
    0.2566  -50.8971  -20.4111 C   0  0  0  0  0  0  0  0  0  0  0  0
   -0.2238  -51.5579  -21.5000 C   0  0  0  0  0  0  0  0  0  0  0  0
    1.0920  -50.8271  -18.0850 C   0  0  0  0  0  0  0  0  0  0  0  0
    0.2325  -50.2224  -17.3992 O   0  0  0  0  0  0  0  0  0  0  0  0
    2.4459  -50.7868  -17.7514 N   0  0  0  0  0  0  0  0  0  0  0  0
    3.1089  -51.3341  -18.4023 H   0  0  0  0  0  0  0  0  0  0  0  0
    3.1082  -50.1340  -16.6661 C   0  0  0  0  0  0  0  0  0  0  0  0
    3.4774  -50.9609  -15.4948 C   0  0  0  0  0  0  0  0  0  0  0  0
    4.4085  -51.9060  -15.7882 F   0  0  0  0  0  0  0  0  0  0  0  0
    3.8987  -50.1637  -14.4351 F   0  0  0  0  0  0  0  0  0  0  0  0
    2.2998  -51.5918  -15.0671 F   0  0  0  0  0  0  0  0  0  0  0  0
 18 19  1  0  0  0
 19 20  1  0  0  0
 20 21  1  0  0  0
 21 22  2  0  0  0
 21 23  1  0  0  0
 23 24  1  0  0  0
 23 25  1  0  0  0
 23 26  1  0  0  0
 26 27  1  0  0  0
 27 28  1  0  0  0
 28 29  2  0  0  0
 29 30  1  0  0  0
 28 13  1  0  0  0
 13 14  1  0  0  0
 14 15  1  0  0  0
 15 16  1  0  0  0
 16 17  1  0  0  0
 17 11  1  0  0  0
 11  1  1  0  0  0
  1  2  2  0  0  0
  2  3  1  0  0  0
  3 32  1  0  0  0
 32 34  1  0  0  0
 34 35  2  0  0  0
 35 36  1  0  0  0
 36 37  2  0  0  0
 37 38  1  0  0  0
 38 39  2  0  0  0
 37 40  1  0  0  0
 40 41  2  0  0  0
 40 42  1  0  0  0
 42 44  1  0  0  0
 44 45  1  0  0  0
 45 46  1  0  0  0
 45 47  1  0  0  0
 45 48  1  0  0  0
  3  4  2  0  0  0
  4  5  1  0  0  0
  5  6  2  0  0  0
  6  7  1  0  0  0
  7  8  1  0  0  0
  7  9  1  0  0  0
  7 10  1  0  0  0
 30 18  1  0  0  0
 17 13  1  0  0  0
  6  1  1  0  0  0
 39 34  1  0  0  0
 20 31  1  0  0  0
 11 12  1  0  0  0
 32 33  1  0  0  0
 42 43  1  0  0  0
M  END
> <minimizedAffinity>
-8.88048

> <CNNscore>
0.1949281394

> <CNNaffinity>
7.4943552017

> <CNN_VS>
1.4608607292

> <CNNaffinity_variance>
0.2188502103

$$$$
[H]C1=C(N2C([H])([H])C([H])([H])C([H])([H])[C@@]2([H])N([H])c2nc(N([H])c3c([H])c([H])c(C(=O)N([H])C([H])([H])C(F)(F)F)c([H])c3[H])nc([H])c2C(F)(F)F)C([H])([H])C([H])([H])C(C([H])([H])[H])(C([H])([H])[H])C(=O)N([H])C([H])([H])C([H])([H])C1([H])[H]


 48 51  0  0  0  0  0  0  0  0999 V2000
    0.0970  -51.8813  -19.3015 C   0  0  0  0  0  0  0  0  0  0  0  0
    0.5119  -52.1053  -20.5490 N   0  0  0  0  0  0  0  0  0  0  0  0
    0.0982  -53.0989  -21.3658 C   0  0  0  0  0  0  0  0  0  0  0  0
   -0.8200  -53.9171  -20.8274 N   0  0  0  0  0  0  0  0  0  0  0  0
   -1.2945  -53.7709  -19.5832 C   0  0  0  0  0  0  0  0  0  0  0  0
   -0.8581  -52.7446  -18.7588 C   0  0  0  0  0  0  0  0  0  0  0  0
   -1.3961  -52.6152  -17.3801 C   0  0  0  0  0  0  0  0  0  0  0  0
   -0.5292  -53.0326  -16.4107 F   0  0  0  0  0  0  0  0  0  0  0  0
   -2.5299  -53.4386  -17.2343 F   0  0  0  0  0  0  0  0  0  0  0  0
   -1.9028  -51.3304  -17.1542 F   0  0  0  0  0  0  0  0  0  0  0  0
    0.5439  -50.7984  -18.5395 N   0  0  0  0  0  0  0  0  0  0  0  0
   -0.0001  -49.8671  -18.6113 H   0  0  0  0  0  0  0  0  0  0  0  0
    2.9461  -50.4631  -18.2412 N   0  0  0  0  0  0  0  0  0  0  0  0
    3.8516  -50.6373  -17.0967 C   0  0  0  0  0  0  0  0  0  0  0  0
    3.0621  -50.0922  -15.9593 C   0  0  0  0  0  0  0  0  0  0  0  0
    1.6101  -49.9412  -16.4614 C   0  0  0  0  0  0  0  0  0  0  0  0
    1.6567  -50.8072  -17.6751 C   0  0  0  0  0  0  0  0  0  0  0  0
    6.0687  -50.6923  -21.4731 C   0  0  0  0  0  0  0  0  0  0  0  0
    6.6434  -49.6679  -22.3510 C   0  0  0  0  0  0  0  0  0  0  0  0
    5.9880  -48.4354  -22.5706 N   0  0  0  0  0  0  0  0  0  0  0  0
    4.9608  -47.7513  -21.9329 C   0  0  0  0  0  0  0  0  0  0  0  0
    3.9387  -47.3973  -22.6263 O   0  0  0  0  0  0  0  0  0  0  0  0
    4.8289  -47.3316  -20.5184 C   0  0  0  0  0  0  0  0  0  0  0  0
    6.0140  -47.6707  -19.6530 C   0  0  0  0  0  0  0  0  0  0  0  0
    4.9055  -45.7709  -20.5773 C   0  0  0  0  0  0  0  0  0  0  0  0
    3.5096  -47.5932  -19.8862 C   0  0  0  0  0  0  0  0  0  0  0  0
    2.8175  -48.8662  -20.1580 C   0  0  0  0  0  0  0  0  0  0  0  0
    3.3024  -50.0985  -19.5831 C   0  0  0  0  0  0  0  0  0  0  0  0
    4.0722  -50.9914  -20.1901 C   0  0  0  0  0  0  0  0  0  0  0  0
    4.5910  -50.9192  -21.5669 C   0  0  0  0  0  0  0  0  0  0  0  0
    6.3930  -47.9251  -23.4349 H   0  0  0  0  0  0  0  0  0  0  0  0
    0.6169  -53.2010  -22.6826 N   0  0  0  0  0  0  0  0  0  0  0  0
    0.3029  -54.0934  -23.1925 H   0  0  0  0  0  0  0  0  0  0  0  0
    1.4482  -52.3049  -23.3576 C   0  0  0  0  0  0  0  0  0  0  0  0
    2.4465  -52.6086  -24.2341 C   0  0  0  0  0  0  0  0  0  0  0  0
    3.2086  -51.6442  -24.8868 C   0  0  0  0  0  0  0  0  0  0  0  0
    2.9968  -50.3049  -24.6823 C   0  0  0  0  0  0  0  0  0  0  0  0
    1.9795  -49.9719  -23.7893 C   0  0  0  0  0  0  0  0  0  0  0  0
    1.2397  -50.9229  -23.1558 C   0  0  0  0  0  0  0  0  0  0  0  0
    3.7718  -49.2644  -25.3388 C   0  0  0  0  0  0  0  0  0  0  0  0
    5.0003  -49.4903  -25.4601 O   0  0  0  0  0  0  0  0  0  0  0  0
    3.2010  -48.0831  -25.8129 N   0  0  0  0  0  0  0  0  0  0  0  0
    2.1390  -47.9774  -25.6595 H   0  0  0  0  0  0  0  0  0  0  0  0
    3.8022  -46.9751  -26.4864 C   0  0  0  0  0  0  0  0  0  0  0  0
    2.9788  -46.2533  -27.4829 C   0  0  0  0  0  0  0  0  0  0  0  0
    3.3158  -44.9417  -27.5955 F   0  0  0  0  0  0  0  0  0  0  0  0
    3.0285  -46.8848  -28.7216 F   0  0  0  0  0  0  0  0  0  0  0  0
    1.6496  -46.3512  -27.0456 F   0  0  0  0  0  0  0  0  0  0  0  0
 18 19  1  0  0  0
 19 20  1  0  0  0
 20 21  1  0  0  0
 21 22  2  0  0  0
 21 23  1  0  0  0
 23 24  1  0  0  0
 23 25  1  0  0  0
 23 26  1  0  0  0
 26 27  1  0  0  0
 27 28  1  0  0  0
 28 29  2  0  0  0
 29 30  1  0  0  0
 28 13  1  0  0  0
 13 14  1  0  0  0
 14 15  1  0  0  0
 15 16  1  0  0  0
 16 17  1  0  0  0
 17 11  1  0  0  0
 11  1  1  0  0  0
  1  2  2  0  0  0
  2  3  1  0  0  0
  3 32  1  0  0  0
 32 34  1  0  0  0
 34 35  2  0  0  0
 35 36  1  0  0  0
 36 37  2  0  0  0
 37 38  1  0  0  0
 38 39  2  0  0  0
 37 40  1  0  0  0
 40 41  2  0  0  0
 40 42  1  0  0  0
 42 44  1  0  0  0
 44 45  1  0  0  0
 45 46  1  0  0  0
 45 47  1  0  0  0
 45 48  1  0  0  0
  3  4  2  0  0  0
  4  5  1  0  0  0
  5  6  2  0  0  0
  6  7  1  0  0  0
  7  8  1  0  0  0
  7  9  1  0  0  0
  7 10  1  0  0  0
 30 18  1  0  0  0
 17 13  1  0  0  0
  6  1  1  0  0  0
 39 34  1  0  0  0
 20 31  1  0  0  0
 11 12  1  0  0  0
 32 33  1  0  0  0
 42 43  1  0  0  0
M  END
> <minimizedAffinity>
-7.06389

> <CNNscore>
0.1944512576

> <CNNaffinity>
7.0586023331

> <CNN_VS>
1.3725540638

> <CNNaffinity_variance>
0.1009907573

$$$$
[H]c1c([H])c(C(F)(F)F)c([H])c([H])c1N([H])C(=O)c1c([H])c([H])c([H])c2c1c([C@]1([H])C([H])([H])C([H])([H])[C@]([H])(N3C([H])([H])C([H])([H])C(F)(F)C3([H])[H])C1([H])[H])nn2[H]


 36 40  0  0  0  0  0  0  0  0999 V2000
   -1.3070  -53.2197  -24.4410 C   0  0  0  0  0  0  0  0  0  0  0  0
   -2.6804  -53.4057  -24.1982 C   0  0  0  0  0  0  0  0  0  0  0  0
   -3.0870  -53.8574  -22.9723 C   0  0  0  0  0  0  0  0  0  0  0  0
   -2.1588  -54.1265  -21.9856 C   0  0  0  0  0  0  0  0  0  0  0  0
   -0.8315  -53.9515  -22.1946 C   0  0  0  0  0  0  0  0  0  0  0  0
    0.2914  -54.0906  -21.4648 N   0  0  0  0  0  0  0  0  0  0  0  0
    1.3315  -53.7564  -22.1431 N   0  0  0  0  0  0  0  0  0  0  0  0
    0.9742  -53.3611  -23.4047 C   0  0  0  0  0  0  0  0  0  0  0  0
   -0.3880  -53.4843  -23.4530 C   0  0  0  0  0  0  0  0  0  0  0  0
    0.2806  -54.4361  -20.4633 H   0  0  0  0  0  0  0  0  0  0  0  0
    1.9086  -52.8461  -24.3777 C   0  0  0  0  0  0  0  0  0  0  0  0
    3.2875  -52.5582  -23.7346 C   0  0  0  0  0  0  0  0  0  0  0  0
    3.8715  -51.5217  -24.6932 C   0  0  0  0  0  0  0  0  0  0  0  0
    2.7174  -50.8795  -25.3948 C   0  0  0  0  0  0  0  0  0  0  0  0
    1.5205  -51.3522  -24.6144 C   0  0  0  0  0  0  0  0  0  0  0  0
    2.7925  -49.4353  -25.4702 N   0  0  0  0  0  0  0  0  0  0  0  0
    2.7262  -48.7963  -24.1894 C   0  0  0  0  0  0  0  0  0  0  0  0
    3.4347  -47.4780  -24.4175 C   0  0  0  0  0  0  0  0  0  0  0  0
    4.2693  -47.6541  -25.6582 C   0  0  0  0  0  0  0  0  0  0  0  0
    3.9073  -46.7338  -26.6430 F   0  0  0  0  0  0  0  0  0  0  0  0
    5.6226  -47.4758  -25.3685 F   0  0  0  0  0  0  0  0  0  0  0  0
    4.0200  -49.0593  -26.0863 C   0  0  0  0  0  0  0  0  0  0  0  0
   -1.2739  -53.7050  -26.9017 N   0  0  0  0  0  0  0  0  0  0  0  0
   -0.9210  -52.8845  -25.8154 C   0  0  0  0  0  0  0  0  0  0  0  0
   -0.2779  -51.8398  -25.9867 O   0  0  0  0  0  0  0  0  0  0  0  0
   -1.8309  -54.5849  -26.6322 H   0  0  0  0  0  0  0  0  0  0  0  0
   -0.3872  -53.3489  -31.0301 C   0  0  0  0  0  0  0  0  0  0  0  0
   -0.0567  -54.4618  -30.2943 C   0  0  0  0  0  0  0  0  0  0  0  0
   -0.3440  -54.5814  -28.9611 C   0  0  0  0  0  0  0  0  0  0  0  0
   -1.0057  -53.5453  -28.2653 C   0  0  0  0  0  0  0  0  0  0  0  0
   -1.3290  -52.4387  -29.0137 C   0  0  0  0  0  0  0  0  0  0  0  0
   -1.0283  -52.3339  -30.3739 C   0  0  0  0  0  0  0  0  0  0  0  0
    0.8334  -52.2304  -32.6995 F   0  0  0  0  0  0  0  0  0  0  0  0
   -0.0546  -53.2792  -32.4774 C   0  0  0  0  0  0  0  0  0  0  0  0
    0.4892  -54.4561  -32.9362 F   0  0  0  0  0  0  0  0  0  0  0  0
   -1.2357  -52.9537  -33.1439 F   0  0  0  0  0  0  0  0  0  0  0  0
 33 34  1  0  0  0
 34 35  1  0  0  0
 34 36  1  0  0  0
 34 27  1  0  0  0
 27 28  2  0  0  0
 28 29  1  0  0  0
 29 30  2  0  0  0
 30 23  1  0  0  0
 23 24  1  0  0  0
 24 25  2  0  0  0
 24  1  1  0  0  0
  1  2  2  0  0  0
  2  3  1  0  0  0
  3  4  2  0  0  0
  4  5  1  0  0  0
  5  6  1  0  0  0
  6  7  1  0  0  0
  7  8  2  0  0  0
  8 11  1  0  0  0
 11 12  1  0  0  0
 12 13  1  0  0  0
 13 14  1  0  0  0
 14 15  1  0  0  0
 14 16  1  0  0  0
 16 17  1  0  0  0
 17 18  1  0  0  0
 18 19  1  0  0  0
 19 20  1  0  0  0
 19 21  1  0  0  0
 19 22  1  0  0  0
  8  9  1  0  0  0
 30 31  1  0  0  0
 31 32  2  0  0  0
 32 27  1  0  0  0
  9  1  1  0  0  0
  9  5  2  0  0  0
 15 11  1  0  0  0
 22 16  1  0  0  0
 23 26  1  0  0  0
  6 10  1  0  0  0
M  END
> <minimizedAffinity>
22.40184

> <CNNscore>
0.4316923618

> <CNNaffinity>
6.8717203140

> <CNN_VS>
2.9664692879

> <CNNaffinity_variance>
1.7614662647

$$$$
[H]c1c([H])c(C(F)(F)F)c([H])c([H])c1N([H])C(=O)c1c([H])c([H])c([H])c2c1c([C@]1([H])C([H])([H])C([H])([H])[C@]([H])(N3C([H])([H])C([H])([H])C(F)(F)C3([H])[H])C1([H])[H])nn2[H]


 36 40  0  0  0  0  0  0  0  0999 V2000
   -4.4414  -52.9751  -16.0285 C   0  0  0  0  0  0  0  0  0  0  0  0
   -5.7535  -53.4821  -15.9953 C   0  0  0  0  0  0  0  0  0  0  0  0
   -6.2771  -53.9032  -14.8033 C   0  0  0  0  0  0  0  0  0  0  0  0
   -5.5253  -53.8300  -13.6471 C   0  0  0  0  0  0  0  0  0  0  0  0
   -4.2612  -53.3421  -13.6534 C   0  0  0  0  0  0  0  0  0  0  0  0
   -3.3036  -53.1188  -12.7336 N   0  0  0  0  0  0  0  0  0  0  0  0
   -2.2576  -52.5962  -13.2685 N   0  0  0  0  0  0  0  0  0  0  0  0
   -2.4410  -52.4282  -14.6152 C   0  0  0  0  0  0  0  0  0  0  0  0
   -3.6997  -52.8998  -14.8731 C   0  0  0  0  0  0  0  0  0  0  0  0
   -3.4310  -53.3580  -11.7094 H   0  0  0  0  0  0  0  0  0  0  0  0
   -1.4796  -51.7870  -15.4810 C   0  0  0  0  0  0  0  0  0  0  0  0
   -0.0607  -51.8133  -14.8615 C   0  0  0  0  0  0  0  0  0  0  0  0
    0.6125  -50.6371  -15.5669 C   0  0  0  0  0  0  0  0  0  0  0  0
   -0.4787  -49.7240  -16.0274 C   0  0  0  0  0  0  0  0  0  0  0  0
   -1.7010  -50.2493  -15.3239 C   0  0  0  0  0  0  0  0  0  0  0  0
   -0.2417  -48.3224  -15.7510 N   0  0  0  0  0  0  0  0  0  0  0  0
   -0.9562  -47.8415  -14.6059 C   0  0  0  0  0  0  0  0  0  0  0  0
   -0.1241  -46.6653  -14.1412 C   0  0  0  0  0  0  0  0  0  0  0  0
    1.2425  -46.8470  -14.7463 C   0  0  0  0  0  0  0  0  0  0  0  0
    1.5822  -45.7628  -15.5568 F   0  0  0  0  0  0  0  0  0  0  0  0
    2.2093  -46.9670  -13.7474 F   0  0  0  0  0  0  0  0  0  0  0  0
    1.1483  -48.1167  -15.5203 C   0  0  0  0  0  0  0  0  0  0  0  0
   -2.6269  -53.1845  -17.7475 N   0  0  0  0  0  0  0  0  0  0  0  0
   -3.8809  -52.6855  -17.3523 C   0  0  0  0  0  0  0  0  0  0  0  0
   -4.5617  -51.9898  -18.1182 O   0  0  0  0  0  0  0  0  0  0  0  0
   -2.1273  -53.7751  -17.0001 H   0  0  0  0  0  0  0  0  0  0  0  0
   -0.6182  -52.8187  -21.4608 C   0  0  0  0  0  0  0  0  0  0  0  0
   -1.5593  -53.7911  -21.2198 C   0  0  0  0  0  0  0  0  0  0  0  0
   -2.2121  -53.9106  -20.0224 C   0  0  0  0  0  0  0  0  0  0  0  0
   -1.9427  -53.0230  -18.9570 C   0  0  0  0  0  0  0  0  0  0  0  0
   -0.9991  -52.0568  -19.2123 C   0  0  0  0  0  0  0  0  0  0  0  0
   -0.3428  -51.9494  -20.4409 C   0  0  0  0  0  0  0  0  0  0  0  0
    1.0649  -53.6886  -22.8530 F   0  0  0  0  0  0  0  0  0  0  0  0
    0.0533  -52.7348  -22.7845 C   0  0  0  0  0  0  0  0  0  0  0  0
   -0.8316  -52.9180  -23.8213 F   0  0  0  0  0  0  0  0  0  0  0  0
    0.6732  -51.4868  -22.8400 F   0  0  0  0  0  0  0  0  0  0  0  0
 33 34  1  0  0  0
 34 35  1  0  0  0
 34 36  1  0  0  0
 34 27  1  0  0  0
 27 28  2  0  0  0
 28 29  1  0  0  0
 29 30  2  0  0  0
 30 23  1  0  0  0
 23 24  1  0  0  0
 24 25  2  0  0  0
 24  1  1  0  0  0
  1  2  2  0  0  0
  2  3  1  0  0  0
  3  4  2  0  0  0
  4  5  1  0  0  0
  5  6  1  0  0  0
  6  7  1  0  0  0
  7  8  2  0  0  0
  8 11  1  0  0  0
 11 12  1  0  0  0
 12 13  1  0  0  0
 13 14  1  0  0  0
 14 15  1  0  0  0
 14 16  1  0  0  0
 16 17  1  0  0  0
 17 18  1  0  0  0
 18 19  1  0  0  0
 19 20  1  0  0  0
 19 21  1  0  0  0
 19 22  1  0  0  0
  8  9  1  0  0  0
 30 31  1  0  0  0
 31 32  2  0  0  0
 32 27  1  0  0  0
  9  1  1  0  0  0
  9  5  2  0  0  0
 15 11  1  0  0  0
 22 16  1  0  0  0
 23 26  1  0  0  0
  6 10  1  0  0  0
M  END
> <minimizedAffinity>
-2.05612

> <CNNscore>
0.4139972031

> <CNNaffinity>
6.2422809601

> <CNN_VS>
2.5842869282

> <CNNaffinity_variance>
0.8369178772

$$$$
[H]c1c([H])c(C(F)(F)F)c([H])c([H])c1N([H])C(=O)c1c([H])c([H])c([H])c2c1c([C@]1([H])C([H])([H])C([H])([H])[C@]([H])(N3C([H])([H])C([H])([H])C(F)(F)C3([H])[H])C1([H])[H])nn2[H]


 36 40  0  0  0  0  0  0  0  0999 V2000
    0.4300  -50.8774  -19.4194 C   0  0  0  0  0  0  0  0  0  0  0  0
    0.5961  -50.5457  -18.0621 C   0  0  0  0  0  0  0  0  0  0  0  0
    0.0067  -51.3275  -17.1063 C   0  0  0  0  0  0  0  0  0  0  0  0
   -0.7416  -52.4295  -17.4712 C   0  0  0  0  0  0  0  0  0  0  0  0
   -0.9125  -52.7710  -18.7713 C   0  0  0  0  0  0  0  0  0  0  0  0
   -1.5361  -53.7593  -19.4401 N   0  0  0  0  0  0  0  0  0  0  0  0
   -1.3665  -53.6413  -20.7092 N   0  0  0  0  0  0  0  0  0  0  0  0
   -0.6011  -52.5410  -20.9902 C   0  0  0  0  0  0  0  0  0  0  0  0
   -0.3117  -51.9789  -19.7763 C   0  0  0  0  0  0  0  0  0  0  0  0
   -2.0884  -54.5187  -18.9494 H   0  0  0  0  0  0  0  0  0  0  0  0
   -0.1641  -52.1872  -22.3202 C   0  0  0  0  0  0  0  0  0  0  0  0
   -0.4526  -53.3271  -23.3279 C   0  0  0  0  0  0  0  0  0  0  0  0
    0.5662  -53.0386  -24.4293 C   0  0  0  0  0  0  0  0  0  0  0  0
    1.6647  -52.2374  -23.8065 C   0  0  0  0  0  0  0  0  0  0  0  0
    1.3893  -52.3452  -22.3309 C   0  0  0  0  0  0  0  0  0  0  0  0
    2.9988  -52.6813  -24.1534 N   0  0  0  0  0  0  0  0  0  0  0  0
    3.5461  -51.9993  -25.2885 C   0  0  0  0  0  0  0  0  0  0  0  0
    5.0412  -52.1160  -25.0810 C   0  0  0  0  0  0  0  0  0  0  0  0
    5.2440  -52.4259  -23.6217 C   0  0  0  0  0  0  0  0  0  0  0  0
    5.9163  -53.6373  -23.4532 F   0  0  0  0  0  0  0  0  0  0  0  0
    5.9911  -51.4211  -23.0059 F   0  0  0  0  0  0  0  0  0  0  0  0
    3.8694  -52.4640  -23.0478 C   0  0  0  0  0  0  0  0  0  0  0  0
    2.3206  -49.8630  -20.7187 N   0  0  0  0  0  0  0  0  0  0  0  0
    0.9521  -49.9199  -20.3997 C   0  0  0  0  0  0  0  0  0  0  0  0
    0.1367  -49.1657  -20.9478 O   0  0  0  0  0  0  0  0  0  0  0  0
    2.9326  -50.5646  -20.1800 H   0  0  0  0  0  0  0  0  0  0  0  0
    4.2876  -47.4187  -23.5671 C   0  0  0  0  0  0  0  0  0  0  0  0
    3.3131  -48.3239  -23.9140 C   0  0  0  0  0  0  0  0  0  0  0  0
    2.6737  -49.1132  -22.9962 C   0  0  0  0  0  0  0  0  0  0  0  0
    2.9928  -49.0334  -21.6224 C   0  0  0  0  0  0  0  0  0  0  0  0
    3.9693  -48.1247  -21.2908 C   0  0  0  0  0  0  0  0  0  0  0  0
    4.6112  -47.3268  -22.2409 C   0  0  0  0  0  0  0  0  0  0  0  0
    3.9759  -45.8496  -25.2900 F   0  0  0  0  0  0  0  0  0  0  0  0
    4.9424  -46.5838  -24.6084 C   0  0  0  0  0  0  0  0  0  0  0  0
    5.8801  -45.7340  -24.0698 F   0  0  0  0  0  0  0  0  0  0  0  0
    5.5038  -47.4646  -25.5324 F   0  0  0  0  0  0  0  0  0  0  0  0
 33 34  1  0  0  0
 34 35  1  0  0  0
 34 36  1  0  0  0
 34 27  1  0  0  0
 27 28  2  0  0  0
 28 29  1  0  0  0
 29 30  2  0  0  0
 30 23  1  0  0  0
 23 24  1  0  0  0
 24 25  2  0  0  0
 24  1  1  0  0  0
  1  2  2  0  0  0
  2  3  1  0  0  0
  3  4  2  0  0  0
  4  5  1  0  0  0
  5  6  1  0  0  0
  6  7  1  0  0  0
  7  8  2  0  0  0
  8 11  1  0  0  0
 11 12  1  0  0  0
 12 13  1  0  0  0
 13 14  1  0  0  0
 14 15  1  0  0  0
 14 16  1  0  0  0
 16 17  1  0  0  0
 17 18  1  0  0  0
 18 19  1  0  0  0
 19 20  1  0  0  0
 19 21  1  0  0  0
 19 22  1  0  0  0
  8  9  1  0  0  0
 30 31  1  0  0  0
 31 32  2  0  0  0
 32 27  1  0  0  0
  9  1  1  0  0  0
  9  5  2  0  0  0
 15 11  1  0  0  0
 22 16  1  0  0  0
 23 26  1  0  0  0
  6 10  1  0  0  0
M  END
> <minimizedAffinity>
-7.29323

> <CNNscore>
0.4088092148

> <CNNaffinity>
6.7676429749

> <CNN_VS>
2.7666747570

> <CNNaffinity_variance>
0.3141843081

$$$$
[H]c1c([H])c(C(F)(F)F)c([H])c([H])c1N([H])C(=O)c1c([H])c([H])c([H])c2c1c([C@]1([H])C([H])([H])C([H])([H])[C@]([H])(N3C([H])([H])C([H])([H])C(F)(F)C3([H])[H])C1([H])[H])nn2[H]


 36 40  0  0  0  0  0  0  0  0999 V2000
   -4.0206  -52.7075  -15.9633 C   0  0  0  0  0  0  0  0  0  0  0  0
   -5.2728  -52.9676  -16.5500 C   0  0  0  0  0  0  0  0  0  0  0  0
   -6.2005  -53.6912  -15.8514 C   0  0  0  0  0  0  0  0  0  0  0  0
   -5.9099  -54.1593  -14.5850 C   0  0  0  0  0  0  0  0  0  0  0  0
   -4.7127  -53.9183  -13.9978 C   0  0  0  0  0  0  0  0  0  0  0  0
   -4.1409  -54.1985  -12.8115 N   0  0  0  0  0  0  0  0  0  0  0  0
   -2.9573  -53.7017  -12.7367 N   0  0  0  0  0  0  0  0  0  0  0  0
   -2.6419  -53.0385  -13.8927 C   0  0  0  0  0  0  0  0  0  0  0  0
   -3.7390  -53.1717  -14.7000 C   0  0  0  0  0  0  0  0  0  0  0  0
   -4.6332  -54.7610  -12.0608 H   0  0  0  0  0  0  0  0  0  0  0  0
   -1.4153  -52.3010  -14.0843 C   0  0  0  0  0  0  0  0  0  0  0  0
   -0.7025  -52.0364  -12.7353 C   0  0  0  0  0  0  0  0  0  0  0  0
    0.1506  -50.8126  -13.0649 C   0  0  0  0  0  0  0  0  0  0  0  0
   -0.4908  -50.1380  -14.2354 C   0  0  0  0  0  0  0  0  0  0  0  0
   -1.8285  -50.8184  -14.3475 C   0  0  0  0  0  0  0  0  0  0  0  0
   -0.6111  -48.7008  -14.1047 N   0  0  0  0  0  0  0  0  0  0  0  0
   -0.7034  -48.2609  -12.7442 C   0  0  0  0  0  0  0  0  0  0  0  0
   -0.1868  -46.8389  -12.7992 C   0  0  0  0  0  0  0  0  0  0  0  0
    0.6069  -46.7248  -14.0735 C   0  0  0  0  0  0  0  0  0  0  0  0
    0.0821  -45.7355  -14.9064 F   0  0  0  0  0  0  0  0  0  0  0  0
    1.9363  -46.4041  -13.7964 F   0  0  0  0  0  0  0  0  0  0  0  0
    0.5267  -48.0780  -14.6922 C   0  0  0  0  0  0  0  0  0  0  0  0
   -1.8962  -52.7677  -17.2955 N   0  0  0  0  0  0  0  0  0  0  0  0
   -3.0153  -52.0643  -16.8154 C   0  0  0  0  0  0  0  0  0  0  0  0
   -3.1949  -50.8740  -17.1074 O   0  0  0  0  0  0  0  0  0  0  0  0
   -1.8452  -53.7937  -16.9766 H   0  0  0  0  0  0  0  0  0  0  0  0
    1.2284  -51.5401  -19.8814 C   0  0  0  0  0  0  0  0  0  0  0  0
    0.2766  -52.4594  -20.2532 C   0  0  0  0  0  0  0  0  0  0  0  0
   -0.7357  -52.8563  -19.4214 C   0  0  0  0  0  0  0  0  0  0  0  0
   -0.8509  -52.3298  -18.1156 C   0  0  0  0  0  0  0  0  0  0  0  0
    0.1081  -51.4126  -17.7578 C   0  0  0  0  0  0  0  0  0  0  0  0
    1.1343  -51.0188  -18.6200 C   0  0  0  0  0  0  0  0  0  0  0  0
    3.2857  -52.1267  -20.8565 F   0  0  0  0  0  0  0  0  0  0  0  0
    2.3009  -51.1432  -20.8313 C   0  0  0  0  0  0  0  0  0  0  0  0
    1.8125  -50.9394  -22.1007 F   0  0  0  0  0  0  0  0  0  0  0  0
    2.8936  -49.9944  -20.3079 F   0  0  0  0  0  0  0  0  0  0  0  0
 33 34  1  0  0  0
 34 35  1  0  0  0
 34 36  1  0  0  0
 34 27  1  0  0  0
 27 28  2  0  0  0
 28 29  1  0  0  0
 29 30  2  0  0  0
 30 23  1  0  0  0
 23 24  1  0  0  0
 24 25  2  0  0  0
 24  1  1  0  0  0
  1  2  2  0  0  0
  2  3  1  0  0  0
  3  4  2  0  0  0
  4  5  1  0  0  0
  5  6  1  0  0  0
  6  7  1  0  0  0
  7  8  2  0  0  0
  8 11  1  0  0  0
 11 12  1  0  0  0
 12 13  1  0  0  0
 13 14  1  0  0  0
 14 15  1  0  0  0
 14 16  1  0  0  0
 16 17  1  0  0  0
 17 18  1  0  0  0
 18 19  1  0  0  0
 19 20  1  0  0  0
 19 21  1  0  0  0
 19 22  1  0  0  0
  8  9  1  0  0  0
 30 31  1  0  0  0
 31 32  2  0  0  0
 32 27  1  0  0  0
  9  1  1  0  0  0
  9  5  2  0  0  0
 15 11  1  0  0  0
 22 16  1  0  0  0
 23 26  1  0  0  0
  6 10  1  0  0  0
M  END
> <minimizedAffinity>
-0.36712

> <CNNscore>
0.4058845043

> <CNNaffinity>
6.2436952591

> <CNN_VS>
2.5342192650

> <CNNaffinity_variance>
1.4970403910

$$$$
[H]c1c([H])c(C(F)(F)F)c([H])c([H])c1N([H])C(=O)c1c([H])c([H])c([H])c2c1c([C@]1([H])C([H])([H])C([H])([H])[C@]([H])(N3C([H])([H])C([H])([H])C(F)(F)C3([H])[H])C1([H])[H])nn2[H]


 36 40  0  0  0  0  0  0  0  0999 V2000
    1.5758  -52.5453  -26.0788 C   0  0  0  0  0  0  0  0  0  0  0  0
    1.6754  -51.7932  -27.2638 C   0  0  0  0  0  0  0  0  0  0  0  0
    1.0042  -52.2128  -28.3798 C   0  0  0  0  0  0  0  0  0  0  0  0
    0.2376  -53.3610  -28.3417 C   0  0  0  0  0  0  0  0  0  0  0  0
    0.1233  -54.0995  -27.2115 C   0  0  0  0  0  0  0  0  0  0  0  0
   -0.5379  -55.2133  -26.8439 N   0  0  0  0  0  0  0  0  0  0  0  0
   -0.3267  -55.4929  -25.6067 N   0  0  0  0  0  0  0  0  0  0  0  0
    0.5104  -54.5674  -25.0424 C   0  0  0  0  0  0  0  0  0  0  0  0
    0.8067  -53.6847  -26.0456 C   0  0  0  0  0  0  0  0  0  0  0  0
   -1.1438  -55.7639  -27.5164 H   0  0  0  0  0  0  0  0  0  0  0  0
    0.8692  -54.5591  -23.6438 C   0  0  0  0  0  0  0  0  0  0  0  0
   -0.0550  -55.4903  -22.8213 C   0  0  0  0  0  0  0  0  0  0  0  0
    0.0702  -54.8985  -21.4183 C   0  0  0  0  0  0  0  0  0  0  0  0
    0.4994  -53.4755  -21.5834 C   0  0  0  0  0  0  0  0  0  0  0  0
    0.3217  -53.2201  -23.0558 C   0  0  0  0  0  0  0  0  0  0  0  0
   -0.2342  -52.5313  -20.7664 N   0  0  0  0  0  0  0  0  0  0  0  0
   -1.4087  -53.0924  -20.1675 C   0  0  0  0  0  0  0  0  0  0  0  0
   -1.6250  -52.2291  -18.9428 C   0  0  0  0  0  0  0  0  0  0  0  0
   -0.3093  -51.5532  -18.6624 C   0  0  0  0  0  0  0  0  0  0  0  0
   -0.4390  -50.1641  -18.6999 F   0  0  0  0  0  0  0  0  0  0  0  0
    0.1692  -51.9145  -17.4025 F   0  0  0  0  0  0  0  0  0  0  0  0
    0.6094  -52.0584  -19.7212 C   0  0  0  0  0  0  0  0  0  0  0  0
    2.2479  -50.9114  -24.2984 N   0  0  0  0  0  0  0  0  0  0  0  0
    2.4366  -52.1354  -24.9646 C   0  0  0  0  0  0  0  0  0  0  0  0
    3.3349  -52.9167  -24.6228 O   0  0  0  0  0  0  0  0  0  0  0  0
    1.4385  -50.3160  -24.6822 H   0  0  0  0  0  0  0  0  0  0  0  0
    4.4990  -49.2155  -21.1339 C   0  0  0  0  0  0  0  0  0  0  0  0
    4.9164  -49.1790  -22.4431 C   0  0  0  0  0  0  0  0  0  0  0  0
    4.1905  -49.7234  -23.4682 C   0  0  0  0  0  0  0  0  0  0  0  0
    2.9544  -50.3620  -23.2232 C   0  0  0  0  0  0  0  0  0  0  0  0
    2.5506  -50.3915  -21.9098 C   0  0  0  0  0  0  0  0  0  0  0  0
    3.3042  -49.8302  -20.8761 C   0  0  0  0  0  0  0  0  0  0  0  0
    4.5005  -47.9564  -19.1485 F   0  0  0  0  0  0  0  0  0  0  0  0
    5.3279  -48.6009  -20.0638 C   0  0  0  0  0  0  0  0  0  0  0  0
    6.1031  -49.5339  -19.4156 F   0  0  0  0  0  0  0  0  0  0  0  0
    6.0994  -47.6121  -20.6737 F   0  0  0  0  0  0  0  0  0  0  0  0
 33 34  1  0  0  0
 34 35  1  0  0  0
 34 36  1  0  0  0
 34 27  1  0  0  0
 27 28  2  0  0  0
 28 29  1  0  0  0
 29 30  2  0  0  0
 30 23  1  0  0  0
 23 24  1  0  0  0
 24 25  2  0  0  0
 24  1  1  0  0  0
  1  2  2  0  0  0
  2  3  1  0  0  0
  3  4  2  0  0  0
  4  5  1  0  0  0
  5  6  1  0  0  0
  6  7  1  0  0  0
  7  8  2  0  0  0
  8 11  1  0  0  0
 11 12  1  0  0  0
 12 13  1  0  0  0
 13 14  1  0  0  0
 14 15  1  0  0  0
 14 16  1  0  0  0
 16 17  1  0  0  0
 17 18  1  0  0  0
 18 19  1  0  0  0
 19 20  1  0  0  0
 19 21  1  0  0  0
 19 22  1  0  0  0
  8  9  1  0  0  0
 30 31  1  0  0  0
 31 32  2  0  0  0
 32 27  1  0  0  0
  9  1  1  0  0  0
  9  5  2  0  0  0
 15 11  1  0  0  0
 22 16  1  0  0  0
 23 26  1  0  0  0
  6 10  1  0  0  0
M  END
> <minimizedAffinity>
-1.98812

> <CNNscore>
0.4042680264

> <CNNaffinity>
6.7755327225

> <CNN_VS>
2.7391312122

> <CNNaffinity_variance>
1.4051680565

$$$$
[H]c1c([H])c(C(F)(F)F)c([H])c([H])c1N([H])C(=O)c1c([H])c([H])c([H])c2c1c([C@]1([H])C([H])([H])C([H])([H])[C@]([H])(N3C([H])([H])C([H])([H])C(F)(F)C3([H])[H])C1([H])[H])nn2[H]


 36 40  0  0  0  0  0  0  0  0999 V2000
    0.4525  -52.6869  -19.8442 C   0  0  0  0  0  0  0  0  0  0  0  0
    0.3875  -54.0730  -19.6112 C   0  0  0  0  0  0  0  0  0  0  0  0
    0.1784  -54.9188  -20.6662 C   0  0  0  0  0  0  0  0  0  0  0  0
    0.0337  -54.4162  -21.9445 C   0  0  0  0  0  0  0  0  0  0  0  0
    0.0964  -53.0859  -22.1942 C   0  0  0  0  0  0  0  0  0  0  0  0
    0.0242  -52.2997  -23.2848 N   0  0  0  0  0  0  0  0  0  0  0  0
    0.1779  -51.0609  -22.9765 N   0  0  0  0  0  0  0  0  0  0  0  0
    0.3675  -50.9229  -21.6272 C   0  0  0  0  0  0  0  0  0  0  0  0
    0.3131  -52.1929  -21.1199 C   0  0  0  0  0  0  0  0  0  0  0  0
   -0.1413  -52.6879  -24.2567 H   0  0  0  0  0  0  0  0  0  0  0  0
    0.6536  -49.6626  -20.9830 C   0  0  0  0  0  0  0  0  0  0  0  0
    0.6829  -48.5020  -22.0077 C   0  0  0  0  0  0  0  0  0  0  0  0
    1.5500  -47.4696  -21.2890 C   0  0  0  0  0  0  0  0  0  0  0  0
    2.3850  -48.2169  -20.2987 C   0  0  0  0  0  0  0  0  0  0  0  0
    2.1861  -49.6583  -20.6832 C   0  0  0  0  0  0  0  0  0  0  0  0
    3.7822  -47.8362  -20.2869 N   0  0  0  0  0  0  0  0  0  0  0  0
    4.6268  -48.7567  -20.9885 C   0  0  0  0  0  0  0  0  0  0  0  0
    5.8116  -47.9065  -21.3949 C   0  0  0  0  0  0  0  0  0  0  0  0
    5.3507  -46.4749  -21.3242 C   0  0  0  0  0  0  0  0  0  0  0  0
    6.1277  -45.7398  -20.4277 F   0  0  0  0  0  0  0  0  0  0  0  0
    5.4375  -45.8690  -22.5781 F   0  0  0  0  0  0  0  0  0  0  0  0
    3.9263  -46.5564  -20.8944 C   0  0  0  0  0  0  0  0  0  0  0  0
    1.7532  -51.4526  -18.0903 N   0  0  0  0  0  0  0  0  0  0  0  0
    0.5226  -51.8231  -18.6613 C   0  0  0  0  0  0  0  0  0  0  0  0
   -0.5485  -51.4206  -18.1869 O   0  0  0  0  0  0  0  0  0  0  0  0
    2.6152  -51.8623  -18.5865 H   0  0  0  0  0  0  0  0  0  0  0  0
    2.6627  -48.9377  -14.8032 C   0  0  0  0  0  0  0  0  0  0  0  0
    3.3575  -48.8892  -15.9882 C   0  0  0  0  0  0  0  0  0  0  0  0
    3.0647  -49.6982  -17.0530 C   0  0  0  0  0  0  0  0  0  0  0  0
    2.0146  -50.6403  -16.9818 C   0  0  0  0  0  0  0  0  0  0  0  0
    1.3295  -50.6780  -15.7909 C   0  0  0  0  0  0  0  0  0  0  0  0
    1.6419  -49.8443  -14.7143 C   0  0  0  0  0  0  0  0  0  0  0  0
    1.8620  -47.5380  -13.0923 F   0  0  0  0  0  0  0  0  0  0  0  0
    3.0229  -48.0287  -13.6833 C   0  0  0  0  0  0  0  0  0  0  0  0
    3.7965  -48.6607  -12.7381 F   0  0  0  0  0  0  0  0  0  0  0  0
    3.6781  -46.9359  -14.2503 F   0  0  0  0  0  0  0  0  0  0  0  0
 33 34  1  0  0  0
 34 35  1  0  0  0
 34 36  1  0  0  0
 34 27  1  0  0  0
 27 28  2  0  0  0
 28 29  1  0  0  0
 29 30  2  0  0  0
 30 23  1  0  0  0
 23 24  1  0  0  0
 24 25  2  0  0  0
 24  1  1  0  0  0
  1  2  2  0  0  0
  2  3  1  0  0  0
  3  4  2  0  0  0
  4  5  1  0  0  0
  5  6  1  0  0  0
  6  7  1  0  0  0
  7  8  2  0  0  0
  8 11  1  0  0  0
 11 12  1  0  0  0
 12 13  1  0  0  0
 13 14  1  0  0  0
 14 15  1  0  0  0
 14 16  1  0  0  0
 16 17  1  0  0  0
 17 18  1  0  0  0
 18 19  1  0  0  0
 19 20  1  0  0  0
 19 21  1  0  0  0
 19 22  1  0  0  0
  8  9  1  0  0  0
 30 31  1  0  0  0
 31 32  2  0  0  0
 32 27  1  0  0  0
  9  1  1  0  0  0
  9  5  2  0  0  0
 15 11  1  0  0  0
 22 16  1  0  0  0
 23 26  1  0  0  0
  6 10  1  0  0  0
M  END
> <minimizedAffinity>
-3.27524

> <CNNscore>
0.3929934502

> <CNNaffinity>
6.4432802200

> <CNN_VS>
2.5321669579

> <CNNaffinity_variance>
3.0448670387

$$$$
[H]c1c([H])c(C(F)(F)F)c([H])c([H])c1N([H])C(=O)c1c([H])c([H])c([H])c2c1c([C@]1([H])C([H])([H])C([H])([H])[C@]([H])(N3C([H])([H])C([H])([H])C(F)(F)C3([H])[H])C1([H])[H])nn2[H]


 36 40  0  0  0  0  0  0  0  0999 V2000
    0.4037  -52.7078  -19.9116 C   0  0  0  0  0  0  0  0  0  0  0  0
    0.3102  -54.1028  -19.7541 C   0  0  0  0  0  0  0  0  0  0  0  0
    0.1876  -54.8938  -20.8639 C   0  0  0  0  0  0  0  0  0  0  0  0
    0.1569  -54.3278  -22.1233 C   0  0  0  0  0  0  0  0  0  0  0  0
    0.2492  -52.9876  -22.3003 C   0  0  0  0  0  0  0  0  0  0  0  0
    0.2764  -52.1483  -23.3528 N   0  0  0  0  0  0  0  0  0  0  0  0
    0.4106  -50.9277  -22.9713 N   0  0  0  0  0  0  0  0  0  0  0  0
    0.4839  -50.8578  -21.6055 C   0  0  0  0  0  0  0  0  0  0  0  0
    0.3780  -52.1505  -21.1684 C   0  0  0  0  0  0  0  0  0  0  0  0
    0.1930  -52.4867  -24.3533 H   0  0  0  0  0  0  0  0  0  0  0  0
    0.7212  -49.6337  -20.8774 C   0  0  0  0  0  0  0  0  0  0  0  0
    0.8093  -48.4193  -21.8341 C   0  0  0  0  0  0  0  0  0  0  0  0
    1.6229  -47.4254  -21.0068 C   0  0  0  0  0  0  0  0  0  0  0  0
    2.3972  -48.2234  -20.0068 C   0  0  0  0  0  0  0  0  0  0  0  0
    2.2313  -49.6422  -20.4803 C   0  0  0  0  0  0  0  0  0  0  0  0
    3.7886  -47.8407  -19.8850 N   0  0  0  0  0  0  0  0  0  0  0  0
    4.6807  -48.7149  -20.5872 C   0  0  0  0  0  0  0  0  0  0  0  0
    5.8832  -47.8388  -20.8669 C   0  0  0  0  0  0  0  0  0  0  0  0
    5.4100  -46.4153  -20.7385 C   0  0  0  0  0  0  0  0  0  0  0  0
    6.1254  -45.7341  -19.7526 F   0  0  0  0  0  0  0  0  0  0  0  0
    5.5706  -45.7341  -21.9456 F   0  0  0  0  0  0  0  0  0  0  0  0
    3.9623  -46.5260  -20.4038 C   0  0  0  0  0  0  0  0  0  0  0  0
    1.5547  -51.3900  -18.1144 N   0  0  0  0  0  0  0  0  0  0  0  0
    0.3768  -51.9037  -18.6856 C   0  0  0  0  0  0  0  0  0  0  0  0
   -0.7297  -51.6830  -18.1745 O   0  0  0  0  0  0  0  0  0  0  0  0
    2.4549  -51.6465  -18.6445 H   0  0  0  0  0  0  0  0  0  0  0  0
    1.9612  -48.9212  -14.6943 C   0  0  0  0  0  0  0  0  0  0  0  0
    1.0117  -48.6961  -15.6625 C   0  0  0  0  0  0  0  0  0  0  0  0
    0.8759  -49.4931  -16.7672 C   0  0  0  0  0  0  0  0  0  0  0  0
    1.7228  -50.6057  -16.9683 C   0  0  0  0  0  0  0  0  0  0  0  0
    2.6674  -50.8177  -15.9927 C   0  0  0  0  0  0  0  0  0  0  0  0
    2.7916  -49.9940  -14.8713 C   0  0  0  0  0  0  0  0  0  0  0  0
    3.1511  -48.3942  -12.7363 F   0  0  0  0  0  0  0  0  0  0  0  0
    2.0564  -48.0242  -13.5126 C   0  0  0  0  0  0  0  0  0  0  0  0
    2.1692  -46.7034  -13.8788 F   0  0  0  0  0  0  0  0  0  0  0  0
    0.9189  -48.2579  -12.7404 F   0  0  0  0  0  0  0  0  0  0  0  0
 33 34  1  0  0  0
 34 35  1  0  0  0
 34 36  1  0  0  0
 34 27  1  0  0  0
 27 28  2  0  0  0
 28 29  1  0  0  0
 29 30  2  0  0  0
 30 23  1  0  0  0
 23 24  1  0  0  0
 24 25  2  0  0  0
 24  1  1  0  0  0
  1  2  2  0  0  0
  2  3  1  0  0  0
  3  4  2  0  0  0
  4  5  1  0  0  0
  5  6  1  0  0  0
  6  7  1  0  0  0
  7  8  2  0  0  0
  8 11  1  0  0  0
 11 12  1  0  0  0
 12 13  1  0  0  0
 13 14  1  0  0  0
 14 15  1  0  0  0
 14 16  1  0  0  0
 16 17  1  0  0  0
 17 18  1  0  0  0
 18 19  1  0  0  0
 19 20  1  0  0  0
 19 21  1  0  0  0
 19 22  1  0  0  0
  8  9  1  0  0  0
 30 31  1  0  0  0
 31 32  2  0  0  0
 32 27  1  0  0  0
  9  1  1  0  0  0
  9  5  2  0  0  0
 15 11  1  0  0  0
 22 16  1  0  0  0
 23 26  1  0  0  0
  6 10  1  0  0  0
M  END
> <minimizedAffinity>
-3.88437

> <CNNscore>
0.3881777823

> <CNNaffinity>
6.3447823524

> <CNN_VS>
2.4629034996

> <CNNaffinity_variance>
2.1783316135

$$$$
[H]c1c([H])c(C(F)(F)F)c([H])c([H])c1N([H])C(=O)c1c([H])c([H])c([H])c2c1c([C@]1([H])C([H])([H])C([H])([H])[C@]([H])(N3C([H])([H])C([H])([H])C(F)(F)C3([H])[H])C1([H])[H])nn2[H]


 36 40  0  0  0  0  0  0  0  0999 V2000
    1.0849  -51.8875  -25.3098 C   0  0  0  0  0  0  0  0  0  0  0  0
    0.9900  -51.6119  -26.6863 C   0  0  0  0  0  0  0  0  0  0  0  0
    0.1384  -52.3535  -27.4590 C   0  0  0  0  0  0  0  0  0  0  0  0
   -0.6190  -53.3600  -26.8926 C   0  0  0  0  0  0  0  0  0  0  0  0
   -0.5477  -53.6413  -25.5690 C   0  0  0  0  0  0  0  0  0  0  0  0
   -1.1458  -54.5060  -24.7280 N   0  0  0  0  0  0  0  0  0  0  0  0
   -0.7324  -54.3430  -23.5215 N   0  0  0  0  0  0  0  0  0  0  0  0
    0.1938  -53.3358  -23.4642 C   0  0  0  0  0  0  0  0  0  0  0  0
    0.3242  -52.8872  -24.7506 C   0  0  0  0  0  0  0  0  0  0  0  0
   -1.8596  -55.2172  -25.0554 H   0  0  0  0  0  0  0  0  0  0  0  0
    0.7818  -52.8569  -22.2354 C   0  0  0  0  0  0  0  0  0  0  0  0
    1.0463  -54.0205  -21.2485 C   0  0  0  0  0  0  0  0  0  0  0  0
    1.0681  -53.2943  -19.9044 C   0  0  0  0  0  0  0  0  0  0  0  0
    0.2982  -52.0248  -20.0837 C   0  0  0  0  0  0  0  0  0  0  0  0
   -0.3769  -52.2047  -21.4166 C   0  0  0  0  0  0  0  0  0  0  0  0
   -0.6440  -51.7421  -19.0209 N   0  0  0  0  0  0  0  0  0  0  0  0
   -1.3572  -52.9011  -18.5722 C   0  0  0  0  0  0  0  0  0  0  0  0
   -1.7447  -52.5471  -17.1522 C   0  0  0  0  0  0  0  0  0  0  0  0
   -0.8271  -51.4316  -16.7276 C   0  0  0  0  0  0  0  0  0  0  0  0
   -1.5504  -50.2905  -16.3775 F   0  0  0  0  0  0  0  0  0  0  0  0
   -0.0605  -51.8186  -15.6278 F   0  0  0  0  0  0  0  0  0  0  0  0
    0.0538  -51.1963  -17.9061 C   0  0  0  0  0  0  0  0  0  0  0  0
    1.8106  -50.0855  -23.7231 N   0  0  0  0  0  0  0  0  0  0  0  0
    2.1229  -51.1682  -24.5645 C   0  0  0  0  0  0  0  0  0  0  0  0
    3.2910  -51.5587  -24.6958 O   0  0  0  0  0  0  0  0  0  0  0  0
    0.7649  -49.8361  -23.6884 H   0  0  0  0  0  0  0  0  0  0  0  0
    4.3645  -47.5847  -21.4469 C   0  0  0  0  0  0  0  0  0  0  0  0
    3.8101  -47.1882  -22.6405 C   0  0  0  0  0  0  0  0  0  0  0  0
    2.9826  -47.9924  -23.3771 C   0  0  0  0  0  0  0  0  0  0  0  0
    2.6542  -49.2938  -22.9366 C   0  0  0  0  0  0  0  0  0  0  0  0
    3.2164  -49.6766  -21.7423 C   0  0  0  0  0  0  0  0  0  0  0  0
    4.0588  -48.8423  -21.0033 C   0  0  0  0  0  0  0  0  0  0  0  0
    6.1168  -47.4068  -19.8896 F   0  0  0  0  0  0  0  0  0  0  0  0
    5.2514  -46.6641  -20.6879 C   0  0  0  0  0  0  0  0  0  0  0  0
    5.9744  -45.8442  -21.5224 F   0  0  0  0  0  0  0  0  0  0  0  0
    4.4304  -45.9393  -19.8245 F   0  0  0  0  0  0  0  0  0  0  0  0
 33 34  1  0  0  0
 34 35  1  0  0  0
 34 36  1  0  0  0
 34 27  1  0  0  0
 27 28  2  0  0  0
 28 29  1  0  0  0
 29 30  2  0  0  0
 30 23  1  0  0  0
 23 24  1  0  0  0
 24 25  2  0  0  0
 24  1  1  0  0  0
  1  2  2  0  0  0
  2  3  1  0  0  0
  3  4  2  0  0  0
  4  5  1  0  0  0
  5  6  1  0  0  0
  6  7  1  0  0  0
  7  8  2  0  0  0
  8 11  1  0  0  0
 11 12  1  0  0  0
 12 13  1  0  0  0
 13 14  1  0  0  0
 14 15  1  0  0  0
 14 16  1  0  0  0
 16 17  1  0  0  0
 17 18  1  0  0  0
 18 19  1  0  0  0
 19 20  1  0  0  0
 19 21  1  0  0  0
 19 22  1  0  0  0
  8  9  1  0  0  0
 30 31  1  0  0  0
 31 32  2  0  0  0
 32 27  1  0  0  0
  9  1  1  0  0  0
  9  5  2  0  0  0
 15 11  1  0  0  0
 22 16  1  0  0  0
 23 26  1  0  0  0
  6 10  1  0  0  0
M  END
> <minimizedAffinity>
-6.37030

> <CNNscore>
0.3716074228

> <CNNaffinity>
6.9908356667

> <CNN_VS>
2.5978465080

> <CNNaffinity_variance>
1.2387679815

$$$$
[H]c1c([H])c(C(F)(F)F)c([H])c([H])c1N([H])C(=O)c1c([H])c([H])c([H])c2c1c([C@]1([H])C([H])([H])C([H])([H])[C@]([H])(N3C([H])([H])C([H])([H])C(F)(F)C3([H])[H])C1([H])[H])nn2[H]


 36 40  0  0  0  0  0  0  0  0999 V2000
    0.7740  -51.2790  -22.5730 C   0  0  0  0  0  0  0  0  0  0  0  0
   -0.2875  -51.8721  -21.8649 C   0  0  0  0  0  0  0  0  0  0  0  0
   -0.7425  -51.2761  -20.7203 C   0  0  0  0  0  0  0  0  0  0  0  0
   -0.1659  -50.1058  -20.2672 C   0  0  0  0  0  0  0  0  0  0  0  0
    0.8546  -49.5142  -20.9338 C   0  0  0  0  0  0  0  0  0  0  0  0
    1.5945  -48.3995  -20.7824 N   0  0  0  0  0  0  0  0  0  0  0  0
    2.4461  -48.2731  -21.7374 N   0  0  0  0  0  0  0  0  0  0  0  0
    2.3379  -49.3168  -22.6174 C   0  0  0  0  0  0  0  0  0  0  0  0
    1.3405  -50.1110  -22.1197 C   0  0  0  0  0  0  0  0  0  0  0  0
    1.4643  -47.7361  -19.9666 H   0  0  0  0  0  0  0  0  0  0  0  0
    3.0998  -49.4165  -23.8399 C   0  0  0  0  0  0  0  0  0  0  0  0
    4.0985  -48.2410  -23.9767 C   0  0  0  0  0  0  0  0  0  0  0  0
    4.3220  -48.1921  -25.4873 C   0  0  0  0  0  0  0  0  0  0  0  0
    3.1311  -48.8347  -26.1239 C   0  0  0  0  0  0  0  0  0  0  0  0
    2.1483  -48.9608  -24.9912 C   0  0  0  0  0  0  0  0  0  0  0  0
    2.5868  -48.1025  -27.2486 N   0  0  0  0  0  0  0  0  0  0  0  0
    2.5077  -46.6901  -27.0210 C   0  0  0  0  0  0  0  0  0  0  0  0
    2.5504  -46.1064  -28.4173 C   0  0  0  0  0  0  0  0  0  0  0  0
    3.1302  -47.1746  -29.3060 C   0  0  0  0  0  0  0  0  0  0  0  0
    2.2400  -47.5202  -30.3238 F   0  0  0  0  0  0  0  0  0  0  0  0
    4.3168  -46.7336  -29.8930 F   0  0  0  0  0  0  0  0  0  0  0  0
    3.4073  -48.3185  -28.3922 C   0  0  0  0  0  0  0  0  0  0  0  0
    0.4902  -52.7850  -24.5587 N   0  0  0  0  0  0  0  0  0  0  0  0
    1.3198  -52.0409  -23.7009 C   0  0  0  0  0  0  0  0  0  0  0  0
    2.5449  -51.9959  -23.8778 O   0  0  0  0  0  0  0  0  0  0  0  0
   -0.5551  -52.7503  -24.3073 H   0  0  0  0  0  0  0  0  0  0  0  0
    1.3775  -55.0802  -28.0086 C   0  0  0  0  0  0  0  0  0  0  0  0
    0.2827  -54.2527  -27.9301 C   0  0  0  0  0  0  0  0  0  0  0  0
   -0.0055  -53.5078  -26.8183 C   0  0  0  0  0  0  0  0  0  0  0  0
    0.8248  -53.5567  -25.6765 C   0  0  0  0  0  0  0  0  0  0  0  0
    1.9147  -54.3888  -25.7693 C   0  0  0  0  0  0  0  0  0  0  0  0
    2.1938  -55.1418  -26.9124 C   0  0  0  0  0  0  0  0  0  0  0  0
    2.9683  -55.6832  -29.6313 F   0  0  0  0  0  0  0  0  0  0  0  0
    1.6424  -55.8604  -29.2460 C   0  0  0  0  0  0  0  0  0  0  0  0
    1.3815  -57.1997  -29.0739 F   0  0  0  0  0  0  0  0  0  0  0  0
    0.8538  -55.2983  -30.2496 F   0  0  0  0  0  0  0  0  0  0  0  0
 33 34  1  0  0  0
 34 35  1  0  0  0
 34 36  1  0  0  0
 34 27  1  0  0  0
 27 28  2  0  0  0
 28 29  1  0  0  0
 29 30  2  0  0  0
 30 23  1  0  0  0
 23 24  1  0  0  0
 24 25  2  0  0  0
 24  1  1  0  0  0
  1  2  2  0  0  0
  2  3  1  0  0  0
  3  4  2  0  0  0
  4  5  1  0  0  0
  5  6  1  0  0  0
  6  7  1  0  0  0
  7  8  2  0  0  0
  8 11  1  0  0  0
 11 12  1  0  0  0
 12 13  1  0  0  0
 13 14  1  0  0  0
 14 15  1  0  0  0
 14 16  1  0  0  0
 16 17  1  0  0  0
 17 18  1  0  0  0
 18 19  1  0  0  0
 19 20  1  0  0  0
 19 21  1  0  0  0
 19 22  1  0  0  0
  8  9  1  0  0  0
 30 31  1  0  0  0
 31 32  2  0  0  0
 32 27  1  0  0  0
  9  1  1  0  0  0
  9  5  2  0  0  0
 15 11  1  0  0  0
 22 16  1  0  0  0
 23 26  1  0  0  0
  6 10  1  0  0  0
M  END
> <minimizedAffinity>
10.96409

> <CNNscore>
0.3495348394

> <CNNaffinity>
6.3622412682

> <CNN_VS>
2.2238249779

> <CNNaffinity_variance>
1.2643699646

$$$$
