[H]Oc1c(OC([H])([H])C([H])([H])[H])c([H])c(/C([H])=C2\C(=O)N([H])C([H])([H])C2([H])[H])c([H])c1C([H])([H])Sc1c([H])c([H])c([H])c([H])c1[H]


 27 29  0  0  0  0  0  0  0  0999 V2000
   -0.4027  -52.5827  -21.3495 C   0  0  0  0  0  0  0  0  0  0  0  0
    0.4542  -51.5070  -21.2973 C   0  0  0  0  0  0  0  0  0  0  0  0
    0.8511  -50.9327  -20.0900 C   0  0  0  0  0  0  0  0  0  0  0  0
    0.3410  -51.5123  -18.9416 C   0  0  0  0  0  0  0  0  0  0  0  0
   -0.5196  -52.5854  -18.9266 C   0  0  0  0  0  0  0  0  0  0  0  0
   -0.8851  -53.1067  -20.1327 C   0  0  0  0  0  0  0  0  0  0  0  0
   -1.7738  -54.1955  -20.1941 O   0  0  0  0  0  0  0  0  0  0  0  0
   -2.1536  -54.6675  -19.3960 H   0  0  0  0  0  0  0  0  0  0  0  0
    1.4873  -49.6381  -20.1373 C   0  0  0  0  0  0  0  0  0  0  0  0
    2.6727  -49.2663  -19.8669 C   0  0  0  0  0  0  0  0  0  0  0  0
    3.2181  -47.8475  -19.9549 C   0  0  0  0  0  0  0  0  0  0  0  0
    4.5272  -47.9756  -19.2090 C   0  0  0  0  0  0  0  0  0  0  0  0
    4.9809  -49.3213  -19.5254 N   0  0  0  0  0  0  0  0  0  0  0  0
    3.7993  -50.1059  -19.5048 C   0  0  0  0  0  0  0  0  0  0  0  0
    3.6859  -51.3458  -19.2228 O   0  0  0  0  0  0  0  0  0  0  0  0
    5.9362  -49.6413  -19.7279 H   0  0  0  0  0  0  0  0  0  0  0  0
   -0.8288  -53.2178  -22.4476 O   0  0  0  0  0  0  0  0  0  0  0  0
   -0.5530  -52.6472  -24.7547 C   0  0  0  0  0  0  0  0  0  0  0  0
   -0.3074  -53.6414  -23.6052 C   0  0  0  0  0  0  0  0  0  0  0  0
   -1.2927  -53.0116  -17.6873 C   0  0  0  0  0  0  0  0  0  0  0  0
   -0.9410  -52.0772  -16.2209 S   0  0  0  0  0  0  0  0  0  0  0  0
   -2.2750  -51.0296  -15.7336 C   0  0  0  0  0  0  0  0  0  0  0  0
   -3.6035  -51.4223  -15.7373 C   0  0  0  0  0  0  0  0  0  0  0  0
   -4.6344  -50.5997  -15.3579 C   0  0  0  0  0  0  0  0  0  0  0  0
   -4.3591  -49.3155  -14.9479 C   0  0  0  0  0  0  0  0  0  0  0  0
   -3.0286  -48.8829  -14.9302 C   0  0  0  0  0  0  0  0  0  0  0  0
   -2.0254  -49.7360  -15.3168 C   0  0  0  0  0  0  0  0  0  0  0  0
 18 19  1  0  0  0
 19 17  1  0  0  0
 17  1  1  0  0  0
  1  2  2  0  0  0
  2  3  1  0  0  0
  3  9  1  0  0  0
  9 10  2  0  0  0
 10 11  1  0  0  0
 11 12  1  0  0  0
 12 13  1  0  0  0
 13 14  1  0  0  0
 14 15  2  0  0  0
  3  4  2  0  0  0
  4  5  1  0  0  0
  5 20  1  0  0  0
 20 21  1  0  0  0
 21 22  1  0  0  0
 22 23  2  0  0  0
 23 24  1  0  0  0
 24 25  2  0  0  0
 25 26  1  0  0  0
 26 27  2  0  0  0
  5  6  2  0  0  0
  6  7  1  0  0  0
  6  1  1  0  0  0
 14 10  1  0  0  0
 27 22  1  0  0  0
 13 16  1  0  0  0
  7  8  1  0  0  0
M  END
> <minimizedAffinity>
-7.05818

> <CNNscore>
0.7217522860

> <CNNaffinity>
5.7988133430

> <CNN_VS>
4.1853065491

> <CNNaffinity_variance>
0.0058797309

$$$$
[H]Oc1c(OC([H])([H])C([H])([H])[H])c([H])c(/C([H])=C2\C(=O)N([H])C([H])([H])C2([H])[H])c([H])c1C([H])([H])Sc1c([H])c([H])c([H])c([H])c1[H]


 27 29  0  0  0  0  0  0  0  0999 V2000
    0.1125  -52.6879  -21.0820 C   0  0  0  0  0  0  0  0  0  0  0  0
    0.9295  -51.5897  -20.9379 C   0  0  0  0  0  0  0  0  0  0  0  0
    1.0513  -50.9095  -19.7266 C   0  0  0  0  0  0  0  0  0  0  0  0
    0.3091  -51.4072  -18.6699 C   0  0  0  0  0  0  0  0  0  0  0  0
   -0.5261  -52.4973  -18.7495 C   0  0  0  0  0  0  0  0  0  0  0  0
   -0.6178  -53.1239  -19.9574 C   0  0  0  0  0  0  0  0  0  0  0  0
   -1.4638  -54.2366  -20.1162 O   0  0  0  0  0  0  0  0  0  0  0  0
   -2.0038  -54.6521  -19.3814 H   0  0  0  0  0  0  0  0  0  0  0  0
    1.6726  -49.6070  -19.7453 C   0  0  0  0  0  0  0  0  0  0  0  0
    2.7564  -49.1780  -19.2375 C   0  0  0  0  0  0  0  0  0  0  0  0
    3.2988  -47.7582  -19.3293 C   0  0  0  0  0  0  0  0  0  0  0  0
    4.3915  -47.7795  -18.2843 C   0  0  0  0  0  0  0  0  0  0  0  0
    4.9157  -49.1351  -18.3527 N   0  0  0  0  0  0  0  0  0  0  0  0
    3.7682  -49.9480  -18.5386 C   0  0  0  0  0  0  0  0  0  0  0  0
    3.5978  -51.1595  -18.1737 O   0  0  0  0  0  0  0  0  0  0  0  0
    5.8936  -49.4448  -18.2902 H   0  0  0  0  0  0  0  0  0  0  0  0
   -0.0609  -53.4206  -22.1882 O   0  0  0  0  0  0  0  0  0  0  0  0
    1.0332  -52.8617  -24.2412 C   0  0  0  0  0  0  0  0  0  0  0  0
   -0.2681  -53.2016  -23.4922 C   0  0  0  0  0  0  0  0  0  0  0  0
   -1.5459  -52.8416  -17.6740 C   0  0  0  0  0  0  0  0  0  0  0  0
   -1.0384  -52.4845  -16.0120 S   0  0  0  0  0  0  0  0  0  0  0  0
   -0.3270  -50.8789  -15.8375 C   0  0  0  0  0  0  0  0  0  0  0  0
    1.0295  -50.6514  -15.6724 C   0  0  0  0  0  0  0  0  0  0  0  0
    1.5731  -49.3988  -15.5360 C   0  0  0  0  0  0  0  0  0  0  0  0
    0.7492  -48.2973  -15.5627 C   0  0  0  0  0  0  0  0  0  0  0  0
   -0.6270  -48.4873  -15.7283 C   0  0  0  0  0  0  0  0  0  0  0  0
   -1.1324  -49.7563  -15.8619 C   0  0  0  0  0  0  0  0  0  0  0  0
 18 19  1  0  0  0
 19 17  1  0  0  0
 17  1  1  0  0  0
  1  2  2  0  0  0
  2  3  1  0  0  0
  3  9  1  0  0  0
  9 10  2  0  0  0
 10 11  1  0  0  0
 11 12  1  0  0  0
 12 13  1  0  0  0
 13 14  1  0  0  0
 14 15  2  0  0  0
  3  4  2  0  0  0
  4  5  1  0  0  0
  5 20  1  0  0  0
 20 21  1  0  0  0
 21 22  1  0  0  0
 22 23  2  0  0  0
 23 24  1  0  0  0
 24 25  2  0  0  0
 25 26  1  0  0  0
 26 27  2  0  0  0
  5  6  2  0  0  0
  6  7  1  0  0  0
  6  1  1  0  0  0
 14 10  1  0  0  0
 27 22  1  0  0  0
 13 16  1  0  0  0
  7  8  1  0  0  0
M  END
> <minimizedAffinity>
-5.85225

> <CNNscore>
0.6263585687

> <CNNaffinity>
5.5539484024

> <CNN_VS>
3.4787631035

> <CNNaffinity_variance>
0.0546414927

$$$$
[H]Oc1c(OC([H])([H])C([H])([H])[H])c([H])c(/C([H])=C2\C(=O)N([H])C([H])([H])C2([H])[H])c([H])c1C([H])([H])Sc1c([H])c([H])c([H])c([H])c1[H]


 27 29  0  0  0  0  0  0  0  0999 V2000
   -0.4064  -52.9003  -25.1578 C   0  0  0  0  0  0  0  0  0  0  0  0
    0.5065  -51.8760  -25.0494 C   0  0  0  0  0  0  0  0  0  0  0  0
    1.2774  -51.6875  -23.9027 C   0  0  0  0  0  0  0  0  0  0  0  0
    1.0797  -52.5966  -22.8782 C   0  0  0  0  0  0  0  0  0  0  0  0
    0.1830  -53.6388  -22.9236 C   0  0  0  0  0  0  0  0  0  0  0  0
   -0.5536  -53.7767  -24.0631 C   0  0  0  0  0  0  0  0  0  0  0  0
   -1.5004  -54.8112  -24.1742 O   0  0  0  0  0  0  0  0  0  0  0  0
   -1.6670  -55.5093  -23.4751 H   0  0  0  0  0  0  0  0  0  0  0  0
    1.9670  -50.4284  -23.7545 C   0  0  0  0  0  0  0  0  0  0  0  0
    3.1439  -50.0648  -24.0697 C   0  0  0  0  0  0  0  0  0  0  0  0
    3.7553  -48.6881  -23.8483 C   0  0  0  0  0  0  0  0  0  0  0  0
    5.2214  -48.9599  -24.0998 C   0  0  0  0  0  0  0  0  0  0  0  0
    5.2160  -49.9771  -25.1401 N   0  0  0  0  0  0  0  0  0  0  0  0
    4.1412  -50.8340  -24.7900 C   0  0  0  0  0  0  0  0  0  0  0  0
    4.0181  -52.0799  -25.0399 O   0  0  0  0  0  0  0  0  0  0  0  0
    5.8389  -50.0613  -25.9531 H   0  0  0  0  0  0  0  0  0  0  0  0
   -1.1779  -53.1803  -26.2146 O   0  0  0  0  0  0  0  0  0  0  0  0
   -0.7395  -52.8570  -28.5444 C   0  0  0  0  0  0  0  0  0  0  0  0
   -1.6106  -52.5495  -27.3129 C   0  0  0  0  0  0  0  0  0  0  0  0
   -0.2279  -54.4340  -21.6931 C   0  0  0  0  0  0  0  0  0  0  0  0
   -1.4711  -53.6712  -20.6832 S   0  0  0  0  0  0  0  0  0  0  0  0
   -0.7960  -52.6956  -19.3767 C   0  0  0  0  0  0  0  0  0  0  0  0
    0.1730  -51.7233  -19.5632 C   0  0  0  0  0  0  0  0  0  0  0  0
    0.6930  -50.9707  -18.5403 C   0  0  0  0  0  0  0  0  0  0  0  0
    0.2441  -51.1731  -17.2556 C   0  0  0  0  0  0  0  0  0  0  0  0
   -0.7348  -52.1466  -17.0280 C   0  0  0  0  0  0  0  0  0  0  0  0
   -1.2304  -52.8787  -18.0778 C   0  0  0  0  0  0  0  0  0  0  0  0
 18 19  1  0  0  0
 19 17  1  0  0  0
 17  1  1  0  0  0
  1  2  2  0  0  0
  2  3  1  0  0  0
  3  9  1  0  0  0
  9 10  2  0  0  0
 10 11  1  0  0  0
 11 12  1  0  0  0
 12 13  1  0  0  0
 13 14  1  0  0  0
 14 15  2  0  0  0
  3  4  2  0  0  0
  4  5  1  0  0  0
  5 20  1  0  0  0
 20 21  1  0  0  0
 21 22  1  0  0  0
 22 23  2  0  0  0
 23 24  1  0  0  0
 24 25  2  0  0  0
 25 26  1  0  0  0
 26 27  2  0  0  0
  5  6  2  0  0  0
  6  7  1  0  0  0
  6  1  1  0  0  0
 14 10  1  0  0  0
 27 22  1  0  0  0
 13 16  1  0  0  0
  7  8  1  0  0  0
M  END
> <minimizedAffinity>
-7.53895

> <CNNscore>
0.5715449452

> <CNNaffinity>
6.4237871170

> <CNN_VS>
3.6714830399

> <CNNaffinity_variance>
0.1757119894

$$$$
[H]Oc1c(OC([H])([H])C([H])([H])[H])c([H])c(/C([H])=C2\C(=O)N([H])C([H])([H])C2([H])[H])c([H])c1C([H])([H])Sc1c([H])c([H])c([H])c([H])c1[H]


 27 29  0  0  0  0  0  0  0  0999 V2000
   -0.2505  -52.9356  -24.9904 C   0  0  0  0  0  0  0  0  0  0  0  0
    0.7527  -51.9987  -24.8895 C   0  0  0  0  0  0  0  0  0  0  0  0
    1.5334  -51.8686  -23.7413 C   0  0  0  0  0  0  0  0  0  0  0  0
    1.2489  -52.7434  -22.7074 C   0  0  0  0  0  0  0  0  0  0  0  0
    0.2599  -53.6988  -22.7451 C   0  0  0  0  0  0  0  0  0  0  0  0
   -0.4820  -53.7816  -23.8864 C   0  0  0  0  0  0  0  0  0  0  0  0
   -1.5200  -54.7255  -23.9901 O   0  0  0  0  0  0  0  0  0  0  0  0
   -1.7530  -55.3969  -23.2838 H   0  0  0  0  0  0  0  0  0  0  0  0
    2.3359  -50.6769  -23.6043 C   0  0  0  0  0  0  0  0  0  0  0  0
    2.2120  -49.6529  -22.8610 C   0  0  0  0  0  0  0  0  0  0  0  0
    3.1402  -48.4466  -22.8205 C   0  0  0  0  0  0  0  0  0  0  0  0
    2.3174  -47.4532  -22.0315 C   0  0  0  0  0  0  0  0  0  0  0  0
    1.5882  -48.2785  -21.0807 N   0  0  0  0  0  0  0  0  0  0  0  0
    1.2240  -49.4320  -21.8217 C   0  0  0  0  0  0  0  0  0  0  0  0
    0.2095  -50.1874  -21.6486 O   0  0  0  0  0  0  0  0  0  0  0  0
    1.3842  -48.0844  -20.0924 H   0  0  0  0  0  0  0  0  0  0  0  0
   -1.0407  -53.1557  -26.0476 O   0  0  0  0  0  0  0  0  0  0  0  0
   -2.6313  -52.2837  -27.6077 C   0  0  0  0  0  0  0  0  0  0  0  0
   -1.1777  -52.6796  -27.2909 C   0  0  0  0  0  0  0  0  0  0  0  0
   -0.2273  -54.4379  -21.5075 C   0  0  0  0  0  0  0  0  0  0  0  0
   -1.5020  -53.6131  -20.5899 S   0  0  0  0  0  0  0  0  0  0  0  0
   -0.8918  -52.7739  -19.1623 C   0  0  0  0  0  0  0  0  0  0  0  0
    0.1854  -51.9031  -19.1827 C   0  0  0  0  0  0  0  0  0  0  0  0
    0.6536  -51.2562  -18.0666 C   0  0  0  0  0  0  0  0  0  0  0  0
    0.0373  -51.4663  -16.8546 C   0  0  0  0  0  0  0  0  0  0  0  0
   -1.0547  -52.3390  -16.7947 C   0  0  0  0  0  0  0  0  0  0  0  0
   -1.4935  -52.9668  -17.9334 C   0  0  0  0  0  0  0  0  0  0  0  0
 18 19  1  0  0  0
 19 17  1  0  0  0
 17  1  1  0  0  0
  1  2  2  0  0  0
  2  3  1  0  0  0
  3  9  1  0  0  0
  9 10  2  0  0  0
 10 11  1  0  0  0
 11 12  1  0  0  0
 12 13  1  0  0  0
 13 14  1  0  0  0
 14 15  2  0  0  0
  3  4  2  0  0  0
  4  5  1  0  0  0
  5 20  1  0  0  0
 20 21  1  0  0  0
 21 22  1  0  0  0
 22 23  2  0  0  0
 23 24  1  0  0  0
 24 25  2  0  0  0
 25 26  1  0  0  0
 26 27  2  0  0  0
  5  6  2  0  0  0
  6  7  1  0  0  0
  6  1  1  0  0  0
 14 10  1  0  0  0
 27 22  1  0  0  0
 13 16  1  0  0  0
  7  8  1  0  0  0
M  END
> <minimizedAffinity>
-7.06914

> <CNNscore>
0.5641594529

> <CNNaffinity>
6.1493897438

> <CNN_VS>
3.4692363739

> <CNNaffinity_variance>
0.1514362991

$$$$
[H]Oc1c(OC([H])([H])C([H])([H])[H])c([H])c(/C([H])=C2\C(=O)N([H])C([H])([H])C2([H])[H])c([H])c1C([H])([H])Sc1c([H])c([H])c([H])c([H])c1[H]


 27 29  0  0  0  0  0  0  0  0999 V2000
   -0.5057  -52.6904  -21.5268 C   0  0  0  0  0  0  0  0  0  0  0  0
    0.1680  -51.5227  -21.8040 C   0  0  0  0  0  0  0  0  0  0  0  0
    0.6398  -50.6814  -20.7968 C   0  0  0  0  0  0  0  0  0  0  0  0
    0.4004  -51.0917  -19.4970 C   0  0  0  0  0  0  0  0  0  0  0  0
   -0.2675  -52.2444  -19.1543 C   0  0  0  0  0  0  0  0  0  0  0  0
   -0.7169  -53.0298  -20.1747 C   0  0  0  0  0  0  0  0  0  0  0  0
   -1.4209  -54.2161  -19.8987 O   0  0  0  0  0  0  0  0  0  0  0  0
   -1.6011  -54.5717  -18.9794 H   0  0  0  0  0  0  0  0  0  0  0  0
    1.0488  -49.3485  -21.1695 C   0  0  0  0  0  0  0  0  0  0  0  0
    2.1756  -48.8747  -21.5192 C   0  0  0  0  0  0  0  0  0  0  0  0
    2.4743  -47.4272  -21.8851 C   0  0  0  0  0  0  0  0  0  0  0  0
    3.9863  -47.4138  -21.8728 C   0  0  0  0  0  0  0  0  0  0  0  0
    4.3527  -48.7387  -22.3495 N   0  0  0  0  0  0  0  0  0  0  0  0
    3.4091  -49.6058  -21.7413 C   0  0  0  0  0  0  0  0  0  0  0  0
    3.5634  -50.8318  -21.4203 O   0  0  0  0  0  0  0  0  0  0  0  0
    5.1145  -48.9988  -22.9883 H   0  0  0  0  0  0  0  0  0  0  0  0
   -0.9805  -53.5737  -22.4128 O   0  0  0  0  0  0  0  0  0  0  0  0
   -1.0607  -55.4903  -23.8426 C   0  0  0  0  0  0  0  0  0  0  0  0
   -0.6512  -54.0216  -23.6303 C   0  0  0  0  0  0  0  0  0  0  0  0
   -0.7750  -52.5221  -17.7469 C   0  0  0  0  0  0  0  0  0  0  0  0
   -0.1200  -51.4597  -16.4861 S   0  0  0  0  0  0  0  0  0  0  0  0
   -1.3132  -50.3245  -15.8518 C   0  0  0  0  0  0  0  0  0  0  0  0
   -1.0809  -48.9670  -15.7017 C   0  0  0  0  0  0  0  0  0  0  0  0
   -2.0149  -48.0923  -15.2060 C   0  0  0  0  0  0  0  0  0  0  0  0
   -3.2526  -48.5637  -14.8334 C   0  0  0  0  0  0  0  0  0  0  0  0
   -3.5244  -49.9293  -14.9710 C   0  0  0  0  0  0  0  0  0  0  0  0
   -2.5639  -50.7723  -15.4715 C   0  0  0  0  0  0  0  0  0  0  0  0
 18 19  1  0  0  0
 19 17  1  0  0  0
 17  1  1  0  0  0
  1  2  2  0  0  0
  2  3  1  0  0  0
  3  9  1  0  0  0
  9 10  2  0  0  0
 10 11  1  0  0  0
 11 12  1  0  0  0
 12 13  1  0  0  0
 13 14  1  0  0  0
 14 15  2  0  0  0
  3  4  2  0  0  0
  4  5  1  0  0  0
  5 20  1  0  0  0
 20 21  1  0  0  0
 21 22  1  0  0  0
 22 23  2  0  0  0
 23 24  1  0  0  0
 24 25  2  0  0  0
 25 26  1  0  0  0
 26 27  2  0  0  0
  5  6  2  0  0  0
  6  7  1  0  0  0
  6  1  1  0  0  0
 14 10  1  0  0  0
 27 22  1  0  0  0
 13 16  1  0  0  0
  7  8  1  0  0  0
M  END
> <minimizedAffinity>
-6.73471

> <CNNscore>
0.5258489251

> <CNNaffinity>
5.6235628128

> <CNN_VS>
2.9571444988

> <CNNaffinity_variance>
0.0295973215

$$$$
[H]Oc1c(OC([H])([H])C([H])([H])[H])c([H])c(/C([H])=C2\C(=O)N([H])C([H])([H])C2([H])[H])c([H])c1C([H])([H])Sc1c([H])c([H])c([H])c([H])c1[H]


 27 29  0  0  0  0  0  0  0  0999 V2000
   -0.4551  -52.7023  -21.7397 C   0  0  0  0  0  0  0  0  0  0  0  0
    0.2278  -51.5356  -21.9983 C   0  0  0  0  0  0  0  0  0  0  0  0
    0.7040  -50.7130  -20.9779 C   0  0  0  0  0  0  0  0  0  0  0  0
    0.4592  -51.1407  -19.6847 C   0  0  0  0  0  0  0  0  0  0  0  0
   -0.2179  -52.2934  -19.3604 C   0  0  0  0  0  0  0  0  0  0  0  0
   -0.6713  -53.0602  -20.3931 C   0  0  0  0  0  0  0  0  0  0  0  0
   -1.3846  -54.2451  -20.1361 O   0  0  0  0  0  0  0  0  0  0  0  0
   -1.5690  -54.6131  -19.2225 H   0  0  0  0  0  0  0  0  0  0  0  0
    1.1236  -49.3778  -21.3300 C   0  0  0  0  0  0  0  0  0  0  0  0
    2.2580  -48.9039  -21.6540 C   0  0  0  0  0  0  0  0  0  0  0  0
    2.5675  -47.4539  -22.0002 C   0  0  0  0  0  0  0  0  0  0  0  0
    4.0791  -47.4450  -21.9594 C   0  0  0  0  0  0  0  0  0  0  0  0
    4.4506  -48.7664  -22.4420 N   0  0  0  0  0  0  0  0  0  0  0  0
    3.4934  -49.6364  -21.8599 C   0  0  0  0  0  0  0  0  0  0  0  0
    3.6384  -50.8659  -21.5480 O   0  0  0  0  0  0  0  0  0  0  0  0
    5.2236  -49.0225  -23.0689 H   0  0  0  0  0  0  0  0  0  0  0  0
   -0.9348  -53.5687  -22.6395 O   0  0  0  0  0  0  0  0  0  0  0  0
   -0.7297  -53.1340  -24.9833 C   0  0  0  0  0  0  0  0  0  0  0  0
   -0.5391  -54.1020  -23.8016 C   0  0  0  0  0  0  0  0  0  0  0  0
   -0.7300  -52.5882  -17.9582 C   0  0  0  0  0  0  0  0  0  0  0  0
   -0.6052  -51.2405  -16.8113 S   0  0  0  0  0  0  0  0  0  0  0  0
    0.8964  -51.2599  -15.8843 C   0  0  0  0  0  0  0  0  0  0  0  0
    2.0846  -50.7053  -16.3314 C   0  0  0  0  0  0  0  0  0  0  0  0
    3.2479  -50.7267  -15.6037 C   0  0  0  0  0  0  0  0  0  0  0  0
    3.2591  -51.3227  -14.3637 C   0  0  0  0  0  0  0  0  0  0  0  0
    2.0776  -51.8935  -13.8781 C   0  0  0  0  0  0  0  0  0  0  0  0
    0.9342  -51.8513  -14.6360 C   0  0  0  0  0  0  0  0  0  0  0  0
 18 19  1  0  0  0
 19 17  1  0  0  0
 17  1  1  0  0  0
  1  2  2  0  0  0
  2  3  1  0  0  0
  3  9  1  0  0  0
  9 10  2  0  0  0
 10 11  1  0  0  0
 11 12  1  0  0  0
 12 13  1  0  0  0
 13 14  1  0  0  0
 14 15  2  0  0  0
  3  4  2  0  0  0
  4  5  1  0  0  0
  5 20  1  0  0  0
 20 21  1  0  0  0
 21 22  1  0  0  0
 22 23  2  0  0  0
 23 24  1  0  0  0
 24 25  2  0  0  0
 25 26  1  0  0  0
 26 27  2  0  0  0
  5  6  2  0  0  0
  6  7  1  0  0  0
  6  1  1  0  0  0
 14 10  1  0  0  0
 27 22  1  0  0  0
 13 16  1  0  0  0
  7  8  1  0  0  0
M  END
> <minimizedAffinity>
-6.32302

> <CNNscore>
0.4916397929

> <CNNaffinity>
5.6260137558

> <CNN_VS>
2.7659721375

> <CNNaffinity_variance>
0.0660256073

$$$$
[H]Oc1c(OC([H])([H])C([H])([H])[H])c([H])c(/C([H])=C2\C(=O)N([H])C([H])([H])C2([H])[H])c([H])c1C([H])([H])Sc1c([H])c([H])c([H])c([H])c1[H]


 27 29  0  0  0  0  0  0  0  0999 V2000
   -0.1728  -53.1999  -23.0716 C   0  0  0  0  0  0  0  0  0  0  0  0
    0.5290  -52.0160  -23.0652 C   0  0  0  0  0  0  0  0  0  0  0  0
    0.6991  -51.2607  -21.9052 C   0  0  0  0  0  0  0  0  0  0  0  0
    0.1286  -51.7740  -20.7536 C   0  0  0  0  0  0  0  0  0  0  0  0
   -0.5854  -52.9483  -20.6945 C   0  0  0  0  0  0  0  0  0  0  0  0
   -0.7313  -53.6470  -21.8567 C   0  0  0  0  0  0  0  0  0  0  0  0
   -1.4616  -54.8492  -21.8739 O   0  0  0  0  0  0  0  0  0  0  0  0
   -1.8743  -55.2775  -21.0675 H   0  0  0  0  0  0  0  0  0  0  0  0
    1.1683  -49.9034  -22.0483 C   0  0  0  0  0  0  0  0  0  0  0  0
    2.3275  -49.3921  -21.9419 C   0  0  0  0  0  0  0  0  0  0  0  0
    2.6875  -47.9228  -22.1145 C   0  0  0  0  0  0  0  0  0  0  0  0
    4.0893  -47.8824  -21.5489 C   0  0  0  0  0  0  0  0  0  0  0  0
    4.6511  -49.1747  -21.9114 N   0  0  0  0  0  0  0  0  0  0  0  0
    3.5820  -50.0884  -21.7263 C   0  0  0  0  0  0  0  0  0  0  0  0
    3.6520  -51.3260  -21.4208 O   0  0  0  0  0  0  0  0  0  0  0  0
    5.6021  -49.3882  -22.2369 H   0  0  0  0  0  0  0  0  0  0  0  0
   -0.3773  -54.0069  -24.1193 O   0  0  0  0  0  0  0  0  0  0  0  0
    0.0047  -55.3270  -26.0778 C   0  0  0  0  0  0  0  0  0  0  0  0
   -0.2500  -53.9445  -25.4502 C   0  0  0  0  0  0  0  0  0  0  0  0
   -1.4453  -53.3373  -19.5009 C   0  0  0  0  0  0  0  0  0  0  0  0
   -0.8724  -52.7390  -17.9322 S   0  0  0  0  0  0  0  0  0  0  0  0
   -2.1867  -52.3013  -16.8387 C   0  0  0  0  0  0  0  0  0  0  0  0
   -2.0875  -51.3142  -15.8717 C   0  0  0  0  0  0  0  0  0  0  0  0
   -3.1149  -50.9820  -15.0248 C   0  0  0  0  0  0  0  0  0  0  0  0
   -4.3147  -51.6484  -15.1229 C   0  0  0  0  0  0  0  0  0  0  0  0
   -4.4528  -52.6517  -16.0882 C   0  0  0  0  0  0  0  0  0  0  0  0
   -3.4018  -52.9546  -16.9172 C   0  0  0  0  0  0  0  0  0  0  0  0
 18 19  1  0  0  0
 19 17  1  0  0  0
 17  1  1  0  0  0
  1  2  2  0  0  0
  2  3  1  0  0  0
  3  9  1  0  0  0
  9 10  2  0  0  0
 10 11  1  0  0  0
 11 12  1  0  0  0
 12 13  1  0  0  0
 13 14  1  0  0  0
 14 15  2  0  0  0
  3  4  2  0  0  0
  4  5  1  0  0  0
  5 20  1  0  0  0
 20 21  1  0  0  0
 21 22  1  0  0  0
 22 23  2  0  0  0
 23 24  1  0  0  0
 24 25  2  0  0  0
 25 26  1  0  0  0
 26 27  2  0  0  0
  5  6  2  0  0  0
  6  7  1  0  0  0
  6  1  1  0  0  0
 14 10  1  0  0  0
 27 22  1  0  0  0
 13 16  1  0  0  0
  7  8  1  0  0  0
M  END
> <minimizedAffinity>
-6.81716

> <CNNscore>
0.4691768587

> <CNNaffinity>
5.7765092850

> <CNN_VS>
2.7102043629

> <CNNaffinity_variance>
0.0321777910

$$$$
[H]Oc1c(OC([H])([H])C([H])([H])[H])c([H])c(/C([H])=C2\C(=O)N([H])C([H])([H])C2([H])[H])c([H])c1C([H])([H])Sc1c([H])c([H])c([H])c([H])c1[H]


 27 29  0  0  0  0  0  0  0  0999 V2000
    0.9355  -52.4596  -26.0782 C   0  0  0  0  0  0  0  0  0  0  0  0
    2.2428  -52.3479  -25.6625 C   0  0  0  0  0  0  0  0  0  0  0  0
    2.6228  -52.5753  -24.3401 C   0  0  0  0  0  0  0  0  0  0  0  0
    1.6099  -52.9301  -23.4665 C   0  0  0  0  0  0  0  0  0  0  0  0
    0.2861  -53.0562  -23.8184 C   0  0  0  0  0  0  0  0  0  0  0  0
   -0.0370  -52.8155  -25.1214 C   0  0  0  0  0  0  0  0  0  0  0  0
   -1.3736  -52.9114  -25.5495 O   0  0  0  0  0  0  0  0  0  0  0  0
   -2.1409  -53.1866  -24.9667 H   0  0  0  0  0  0  0  0  0  0  0  0
    3.9361  -52.1374  -23.9322 C   0  0  0  0  0  0  0  0  0  0  0  0
    4.3455  -51.0458  -23.4248 C   0  0  0  0  0  0  0  0  0  0  0  0
    5.7800  -50.7079  -23.0421 C   0  0  0  0  0  0  0  0  0  0  0  0
    5.6958  -49.2135  -22.8272 C   0  0  0  0  0  0  0  0  0  0  0  0
    4.3631  -49.0126  -22.2790 N   0  0  0  0  0  0  0  0  0  0  0  0
    3.5428  -49.9114  -23.0078 C   0  0  0  0  0  0  0  0  0  0  0  0
    2.3014  -49.7941  -23.2817 O   0  0  0  0  0  0  0  0  0  0  0  0
    4.0716  -48.3737  -21.5287 H   0  0  0  0  0  0  0  0  0  0  0  0
    0.4695  -52.2831  -27.3201 O   0  0  0  0  0  0  0  0  0  0  0  0
   -0.7999  -52.7857  -29.2849 C   0  0  0  0  0  0  0  0  0  0  0  0
    0.5094  -52.9341  -28.4888 C   0  0  0  0  0  0  0  0  0  0  0  0
   -0.8383  -53.1523  -22.7977 C   0  0  0  0  0  0  0  0  0  0  0  0
   -0.3646  -53.7927  -21.2125 S   0  0  0  0  0  0  0  0  0  0  0  0
   -0.0567  -52.5277  -20.0211 C   0  0  0  0  0  0  0  0  0  0  0  0
   -0.3931  -52.6332  -18.6814 C   0  0  0  0  0  0  0  0  0  0  0  0
   -0.1508  -51.6430  -17.7626 C   0  0  0  0  0  0  0  0  0  0  0  0
    0.4572  -50.4776  -18.1687 C   0  0  0  0  0  0  0  0  0  0  0  0
    0.8123  -50.3346  -19.5145 C   0  0  0  0  0  0  0  0  0  0  0  0
    0.5535  -51.3482  -20.4029 C   0  0  0  0  0  0  0  0  0  0  0  0
 18 19  1  0  0  0
 19 17  1  0  0  0
 17  1  1  0  0  0
  1  2  2  0  0  0
  2  3  1  0  0  0
  3  9  1  0  0  0
  9 10  2  0  0  0
 10 11  1  0  0  0
 11 12  1  0  0  0
 12 13  1  0  0  0
 13 14  1  0  0  0
 14 15  2  0  0  0
  3  4  2  0  0  0
  4  5  1  0  0  0
  5 20  1  0  0  0
 20 21  1  0  0  0
 21 22  1  0  0  0
 22 23  2  0  0  0
 23 24  1  0  0  0
 24 25  2  0  0  0
 25 26  1  0  0  0
 26 27  2  0  0  0
  5  6  2  0  0  0
  6  7  1  0  0  0
  6  1  1  0  0  0
 14 10  1  0  0  0
 27 22  1  0  0  0
 13 16  1  0  0  0
  7  8  1  0  0  0
M  END
> <minimizedAffinity>
-7.01284

> <CNNscore>
0.4134928286

> <CNNaffinity>
6.0775866508

> <CNN_VS>
2.5130383968

> <CNNaffinity_variance>
0.0870596841

$$$$
[H]Oc1c(OC([H])([H])C([H])([H])[H])c([H])c(/C([H])=C2\C(=O)N([H])C([H])([H])C2([H])[H])c([H])c1C([H])([H])Sc1c([H])c([H])c([H])c([H])c1[H]


 27 29  0  0  0  0  0  0  0  0999 V2000
    1.2098  -52.2848  -21.5555 C   0  0  0  0  0  0  0  0  0  0  0  0
    2.2371  -51.5102  -21.0667 C   0  0  0  0  0  0  0  0  0  0  0  0
    3.2943  -51.0863  -21.8714 C   0  0  0  0  0  0  0  0  0  0  0  0
    3.2488  -51.4816  -23.1969 C   0  0  0  0  0  0  0  0  0  0  0  0
    2.2530  -52.2560  -23.7453 C   0  0  0  0  0  0  0  0  0  0  0  0
    1.2453  -52.6525  -22.9162 C   0  0  0  0  0  0  0  0  0  0  0  0
    0.2010  -53.4583  -23.4051 O   0  0  0  0  0  0  0  0  0  0  0  0
    0.1061  -53.7529  -24.3581 H   0  0  0  0  0  0  0  0  0  0  0  0
    4.4660  -50.5539  -21.2184 C   0  0  0  0  0  0  0  0  0  0  0  0
    4.8228  -49.3617  -20.9583 C   0  0  0  0  0  0  0  0  0  0  0  0
    6.1060  -48.9333  -20.2596 C   0  0  0  0  0  0  0  0  0  0  0  0
    6.1261  -47.4475  -20.5398 C   0  0  0  0  0  0  0  0  0  0  0  0
    4.7211  -47.0696  -20.5297 N   0  0  0  0  0  0  0  0  0  0  0  0
    4.0618  -48.1458  -21.1771 C   0  0  0  0  0  0  0  0  0  0  0  0
    2.9792  -48.1099  -21.8527 O   0  0  0  0  0  0  0  0  0  0  0  0
    4.2912  -46.2224  -20.1381 H   0  0  0  0  0  0  0  0  0  0  0  0
    0.1440  -52.7265  -20.8776 O   0  0  0  0  0  0  0  0  0  0  0  0
   -0.3583  -52.1849  -18.6019 C   0  0  0  0  0  0  0  0  0  0  0  0
   -0.1074  -53.2591  -19.6757 C   0  0  0  0  0  0  0  0  0  0  0  0
    2.3739  -52.9192  -25.1095 C   0  0  0  0  0  0  0  0  0  0  0  0
    1.9733  -51.8806  -26.4908 S   0  0  0  0  0  0  0  0  0  0  0  0
    0.3438  -52.1546  -27.1106 C   0  0  0  0  0  0  0  0  0  0  0  0
    0.0747  -52.6739  -28.3664 C   0  0  0  0  0  0  0  0  0  0  0  0
   -1.1963  -52.8820  -28.8401 C   0  0  0  0  0  0  0  0  0  0  0  0
   -2.2744  -52.5676  -28.0451 C   0  0  0  0  0  0  0  0  0  0  0  0
   -2.0421  -52.0412  -26.7697 C   0  0  0  0  0  0  0  0  0  0  0  0
   -0.7558  -51.8482  -26.3318 C   0  0  0  0  0  0  0  0  0  0  0  0
 18 19  1  0  0  0
 19 17  1  0  0  0
 17  1  1  0  0  0
  1  2  2  0  0  0
  2  3  1  0  0  0
  3  9  1  0  0  0
  9 10  2  0  0  0
 10 11  1  0  0  0
 11 12  1  0  0  0
 12 13  1  0  0  0
 13 14  1  0  0  0
 14 15  2  0  0  0
  3  4  2  0  0  0
  4  5  1  0  0  0
  5 20  1  0  0  0
 20 21  1  0  0  0
 21 22  1  0  0  0
 22 23  2  0  0  0
 23 24  1  0  0  0
 24 25  2  0  0  0
 25 26  1  0  0  0
 26 27  2  0  0  0
  5  6  2  0  0  0
  6  7  1  0  0  0
  6  1  1  0  0  0
 14 10  1  0  0  0
 27 22  1  0  0  0
 13 16  1  0  0  0
  7  8  1  0  0  0
M  END
> <minimizedAffinity>
-6.46024

> <CNNscore>
0.3075269461

> <CNNaffinity>
5.7481002808

> <CNN_VS>
1.7676957846

> <CNNaffinity_variance>
0.2296545506

$$$$
[H]OC([H])([H])C(=O)N1C([H])([H])C([H])([H])N(c2c([H])c([H])c(N([H])c3nc([H])c(Cl)c(Oc4c([H])c([H])c([H])c(N([H])C(=O)C([H])=C([H])[H])c4[H])n3)c(OC([H])([H])[H])c2[H])C([H])([H])C1([H])[H]


 41 44  0  0  0  0  0  0  0  0999 V2000
   -1.3968  -53.5778  -19.7010 N   0  0  0  0  0  0  0  0  0  0  0  0
   -2.1558  -54.2629  -19.3482 H   0  0  0  0  0  0  0  0  0  0  0  0
   -1.1053  -53.7064  -21.0745 C   0  0  0  0  0  0  0  0  0  0  0  0
   -1.5224  -54.8514  -21.7251 N   0  0  0  0  0  0  0  0  0  0  0  0
   -1.3185  -55.0948  -23.0007 C   0  0  0  0  0  0  0  0  0  0  0  0
   -0.6378  -54.1521  -23.7751 C   0  0  0  0  0  0  0  0  0  0  0  0
   -0.3922  -54.4511  -25.4628 Cl  0  0  0  0  0  0  0  0  0  0  0  0
   -0.2080  -53.0060  -23.1675 C   0  0  0  0  0  0  0  0  0  0  0  0
   -0.4681  -52.8491  -21.8478 N   0  0  0  0  0  0  0  0  0  0  0  0
    0.4895  -51.9893  -23.8428 O   0  0  0  0  0  0  0  0  0  0  0  0
    1.8697  -51.8825  -23.5818 C   0  0  0  0  0  0  0  0  0  0  0  0
    2.7149  -52.6936  -24.3478 C   0  0  0  0  0  0  0  0  0  0  0  0
    4.0533  -52.5892  -24.0918 C   0  0  0  0  0  0  0  0  0  0  0  0
    4.5832  -51.7518  -23.1487 C   0  0  0  0  0  0  0  0  0  0  0  0
    3.7015  -50.9514  -22.3985 C   0  0  0  0  0  0  0  0  0  0  0  0
    2.3492  -51.0251  -22.6219 C   0  0  0  0  0  0  0  0  0  0  0  0
    4.2571  -50.1228  -21.4280 N   0  0  0  0  0  0  0  0  0  0  0  0
    4.2912  -50.3718  -20.0457 C   0  0  0  0  0  0  0  0  0  0  0  0
    3.8015  -51.4000  -19.5156 O   0  0  0  0  0  0  0  0  0  0  0  0
    4.7032  -49.2121  -21.7861 H   0  0  0  0  0  0  0  0  0  0  0  0
    4.9328  -49.3786  -19.1797 C   0  0  0  0  0  0  0  0  0  0  0  0
    4.2993  -48.9634  -18.1118 C   0  0  0  0  0  0  0  0  0  0  0  0
   -1.4659  -52.5788  -17.5015 C   0  0  0  0  0  0  0  0  0  0  0  0
   -0.9344  -51.7215  -16.5818 C   0  0  0  0  0  0  0  0  0  0  0  0
    0.1889  -50.9402  -16.7805 C   0  0  0  0  0  0  0  0  0  0  0  0
    0.7926  -51.0580  -18.0035 C   0  0  0  0  0  0  0  0  0  0  0  0
    0.2746  -51.9289  -18.9727 C   0  0  0  0  0  0  0  0  0  0  0  0
   -0.8408  -52.6963  -18.7595 C   0  0  0  0  0  0  0  0  0  0  0  0
    0.6757  -50.0552  -15.7827 N   0  0  0  0  0  0  0  0  0  0  0  0
    0.9688  -48.6770  -16.0062 C   0  0  0  0  0  0  0  0  0  0  0  0
    2.2111  -48.1775  -15.3046 C   0  0  0  0  0  0  0  0  0  0  0  0
    2.8835  -49.1245  -14.4873 N   0  0  0  0  0  0  0  0  0  0  0  0
    2.3939  -50.4743  -14.2306 C   0  0  0  0  0  0  0  0  0  0  0  0
    0.9015  -50.5338  -14.4228 C   0  0  0  0  0  0  0  0  0  0  0  0
    4.1044  -48.7763  -13.8691 C   0  0  0  0  0  0  0  0  0  0  0  0
    4.6646  -49.6810  -13.1393 O   0  0  0  0  0  0  0  0  0  0  0  0
    4.8209  -47.5056  -13.9532 C   0  0  0  0  0  0  0  0  0  0  0  0
    5.6438  -47.3241  -15.0176 O   0  0  0  0  0  0  0  0  0  0  0  0
    6.4783  -46.8304  -14.8164 H   0  0  0  0  0  0  0  0  0  0  0  0
   -3.6248  -52.7960  -16.4863 C   0  0  0  0  0  0  0  0  0  0  0  0
   -2.5905  -53.3489  -17.2780 O   0  0  0  0  0  0  0  0  0  0  0  0
 40 41  1  0  0  0
 41 23  1  0  0  0
 23 24  2  0  0  0
 24 25  1  0  0  0
 25 26  2  0  0  0
 26 27  1  0  0  0
 27 28  2  0  0  0
 28  1  1  0  0  0
  1  3  1  0  0  0
  3  4  2  0  0  0
  4  5  1  0  0  0
  5  6  2  0  0  0
  6  7  1  0  0  0
  6  8  1  0  0  0
  8 10  1  0  0  0
 10 11  1  0  0  0
 11 12  2  0  0  0
 12 13  1  0  0  0
 13 14  2  0  0  0
 14 15  1  0  0  0
 15 17  1  0  0  0
 17 18  1  0  0  0
 18 19  2  0  0  0
 18 21  1  0  0  0
 21 22  2  0  0  0
 15 16  2  0  0  0
  8  9  2  0  0  0
 25 29  1  0  0  0
 29 30  1  0  0  0
 30 31  1  0  0  0
 31 32  1  0  0  0
 32 33  1  0  0  0
 33 34  1  0  0  0
 32 35  1  0  0  0
 35 36  2  0  0  0
 35 37  1  0  0  0
 37 38  1  0  0  0
 28 23  1  0  0  0
  9  3  1  0  0  0
 34 29  1  0  0  0
 16 11  1  0  0  0
  1  2  1  0  0  0
 17 20  1  0  0  0
 38 39  1  0  0  0
M  END
> <minimizedAffinity>
-8.11402

> <CNNscore>
0.7947589159

> <CNNaffinity>
7.2034788132

> <CNN_VS>
5.7250289917

> <CNNaffinity_variance>
0.0667470843

$$$$
[H]OC([H])([H])C(=O)N1C([H])([H])C([H])([H])N(c2c([H])c([H])c(N([H])c3nc([H])c(Cl)c(Oc4c([H])c([H])c([H])c(N([H])C(=O)C([H])=C([H])[H])c4[H])n3)c(OC([H])([H])[H])c2[H])C([H])([H])C1([H])[H]


 41 44  0  0  0  0  0  0  0  0999 V2000
    0.8931  -53.3508  -20.8526 N   0  0  0  0  0  0  0  0  0  0  0  0
    1.0955  -54.4009  -20.6907 H   0  0  0  0  0  0  0  0  0  0  0  0
    0.7468  -53.0000  -22.2103 C   0  0  0  0  0  0  0  0  0  0  0  0
   -0.5195  -53.0392  -22.7610 N   0  0  0  0  0  0  0  0  0  0  0  0
   -0.7940  -52.7346  -24.0100 C   0  0  0  0  0  0  0  0  0  0  0  0
    0.2425  -52.3420  -24.8604 C   0  0  0  0  0  0  0  0  0  0  0  0
   -0.1151  -51.9094  -26.4984 Cl  0  0  0  0  0  0  0  0  0  0  0  0
    1.5104  -52.2915  -24.3530 C   0  0  0  0  0  0  0  0  0  0  0  0
    1.6893  -52.6243  -23.0526 N   0  0  0  0  0  0  0  0  0  0  0  0
    2.6314  -51.9152  -25.1132 O   0  0  0  0  0  0  0  0  0  0  0  0
    2.9582  -50.5450  -25.1304 C   0  0  0  0  0  0  0  0  0  0  0  0
    2.9455  -49.9155  -26.3804 C   0  0  0  0  0  0  0  0  0  0  0  0
    3.2642  -48.5866  -26.3947 C   0  0  0  0  0  0  0  0  0  0  0  0
    3.5842  -47.8702  -25.2742 C   0  0  0  0  0  0  0  0  0  0  0  0
    3.5859  -48.5378  -24.0352 C   0  0  0  0  0  0  0  0  0  0  0  0
    3.2729  -49.8729  -23.9748 C   0  0  0  0  0  0  0  0  0  0  0  0
    3.9362  -47.7981  -22.9095 N   0  0  0  0  0  0  0  0  0  0  0  0
    3.0759  -47.4193  -21.8654 C   0  0  0  0  0  0  0  0  0  0  0  0
    1.8541  -47.7097  -21.8358 O   0  0  0  0  0  0  0  0  0  0  0  0
    4.9676  -47.5003  -22.8444 H   0  0  0  0  0  0  0  0  0  0  0  0
    3.6361  -46.6452  -20.7541 C   0  0  0  0  0  0  0  0  0  0  0  0
    4.1896  -47.2812  -19.7524 C   0  0  0  0  0  0  0  0  0  0  0  0
    1.9782  -51.8698  -19.2810 C   0  0  0  0  0  0  0  0  0  0  0  0
    1.9085  -51.0737  -18.1744 C   0  0  0  0  0  0  0  0  0  0  0  0
    0.7677  -50.8538  -17.4247 C   0  0  0  0  0  0  0  0  0  0  0  0
   -0.3630  -51.4974  -17.8505 C   0  0  0  0  0  0  0  0  0  0  0  0
   -0.3288  -52.3229  -18.9834 C   0  0  0  0  0  0  0  0  0  0  0  0
    0.8112  -52.5306  -19.7153 C   0  0  0  0  0  0  0  0  0  0  0  0
    0.7734  -50.0252  -16.2719 N   0  0  0  0  0  0  0  0  0  0  0  0
   -0.3713  -49.3338  -15.7749 C   0  0  0  0  0  0  0  0  0  0  0  0
   -0.0896  -47.9396  -15.2631 C   0  0  0  0  0  0  0  0  0  0  0  0
    1.2696  -47.5295  -15.3002 N   0  0  0  0  0  0  0  0  0  0  0  0
    2.3722  -48.3945  -15.7046 C   0  0  0  0  0  0  0  0  0  0  0  0
    2.0015  -49.8404  -15.5056 C   0  0  0  0  0  0  0  0  0  0  0  0
    1.6149  -46.2106  -14.9320 C   0  0  0  0  0  0  0  0  0  0  0  0
    2.8663  -45.9011  -14.9869 O   0  0  0  0  0  0  0  0  0  0  0  0
    0.7225  -45.1407  -14.4915 C   0  0  0  0  0  0  0  0  0  0  0  0
    0.0596  -44.4477  -15.4524 O   0  0  0  0  0  0  0  0  0  0  0  0
   -0.0435  -43.4801  -15.2685 H   0  0  0  0  0  0  0  0  0  0  0  0
    3.8141  -50.9345  -20.5029 C   0  0  0  0  0  0  0  0  0  0  0  0
    3.1316  -52.0732  -20.0130 O   0  0  0  0  0  0  0  0  0  0  0  0
 40 41  1  0  0  0
 41 23  1  0  0  0
 23 24  2  0  0  0
 24 25  1  0  0  0
 25 26  2  0  0  0
 26 27  1  0  0  0
 27 28  2  0  0  0
 28  1  1  0  0  0
  1  3  1  0  0  0
  3  4  2  0  0  0
  4  5  1  0  0  0
  5  6  2  0  0  0
  6  7  1  0  0  0
  6  8  1  0  0  0
  8 10  1  0  0  0
 10 11  1  0  0  0
 11 12  2  0  0  0
 12 13  1  0  0  0
 13 14  2  0  0  0
 14 15  1  0  0  0
 15 17  1  0  0  0
 17 18  1  0  0  0
 18 19  2  0  0  0
 18 21  1  0  0  0
 21 22  2  0  0  0
 15 16  2  0  0  0
  8  9  2  0  0  0
 25 29  1  0  0  0
 29 30  1  0  0  0
 30 31  1  0  0  0
 31 32  1  0  0  0
 32 33  1  0  0  0
 33 34  1  0  0  0
 32 35  1  0  0  0
 35 36  2  0  0  0
 35 37  1  0  0  0
 37 38  1  0  0  0
 28 23  1  0  0  0
  9  3  1  0  0  0
 34 29  1  0  0  0
 16 11  1  0  0  0
  1  2  1  0  0  0
 17 20  1  0  0  0
 38 39  1  0  0  0
M  END
> <minimizedAffinity>
-6.24740

> <CNNscore>
0.2365018874

> <CNNaffinity>
6.4434914589

> <CNN_VS>
1.5238978863

> <CNNaffinity_variance>
0.2724493146

$$$$
[H]OC([H])([H])C(=O)N1C([H])([H])C([H])([H])N(c2c([H])c([H])c(N([H])c3nc([H])c(Cl)c(Oc4c([H])c([H])c([H])c(N([H])C(=O)C([H])=C([H])[H])c4[H])n3)c(OC([H])([H])[H])c2[H])C([H])([H])C1([H])[H]


 41 44  0  0  0  0  0  0  0  0999 V2000
    0.8697  -52.6600  -19.9286 N   0  0  0  0  0  0  0  0  0  0  0  0
    0.8319  -53.6302  -19.4522 H   0  0  0  0  0  0  0  0  0  0  0  0
    0.4924  -52.6757  -21.2870 C   0  0  0  0  0  0  0  0  0  0  0  0
   -0.8467  -52.5299  -21.5934 N   0  0  0  0  0  0  0  0  0  0  0  0
   -1.3308  -52.5240  -22.8156 C   0  0  0  0  0  0  0  0  0  0  0  0
   -0.4579  -52.6729  -23.8961 C   0  0  0  0  0  0  0  0  0  0  0  0
   -1.0836  -52.6351  -25.5101 Cl  0  0  0  0  0  0  0  0  0  0  0  0
    0.8752  -52.8208  -23.6341 C   0  0  0  0  0  0  0  0  0  0  0  0
    1.2742  -52.8131  -22.3401 N   0  0  0  0  0  0  0  0  0  0  0  0
    1.8457  -52.9821  -24.6382 O   0  0  0  0  0  0  0  0  0  0  0  0
    2.6522  -51.8643  -24.9295 C   0  0  0  0  0  0  0  0  0  0  0  0
    2.0441  -50.8240  -25.6414 C   0  0  0  0  0  0  0  0  0  0  0  0
    2.8288  -49.7413  -25.9241 C   0  0  0  0  0  0  0  0  0  0  0  0
    4.1409  -49.6363  -25.5516 C   0  0  0  0  0  0  0  0  0  0  0  0
    4.7173  -50.7028  -24.8366 C   0  0  0  0  0  0  0  0  0  0  0  0
    3.9658  -51.8103  -24.5322 C   0  0  0  0  0  0  0  0  0  0  0  0
    6.0594  -50.5879  -24.4863 N   0  0  0  0  0  0  0  0  0  0  0  0
    6.5864  -49.7572  -23.4833 C   0  0  0  0  0  0  0  0  0  0  0  0
    5.8820  -48.9964  -22.7741 O   0  0  0  0  0  0  0  0  0  0  0  0
    6.7449  -51.2033  -25.0413 H   0  0  0  0  0  0  0  0  0  0  0  0
    8.0339  -49.7820  -23.2546 C   0  0  0  0  0  0  0  0  0  0  0  0
    8.5911  -48.7924  -22.6032 C   0  0  0  0  0  0  0  0  0  0  0  0
    2.6507  -51.2589  -19.0885 C   0  0  0  0  0  0  0  0  0  0  0  0
    3.0560  -50.2061  -18.3200 C   0  0  0  0  0  0  0  0  0  0  0  0
    2.2187  -49.4024  -17.5685 C   0  0  0  0  0  0  0  0  0  0  0  0
    0.8859  -49.7110  -17.6203 C   0  0  0  0  0  0  0  0  0  0  0  0
    0.4332  -50.7854  -18.3994 C   0  0  0  0  0  0  0  0  0  0  0  0
    1.2774  -51.5728  -19.1383 C   0  0  0  0  0  0  0  0  0  0  0  0
    2.7137  -48.3334  -16.7763 N   0  0  0  0  0  0  0  0  0  0  0  0
    3.6557  -47.3647  -17.2340 C   0  0  0  0  0  0  0  0  0  0  0  0
    4.6975  -46.9704  -16.2122 C   0  0  0  0  0  0  0  0  0  0  0  0
    4.5695  -47.5739  -14.9330 N   0  0  0  0  0  0  0  0  0  0  0  0
    3.4663  -48.4477  -14.5497 C   0  0  0  0  0  0  0  0  0  0  0  0
    2.2565  -48.1651  -15.4007 C   0  0  0  0  0  0  0  0  0  0  0  0
    5.5509  -47.3393  -13.9451 C   0  0  0  0  0  0  0  0  0  0  0  0
    5.3762  -47.9164  -12.8044 O   0  0  0  0  0  0  0  0  0  0  0  0
    6.7529  -46.5156  -14.0541 C   0  0  0  0  0  0  0  0  0  0  0  0
    7.8695  -47.1063  -14.5513 O   0  0  0  0  0  0  0  0  0  0  0  0
    8.7155  -46.8174  -14.1251 H   0  0  0  0  0  0  0  0  0  0  0  0
    4.2445  -51.4285  -20.8688 C   0  0  0  0  0  0  0  0  0  0  0  0
    3.5084  -52.0471  -19.8306 O   0  0  0  0  0  0  0  0  0  0  0  0
 40 41  1  0  0  0
 41 23  1  0  0  0
 23 24  2  0  0  0
 24 25  1  0  0  0
 25 26  2  0  0  0
 26 27  1  0  0  0
 27 28  2  0  0  0
 28  1  1  0  0  0
  1  3  1  0  0  0
  3  4  2  0  0  0
  4  5  1  0  0  0
  5  6  2  0  0  0
  6  7  1  0  0  0
  6  8  1  0  0  0
  8 10  1  0  0  0
 10 11  1  0  0  0
 11 12  2  0  0  0
 12 13  1  0  0  0
 13 14  2  0  0  0
 14 15  1  0  0  0
 15 17  1  0  0  0
 17 18  1  0  0  0
 18 19  2  0  0  0
 18 21  1  0  0  0
 21 22  2  0  0  0
 15 16  2  0  0  0
  8  9  2  0  0  0
 25 29  1  0  0  0
 29 30  1  0  0  0
 30 31  1  0  0  0
 31 32  1  0  0  0
 32 33  1  0  0  0
 33 34  1  0  0  0
 32 35  1  0  0  0
 35 36  2  0  0  0
 35 37  1  0  0  0
 37 38  1  0  0  0
 28 23  1  0  0  0
  9  3  1  0  0  0
 34 29  1  0  0  0
 16 11  1  0  0  0
  1  2  1  0  0  0
 17 20  1  0  0  0
 38 39  1  0  0  0
M  END
> <minimizedAffinity>
-6.39884

> <CNNscore>
0.1924637854

> <CNNaffinity>
6.5234742165

> <CNN_VS>
1.2555325031

> <CNNaffinity_variance>
0.1870397031

$$$$
[H]OC([H])([H])C(=O)N1C([H])([H])C([H])([H])N(c2c([H])c([H])c(N([H])c3nc([H])c(Cl)c(Oc4c([H])c([H])c([H])c(N([H])C(=O)C([H])=C([H])[H])c4[H])n3)c(OC([H])([H])[H])c2[H])C([H])([H])C1([H])[H]


 41 44  0  0  0  0  0  0  0  0999 V2000
    0.9121  -52.6324  -19.8449 N   0  0  0  0  0  0  0  0  0  0  0  0
    0.8954  -53.6076  -19.3775 H   0  0  0  0  0  0  0  0  0  0  0  0
    0.5299  -52.6429  -21.2020 C   0  0  0  0  0  0  0  0  0  0  0  0
   -0.8088  -52.4833  -21.5035 N   0  0  0  0  0  0  0  0  0  0  0  0
   -1.2971  -52.4712  -22.7239 C   0  0  0  0  0  0  0  0  0  0  0  0
   -0.4295  -52.6279  -23.8077 C   0  0  0  0  0  0  0  0  0  0  0  0
   -1.0606  -52.5822  -25.4194 Cl  0  0  0  0  0  0  0  0  0  0  0  0
    0.9028  -52.7896  -23.5506 C   0  0  0  0  0  0  0  0  0  0  0  0
    1.3065  -52.7873  -22.2580 N   0  0  0  0  0  0  0  0  0  0  0  0
    1.8682  -52.9598  -24.5582 O   0  0  0  0  0  0  0  0  0  0  0  0
    2.6700  -51.8434  -24.8667 C   0  0  0  0  0  0  0  0  0  0  0  0
    2.0552  -50.8127  -25.5870 C   0  0  0  0  0  0  0  0  0  0  0  0
    2.8354  -49.7313  -25.8863 C   0  0  0  0  0  0  0  0  0  0  0  0
    4.1493  -49.6187  -25.5225 C   0  0  0  0  0  0  0  0  0  0  0  0
    4.7325  -50.6755  -24.7987 C   0  0  0  0  0  0  0  0  0  0  0  0
    3.9857  -51.7814  -24.4775 C   0  0  0  0  0  0  0  0  0  0  0  0
    6.0762  -50.5532  -24.4574 N   0  0  0  0  0  0  0  0  0  0  0  0
    6.6058  -49.7167  -23.4606 C   0  0  0  0  0  0  0  0  0  0  0  0
    5.9023  -48.9569  -22.7494 O   0  0  0  0  0  0  0  0  0  0  0  0
    6.7611  -51.1673  -25.0147 H   0  0  0  0  0  0  0  0  0  0  0  0
    8.0548  -49.7341  -23.2410 C   0  0  0  0  0  0  0  0  0  0  0  0
    8.6180  -48.7177  -22.6378 C   0  0  0  0  0  0  0  0  0  0  0  0
    2.6670  -51.1982  -19.0057 C   0  0  0  0  0  0  0  0  0  0  0  0
    3.0544  -50.1448  -18.2288 C   0  0  0  0  0  0  0  0  0  0  0  0
    2.2053  -49.3703  -17.4601 C   0  0  0  0  0  0  0  0  0  0  0  0
    0.8800  -49.7105  -17.5026 C   0  0  0  0  0  0  0  0  0  0  0  0
    0.4457  -50.7865  -18.2898 C   0  0  0  0  0  0  0  0  0  0  0  0
    1.3012  -51.5447  -19.0459 C   0  0  0  0  0  0  0  0  0  0  0  0
    2.6822  -48.2986  -16.6602 N   0  0  0  0  0  0  0  0  0  0  0  0
    2.0152  -47.8048  -15.4998 C   0  0  0  0  0  0  0  0  0  0  0  0
    2.0469  -46.3009  -15.3497 C   0  0  0  0  0  0  0  0  0  0  0  0
    2.7706  -45.5944  -16.3468 N   0  0  0  0  0  0  0  0  0  0  0  0
    3.5330  -46.2372  -17.4112 C   0  0  0  0  0  0  0  0  0  0  0  0
    3.9337  -47.6291  -16.9990 C   0  0  0  0  0  0  0  0  0  0  0  0
    2.7753  -44.1823  -16.3421 C   0  0  0  0  0  0  0  0  0  0  0  0
    3.4519  -43.6008  -17.2743 O   0  0  0  0  0  0  0  0  0  0  0  0
    2.1026  -43.2871  -15.4034 C   0  0  0  0  0  0  0  0  0  0  0  0
    0.8114  -42.9626  -15.6691 O   0  0  0  0  0  0  0  0  0  0  0  0
    0.5653  -42.0291  -15.4485 H   0  0  0  0  0  0  0  0  0  0  0  0
    4.2672  -51.3032  -20.7852 C   0  0  0  0  0  0  0  0  0  0  0  0
    3.5361  -51.9568  -19.7651 O   0  0  0  0  0  0  0  0  0  0  0  0
 40 41  1  0  0  0
 41 23  1  0  0  0
 23 24  2  0  0  0
 24 25  1  0  0  0
 25 26  2  0  0  0
 26 27  1  0  0  0
 27 28  2  0  0  0
 28  1  1  0  0  0
  1  3  1  0  0  0
  3  4  2  0  0  0
  4  5  1  0  0  0
  5  6  2  0  0  0
  6  7  1  0  0  0
  6  8  1  0  0  0
  8 10  1  0  0  0
 10 11  1  0  0  0
 11 12  2  0  0  0
 12 13  1  0  0  0
 13 14  2  0  0  0
 14 15  1  0  0  0
 15 17  1  0  0  0
 17 18  1  0  0  0
 18 19  2  0  0  0
 18 21  1  0  0  0
 21 22  2  0  0  0
 15 16  2  0  0  0
  8  9  2  0  0  0
 25 29  1  0  0  0
 29 30  1  0  0  0
 30 31  1  0  0  0
 31 32  1  0  0  0
 32 33  1  0  0  0
 33 34  1  0  0  0
 32 35  1  0  0  0
 35 36  2  0  0  0
 35 37  1  0  0  0
 37 38  1  0  0  0
 28 23  1  0  0  0
  9  3  1  0  0  0
 34 29  1  0  0  0
 16 11  1  0  0  0
  1  2  1  0  0  0
 17 20  1  0  0  0
 38 39  1  0  0  0
M  END
> <minimizedAffinity>
-6.15706

> <CNNscore>
0.1805232167

> <CNNaffinity>
6.4666152000

> <CNN_VS>
1.1673741341

> <CNNaffinity_variance>
0.1779347360

$$$$
[H]OC([H])([H])C(=O)N1C([H])([H])C([H])([H])N(c2c([H])c([H])c(N([H])c3nc([H])c(Cl)c(Oc4c([H])c([H])c([H])c(N([H])C(=O)C([H])=C([H])[H])c4[H])n3)c(OC([H])([H])[H])c2[H])C([H])([H])C1([H])[H]


 41 44  0  0  0  0  0  0  0  0999 V2000
   -0.6216  -52.4582  -22.9075 N   0  0  0  0  0  0  0  0  0  0  0  0
   -1.6161  -52.5158  -23.3286 H   0  0  0  0  0  0  0  0  0  0  0  0
    0.4102  -52.5647  -23.8625 C   0  0  0  0  0  0  0  0  0  0  0  0
    0.1006  -52.3208  -25.1865 N   0  0  0  0  0  0  0  0  0  0  0  0
    0.9667  -52.3828  -26.1735 C   0  0  0  0  0  0  0  0  0  0  0  0
    2.2950  -52.7149  -25.8959 C   0  0  0  0  0  0  0  0  0  0  0  0
    3.4487  -52.7685  -27.1860 Cl  0  0  0  0  0  0  0  0  0  0  0  0
    2.6409  -52.9645  -24.5976 C   0  0  0  0  0  0  0  0  0  0  0  0
    1.6749  -52.8741  -23.6530 N   0  0  0  0  0  0  0  0  0  0  0  0
    3.9436  -53.3110  -24.1990 O   0  0  0  0  0  0  0  0  0  0  0  0
    4.7276  -52.2893  -23.6279 C   0  0  0  0  0  0  0  0  0  0  0  0
    5.8563  -51.8893  -24.3523 C   0  0  0  0  0  0  0  0  0  0  0  0
    6.6160  -50.8990  -23.7956 C   0  0  0  0  0  0  0  0  0  0  0  0
    6.3277  -50.3023  -22.5989 C   0  0  0  0  0  0  0  0  0  0  0  0
    5.1840  -50.7312  -21.8997 C   0  0  0  0  0  0  0  0  0  0  0  0
    4.3929  -51.7241  -22.4217 C   0  0  0  0  0  0  0  0  0  0  0  0
    4.9196  -50.1287  -20.6733 N   0  0  0  0  0  0  0  0  0  0  0  0
    4.1405  -50.6673  -19.6356 C   0  0  0  0  0  0  0  0  0  0  0  0
    3.5722  -51.7854  -19.7059 O   0  0  0  0  0  0  0  0  0  0  0  0
    5.3650  -49.1622  -20.5181 H   0  0  0  0  0  0  0  0  0  0  0  0
    3.9849  -49.8815  -18.4082 C   0  0  0  0  0  0  0  0  0  0  0  0
    3.6151  -48.6289  -18.4986 C   0  0  0  0  0  0  0  0  0  0  0  0
    0.0784  -51.1155  -21.0239 C   0  0  0  0  0  0  0  0  0  0  0  0
    0.1819  -50.9470  -19.6733 C   0  0  0  0  0  0  0  0  0  0  0  0
   -0.2611  -51.8495  -18.7240 C   0  0  0  0  0  0  0  0  0  0  0  0
   -0.8444  -52.9899  -19.2071 C   0  0  0  0  0  0  0  0  0  0  0  0
   -0.9681  -53.1967  -20.5884 C   0  0  0  0  0  0  0  0  0  0  0  0
   -0.5228  -52.2915  -21.5163 C   0  0  0  0  0  0  0  0  0  0  0  0
   -0.1033  -51.6158  -17.3326 N   0  0  0  0  0  0  0  0  0  0  0  0
   -0.9618  -52.1509  -16.3266 C   0  0  0  0  0  0  0  0  0  0  0  0
   -1.2744  -51.1976  -15.1959 C   0  0  0  0  0  0  0  0  0  0  0  0
   -0.6388  -49.9293  -15.2620 N   0  0  0  0  0  0  0  0  0  0  0  0
    0.3367  -49.5575  -16.2806 C   0  0  0  0  0  0  0  0  0  0  0  0
    0.9955  -50.7878  -16.8464 C   0  0  0  0  0  0  0  0  0  0  0  0
   -0.9447  -48.9403  -14.3015 C   0  0  0  0  0  0  0  0  0  0  0  0
   -0.3331  -47.8100  -14.4168 O   0  0  0  0  0  0  0  0  0  0  0  0
   -1.8774  -49.0377  -13.1809 C   0  0  0  0  0  0  0  0  0  0  0  0
   -3.1064  -48.4844  -13.3439 O   0  0  0  0  0  0  0  0  0  0  0  0
   -3.4750  -48.0488  -12.5345 H   0  0  0  0  0  0  0  0  0  0  0  0
    1.3984  -49.1748  -21.5034 C   0  0  0  0  0  0  0  0  0  0  0  0
    0.5296  -50.1976  -21.9521 O   0  0  0  0  0  0  0  0  0  0  0  0
 40 41  1  0  0  0
 41 23  1  0  0  0
 23 24  2  0  0  0
 24 25  1  0  0  0
 25 26  2  0  0  0
 26 27  1  0  0  0
 27 28  2  0  0  0
 28  1  1  0  0  0
  1  3  1  0  0  0
  3  4  2  0  0  0
  4  5  1  0  0  0
  5  6  2  0  0  0
  6  7  1  0  0  0
  6  8  1  0  0  0
  8 10  1  0  0  0
 10 11  1  0  0  0
 11 12  2  0  0  0
 12 13  1  0  0  0
 13 14  2  0  0  0
 14 15  1  0  0  0
 15 17  1  0  0  0
 17 18  1  0  0  0
 18 19  2  0  0  0
 18 21  1  0  0  0
 21 22  2  0  0  0
 15 16  2  0  0  0
  8  9  2  0  0  0
 25 29  1  0  0  0
 29 30  1  0  0  0
 30 31  1  0  0  0
 31 32  1  0  0  0
 32 33  1  0  0  0
 33 34  1  0  0  0
 32 35  1  0  0  0
 35 36  2  0  0  0
 35 37  1  0  0  0
 37 38  1  0  0  0
 28 23  1  0  0  0
  9  3  1  0  0  0
 34 29  1  0  0  0
 16 11  1  0  0  0
  1  2  1  0  0  0
 17 20  1  0  0  0
 38 39  1  0  0  0
M  END
> <minimizedAffinity>
-7.21086

> <CNNscore>
0.1690157652

> <CNNaffinity>
6.3747196198

> <CNN_VS>
1.0774281025

> <CNNaffinity_variance>
0.5147438645

$$$$
[H]OC([H])([H])C(=O)N1C([H])([H])C([H])([H])N(c2c([H])c([H])c(N([H])c3nc([H])c(Cl)c(Oc4c([H])c([H])c([H])c(N([H])C(=O)C([H])=C([H])[H])c4[H])n3)c(OC([H])([H])[H])c2[H])C([H])([H])C1([H])[H]


 41 44  0  0  0  0  0  0  0  0999 V2000
    4.3874  -52.2333  -25.5608 N   0  0  0  0  0  0  0  0  0  0  0  0
    5.2518  -52.5066  -26.1507 H   0  0  0  0  0  0  0  0  0  0  0  0
    3.1562  -52.5392  -26.1760 C   0  0  0  0  0  0  0  0  0  0  0  0
    3.1780  -53.0535  -27.4579 N   0  0  0  0  0  0  0  0  0  0  0  0
    2.1051  -53.3829  -28.1424 C   0  0  0  0  0  0  0  0  0  0  0  0
    0.8461  -53.2127  -27.5615 C   0  0  0  0  0  0  0  0  0  0  0  0
   -0.5704  -53.6730  -28.4446 Cl  0  0  0  0  0  0  0  0  0  0  0  0
    0.7825  -52.7054  -26.2942 C   0  0  0  0  0  0  0  0  0  0  0  0
    1.9455  -52.3975  -25.6728 N   0  0  0  0  0  0  0  0  0  0  0  0
   -0.4260  -52.4870  -25.6101 O   0  0  0  0  0  0  0  0  0  0  0  0
   -0.5431  -53.0563  -24.3269 C   0  0  0  0  0  0  0  0  0  0  0  0
   -0.8112  -54.4291  -24.2748 C   0  0  0  0  0  0  0  0  0  0  0  0
   -0.9257  -54.9789  -23.0288 C   0  0  0  0  0  0  0  0  0  0  0  0
   -0.7931  -54.2660  -21.8689 C   0  0  0  0  0  0  0  0  0  0  0  0
   -0.5233  -52.8878  -21.9617 C   0  0  0  0  0  0  0  0  0  0  0  0
   -0.4014  -52.2940  -23.1933 C   0  0  0  0  0  0  0  0  0  0  0  0
   -0.4145  -52.1748  -20.7715 N   0  0  0  0  0  0  0  0  0  0  0  0
    0.7759  -51.8866  -20.0833 C   0  0  0  0  0  0  0  0  0  0  0  0
    1.9096  -52.2594  -20.4758 O   0  0  0  0  0  0  0  0  0  0  0  0
   -1.3370  -51.8121  -20.3542 H   0  0  0  0  0  0  0  0  0  0  0  0
    0.6875  -51.1100  -18.8435 C   0  0  0  0  0  0  0  0  0  0  0  0
   -0.1053  -51.5265  -17.8884 C   0  0  0  0  0  0  0  0  0  0  0  0
    4.7302  -50.2302  -24.2528 C   0  0  0  0  0  0  0  0  0  0  0  0
    4.9655  -49.6404  -23.0445 C   0  0  0  0  0  0  0  0  0  0  0  0
    5.1143  -50.3151  -21.8468 C   0  0  0  0  0  0  0  0  0  0  0  0
    5.0118  -51.6787  -21.9101 C   0  0  0  0  0  0  0  0  0  0  0  0
    4.7703  -52.3189  -23.1340 C   0  0  0  0  0  0  0  0  0  0  0  0
    4.6258  -51.6347  -24.3127 C   0  0  0  0  0  0  0  0  0  0  0  0
    5.3761  -49.6355  -20.6281 N   0  0  0  0  0  0  0  0  0  0  0  0
    4.5893  -49.7753  -19.4463 C   0  0  0  0  0  0  0  0  0  0  0  0
    4.3693  -48.4894  -18.6828 C   0  0  0  0  0  0  0  0  0  0  0  0
    5.0095  -47.3376  -19.2125 N   0  0  0  0  0  0  0  0  0  0  0  0
    5.9106  -47.3597  -20.3592 C   0  0  0  0  0  0  0  0  0  0  0  0
    6.5150  -48.7294  -20.5220 C   0  0  0  0  0  0  0  0  0  0  0  0
    4.7839  -46.0751  -18.6213 C   0  0  0  0  0  0  0  0  0  0  0  0
    5.3953  -45.0691  -19.1494 O   0  0  0  0  0  0  0  0  0  0  0  0
    3.9354  -45.7619  -17.4737 C   0  0  0  0  0  0  0  0  0  0  0  0
    2.7583  -45.1332  -17.7229 O   0  0  0  0  0  0  0  0  0  0  0  0
    2.4981  -44.4582  -17.0466 H   0  0  0  0  0  0  0  0  0  0  0  0
    3.4241  -48.7409  -25.5999 C   0  0  0  0  0  0  0  0  0  0  0  0
    4.5854  -49.5327  -25.4361 O   0  0  0  0  0  0  0  0  0  0  0  0
 40 41  1  0  0  0
 41 23  1  0  0  0
 23 24  2  0  0  0
 24 25  1  0  0  0
 25 26  2  0  0  0
 26 27  1  0  0  0
 27 28  2  0  0  0
 28  1  1  0  0  0
  1  3  1  0  0  0
  3  4  2  0  0  0
  4  5  1  0  0  0
  5  6  2  0  0  0
  6  7  1  0  0  0
  6  8  1  0  0  0
  8 10  1  0  0  0
 10 11  1  0  0  0
 11 12  2  0  0  0
 12 13  1  0  0  0
 13 14  2  0  0  0
 14 15  1  0  0  0
 15 17  1  0  0  0
 17 18  1  0  0  0
 18 19  2  0  0  0
 18 21  1  0  0  0
 21 22  2  0  0  0
 15 16  2  0  0  0
  8  9  2  0  0  0
 25 29  1  0  0  0
 29 30  1  0  0  0
 30 31  1  0  0  0
 31 32  1  0  0  0
 32 33  1  0  0  0
 33 34  1  0  0  0
 32 35  1  0  0  0
 35 36  2  0  0  0
 35 37  1  0  0  0
 37 38  1  0  0  0
 28 23  1  0  0  0
  9  3  1  0  0  0
 34 29  1  0  0  0
 16 11  1  0  0  0
  1  2  1  0  0  0
 17 20  1  0  0  0
 38 39  1  0  0  0
M  END
> <minimizedAffinity>
-7.91009

> <CNNscore>
0.1462336034

> <CNNaffinity>
6.5421705246

> <CNN_VS>
0.9566851854

> <CNNaffinity_variance>
0.5614094138

$$$$
[H]OC([H])([H])C(=O)N1C([H])([H])C([H])([H])N(c2c([H])c([H])c(N([H])c3nc([H])c(Cl)c(Oc4c([H])c([H])c([H])c(N([H])C(=O)C([H])=C([H])[H])c4[H])n3)c(OC([H])([H])[H])c2[H])C([H])([H])C1([H])[H]


 41 44  0  0  0  0  0  0  0  0999 V2000
   -0.9247  -51.5575  -21.9322 N   0  0  0  0  0  0  0  0  0  0  0  0
   -1.5861  -50.7714  -22.2705 H   0  0  0  0  0  0  0  0  0  0  0  0
   -0.8871  -52.6791  -22.7857 C   0  0  0  0  0  0  0  0  0  0  0  0
   -0.9230  -53.9357  -22.2129 N   0  0  0  0  0  0  0  0  0  0  0  0
   -0.8971  -55.0607  -22.8923 C   0  0  0  0  0  0  0  0  0  0  0  0
   -0.8288  -55.0143  -24.2869 C   0  0  0  0  0  0  0  0  0  0  0  0
   -0.8255  -56.4911  -25.1908 Cl  0  0  0  0  0  0  0  0  0  0  0  0
   -0.7906  -53.7893  -24.8915 C   0  0  0  0  0  0  0  0  0  0  0  0
   -0.8225  -52.6890  -24.1028 N   0  0  0  0  0  0  0  0  0  0  0  0
   -0.7176  -53.6183  -26.2849 O   0  0  0  0  0  0  0  0  0  0  0  0
    0.5531  -53.3420  -26.8267 C   0  0  0  0  0  0  0  0  0  0  0  0
    0.8232  -53.8783  -28.0909 C   0  0  0  0  0  0  0  0  0  0  0  0
    2.0570  -53.6100  -28.6138 C   0  0  0  0  0  0  0  0  0  0  0  0
    3.0074  -52.8631  -27.9733 C   0  0  0  0  0  0  0  0  0  0  0  0
    2.6989  -52.3403  -26.7036 C   0  0  0  0  0  0  0  0  0  0  0  0
    1.4716  -52.5861  -26.1401 C   0  0  0  0  0  0  0  0  0  0  0  0
    3.6863  -51.6024  -26.0575 N   0  0  0  0  0  0  0  0  0  0  0  0
    3.6227  -50.2368  -25.7337 C   0  0  0  0  0  0  0  0  0  0  0  0
    2.6382  -49.5060  -26.0072 O   0  0  0  0  0  0  0  0  0  0  0  0
    4.5737  -52.1438  -25.7818 H   0  0  0  0  0  0  0  0  0  0  0  0
    4.7658  -49.6364  -25.0402 C   0  0  0  0  0  0  0  0  0  0  0  0
    5.5544  -50.4052  -24.3322 C   0  0  0  0  0  0  0  0  0  0  0  0
    0.8961  -50.4917  -20.7533 C   0  0  0  0  0  0  0  0  0  0  0  0
    1.5790  -50.2766  -19.5912 C   0  0  0  0  0  0  0  0  0  0  0  0
    1.2555  -50.8296  -18.3659 C   0  0  0  0  0  0  0  0  0  0  0  0
    0.1607  -51.6513  -18.3491 C   0  0  0  0  0  0  0  0  0  0  0  0
   -0.5652  -51.8949  -19.5238 C   0  0  0  0  0  0  0  0  0  0  0  0
   -0.2304  -51.3388  -20.7309 C   0  0  0  0  0  0  0  0  0  0  0  0
    2.0239  -50.5753  -17.1995 N   0  0  0  0  0  0  0  0  0  0  0  0
    3.4299  -50.7961  -17.1007 C   0  0  0  0  0  0  0  0  0  0  0  0
    3.8841  -51.3687  -15.7775 C   0  0  0  0  0  0  0  0  0  0  0  0
    2.8675  -51.5611  -14.8047 N   0  0  0  0  0  0  0  0  0  0  0  0
    1.4777  -51.1574  -14.9859 C   0  0  0  0  0  0  0  0  0  0  0  0
    1.3843  -50.0471  -15.9989 C   0  0  0  0  0  0  0  0  0  0  0  0
    3.1817  -52.1791  -13.5743 C   0  0  0  0  0  0  0  0  0  0  0  0
    2.2138  -52.3241  -12.7335 O   0  0  0  0  0  0  0  0  0  0  0  0
    4.4800  -52.6803  -13.1292 C   0  0  0  0  0  0  0  0  0  0  0  0
    4.8447  -53.9201  -13.5451 O   0  0  0  0  0  0  0  0  0  0  0  0
    5.3389  -54.4536  -12.8730 H   0  0  0  0  0  0  0  0  0  0  0  0
    2.3203  -49.0125  -21.9871 C   0  0  0  0  0  0  0  0  0  0  0  0
    1.2403  -49.9266  -21.9657 O   0  0  0  0  0  0  0  0  0  0  0  0
 40 41  1  0  0  0
 41 23  1  0  0  0
 23 24  2  0  0  0
 24 25  1  0  0  0
 25 26  2  0  0  0
 26 27  1  0  0  0
 27 28  2  0  0  0
 28  1  1  0  0  0
  1  3  1  0  0  0
  3  4  2  0  0  0
  4  5  1  0  0  0
  5  6  2  0  0  0
  6  7  1  0  0  0
  6  8  1  0  0  0
  8 10  1  0  0  0
 10 11  1  0  0  0
 11 12  2  0  0  0
 12 13  1  0  0  0
 13 14  2  0  0  0
 14 15  1  0  0  0
 15 17  1  0  0  0
 17 18  1  0  0  0
 18 19  2  0  0  0
 18 21  1  0  0  0
 21 22  2  0  0  0
 15 16  2  0  0  0
  8  9  2  0  0  0
 25 29  1  0  0  0
 29 30  1  0  0  0
 30 31  1  0  0  0
 31 32  1  0  0  0
 32 33  1  0  0  0
 33 34  1  0  0  0
 32 35  1  0  0  0
 35 36  2  0  0  0
 35 37  1  0  0  0
 37 38  1  0  0  0
 28 23  1  0  0  0
  9  3  1  0  0  0
 34 29  1  0  0  0
 16 11  1  0  0  0
  1  2  1  0  0  0
 17 20  1  0  0  0
 38 39  1  0  0  0
M  END
> <minimizedAffinity>
-7.50939

> <CNNscore>
0.1304057539

> <CNNaffinity>
6.7233276367

> <CNN_VS>
0.8767606020

> <CNNaffinity_variance>
0.1650617421

$$$$
[H]OC([H])([H])C(=O)N1C([H])([H])C([H])([H])N(c2c([H])c([H])c(N([H])c3nc([H])c(Cl)c(Oc4c([H])c([H])c([H])c(N([H])C(=O)C([H])=C([H])[H])c4[H])n3)c(OC([H])([H])[H])c2[H])C([H])([H])C1([H])[H]


 41 44  0  0  0  0  0  0  0  0999 V2000
   -0.6440  -53.3017  -18.2930 N   0  0  0  0  0  0  0  0  0  0  0  0
   -0.0252  -54.0783  -17.8644 H   0  0  0  0  0  0  0  0  0  0  0  0
   -1.5305  -52.7050  -17.3732 C   0  0  0  0  0  0  0  0  0  0  0  0
   -2.8040  -53.2285  -17.2616 N   0  0  0  0  0  0  0  0  0  0  0  0
   -3.7247  -52.7696  -16.4432 C   0  0  0  0  0  0  0  0  0  0  0  0
   -3.4248  -51.6816  -15.6198 C   0  0  0  0  0  0  0  0  0  0  0  0
   -4.6217  -51.0906  -14.5169 Cl  0  0  0  0  0  0  0  0  0  0  0  0
   -2.1751  -51.1347  -15.7014 C   0  0  0  0  0  0  0  0  0  0  0  0
   -1.2973  -51.6805  -16.5762 N   0  0  0  0  0  0  0  0  0  0  0  0
   -1.7609  -50.0373  -14.9266 O   0  0  0  0  0  0  0  0  0  0  0  0
   -0.4446  -50.0721  -14.4259 C   0  0  0  0  0  0  0  0  0  0  0  0
   -0.1166  -51.1583  -13.6064 C   0  0  0  0  0  0  0  0  0  0  0  0
    1.1605  -51.1892  -13.1208 C   0  0  0  0  0  0  0  0  0  0  0  0
    2.1004  -50.2335  -13.3941 C   0  0  0  0  0  0  0  0  0  0  0  0
    1.7332  -49.1565  -14.2224 C   0  0  0  0  0  0  0  0  0  0  0  0
    0.4604  -49.0851  -14.7312 C   0  0  0  0  0  0  0  0  0  0  0  0
    2.6957  -48.1823  -14.4706 N   0  0  0  0  0  0  0  0  0  0  0  0
    3.5895  -48.1567  -15.5542 C   0  0  0  0  0  0  0  0  0  0  0  0
    3.6243  -49.0434  -16.4435 O   0  0  0  0  0  0  0  0  0  0  0  0
    2.7440  -47.3767  -13.7597 H   0  0  0  0  0  0  0  0  0  0  0  0
    4.5288  -47.0357  -15.6497 C   0  0  0  0  0  0  0  0  0  0  0  0
    4.8697  -46.3980  -14.5583 C   0  0  0  0  0  0  0  0  0  0  0  0
    0.6257  -52.2203  -20.0420 C   0  0  0  0  0  0  0  0  0  0  0  0
    0.8017  -51.9403  -21.3664 C   0  0  0  0  0  0  0  0  0  0  0  0
   -0.0179  -52.3839  -22.3878 C   0  0  0  0  0  0  0  0  0  0  0  0
   -1.0789  -53.1622  -22.0101 C   0  0  0  0  0  0  0  0  0  0  0  0
   -1.2907  -53.4705  -20.6587 C   0  0  0  0  0  0  0  0  0  0  0  0
   -0.4684  -53.0219  -19.6582 C   0  0  0  0  0  0  0  0  0  0  0  0
    0.2162  -52.0373  -23.7444 N   0  0  0  0  0  0  0  0  0  0  0  0
   -0.6748  -52.3425  -24.8160 C   0  0  0  0  0  0  0  0  0  0  0  0
    0.0058  -52.7717  -26.0956 C   0  0  0  0  0  0  0  0  0  0  0  0
    1.4258  -52.7656  -26.0736 N   0  0  0  0  0  0  0  0  0  0  0  0
    2.2225  -52.2912  -24.9477 C   0  0  0  0  0  0  0  0  0  0  0  0
    1.4278  -51.3159  -24.1201 C   0  0  0  0  0  0  0  0  0  0  0  0
    2.1469  -53.2416  -27.1906 C   0  0  0  0  0  0  0  0  0  0  0  0
    3.4341  -53.2090  -27.1077 O   0  0  0  0  0  0  0  0  0  0  0  0
    1.6120  -53.7723  -28.4425 C   0  0  0  0  0  0  0  0  0  0  0  0
    2.4135  -54.5995  -29.1611 O   0  0  0  0  0  0  0  0  0  0  0  0
    2.3460  -54.4915  -30.1431 H   0  0  0  0  0  0  0  0  0  0  0  0
    2.7992  -51.4605  -19.3810 C   0  0  0  0  0  0  0  0  0  0  0  0
    1.4599  -51.7642  -19.0401 O   0  0  0  0  0  0  0  0  0  0  0  0
 40 41  1  0  0  0
 41 23  1  0  0  0
 23 24  2  0  0  0
 24 25  1  0  0  0
 25 26  2  0  0  0
 26 27  1  0  0  0
 27 28  2  0  0  0
 28  1  1  0  0  0
  1  3  1  0  0  0
  3  4  2  0  0  0
  4  5  1  0  0  0
  5  6  2  0  0  0
  6  7  1  0  0  0
  6  8  1  0  0  0
  8 10  1  0  0  0
 10 11  1  0  0  0
 11 12  2  0  0  0
 12 13  1  0  0  0
 13 14  2  0  0  0
 14 15  1  0  0  0
 15 17  1  0  0  0
 17 18  1  0  0  0
 18 19  2  0  0  0
 18 21  1  0  0  0
 21 22  2  0  0  0
 15 16  2  0  0  0
  8  9  2  0  0  0
 25 29  1  0  0  0
 29 30  1  0  0  0
 30 31  1  0  0  0
 31 32  1  0  0  0
 32 33  1  0  0  0
 33 34  1  0  0  0
 32 35  1  0  0  0
 35 36  2  0  0  0
 35 37  1  0  0  0
 37 38  1  0  0  0
 28 23  1  0  0  0
  9  3  1  0  0  0
 34 29  1  0  0  0
 16 11  1  0  0  0
  1  2  1  0  0  0
 17 20  1  0  0  0
 38 39  1  0  0  0
M  END
> <minimizedAffinity>
-7.77547

> <CNNscore>
0.1240506172

> <CNNaffinity>
6.5211043358

> <CNN_VS>
0.8089470267

> <CNNaffinity_variance>
0.1506983638

$$$$
[H]OC([H])([H])C(=O)N1C([H])([H])C([H])([H])N(c2c([H])c([H])c(N([H])c3nc([H])c(Cl)c(Oc4c([H])c([H])c([H])c(N([H])C(=O)C([H])=C([H])[H])c4[H])n3)c(OC([H])([H])[H])c2[H])C([H])([H])C1([H])[H]


 41 44  0  0  0  0  0  0  0  0999 V2000
    2.8370  -48.0893  -22.7308 N   0  0  0  0  0  0  0  0  0  0  0  0
    2.6895  -47.1807  -22.1629 H   0  0  0  0  0  0  0  0  0  0  0  0
    2.4421  -49.2590  -22.0497 C   0  0  0  0  0  0  0  0  0  0  0  0
    3.3607  -49.8713  -21.2192 N   0  0  0  0  0  0  0  0  0  0  0  0
    3.1210  -50.9623  -20.5261 C   0  0  0  0  0  0  0  0  0  0  0  0
    1.8637  -51.5649  -20.6151 C   0  0  0  0  0  0  0  0  0  0  0  0
    1.5299  -52.9845  -19.6816 Cl  0  0  0  0  0  0  0  0  0  0  0  0
    0.9275  -50.9895  -21.4274 C   0  0  0  0  0  0  0  0  0  0  0  0
    1.2723  -49.8657  -22.0995 N   0  0  0  0  0  0  0  0  0  0  0  0
   -0.3681  -51.5073  -21.5992 O   0  0  0  0  0  0  0  0  0  0  0  0
   -0.5083  -52.5889  -22.4909 C   0  0  0  0  0  0  0  0  0  0  0  0
   -1.0267  -53.7747  -21.9578 C   0  0  0  0  0  0  0  0  0  0  0  0
   -1.1605  -54.8229  -22.8243 C   0  0  0  0  0  0  0  0  0  0  0  0
   -0.8200  -54.7626  -24.1479 C   0  0  0  0  0  0  0  0  0  0  0  0
   -0.3022  -53.5530  -24.6474 C   0  0  0  0  0  0  0  0  0  0  0  0
   -0.1499  -52.4747  -23.8118 C   0  0  0  0  0  0  0  0  0  0  0  0
    0.0601  -53.5176  -25.9907 N   0  0  0  0  0  0  0  0  0  0  0  0
   -0.7191  -53.0162  -27.0468 C   0  0  0  0  0  0  0  0  0  0  0  0
   -1.8692  -52.5356  -26.8905 O   0  0  0  0  0  0  0  0  0  0  0  0
    1.0335  -53.9099  -26.2261 H   0  0  0  0  0  0  0  0  0  0  0  0
   -0.1580  -53.0568  -28.4002 C   0  0  0  0  0  0  0  0  0  0  0  0
   -0.9604  -52.9148  -29.4249 C   0  0  0  0  0  0  0  0  0  0  0  0
    3.4095  -46.6794  -24.6084 C   0  0  0  0  0  0  0  0  0  0  0  0
    3.9349  -46.5448  -25.8610 C   0  0  0  0  0  0  0  0  0  0  0  0
    4.4549  -47.5773  -26.6195 C   0  0  0  0  0  0  0  0  0  0  0  0
    4.4271  -48.8183  -26.0422 C   0  0  0  0  0  0  0  0  0  0  0  0
    3.8952  -48.9942  -24.7568 C   0  0  0  0  0  0  0  0  0  0  0  0
    3.3830  -47.9594  -24.0184 C   0  0  0  0  0  0  0  0  0  0  0  0
    4.9694  -47.3660  -27.9257 N   0  0  0  0  0  0  0  0  0  0  0  0
    4.4585  -47.9935  -29.1006 C   0  0  0  0  0  0  0  0  0  0  0  0
    5.5151  -48.4254  -30.0916 C   0  0  0  0  0  0  0  0  0  0  0  0
    6.8552  -48.1075  -29.7456 N   0  0  0  0  0  0  0  0  0  0  0  0
    7.2321  -47.3298  -28.5706 C   0  0  0  0  0  0  0  0  0  0  0  0
    6.0878  -46.4526  -28.1361 C   0  0  0  0  0  0  0  0  0  0  0  0
    7.9161  -48.5550  -30.5633 C   0  0  0  0  0  0  0  0  0  0  0  0
    9.1097  -48.2324  -30.1943 O   0  0  0  0  0  0  0  0  0  0  0  0
    7.8304  -49.3463  -31.7887 C   0  0  0  0  0  0  0  0  0  0  0  0
    8.0245  -48.6961  -32.9646 O   0  0  0  0  0  0  0  0  0  0  0  0
    7.4510  -49.0075  -33.7094 H   0  0  0  0  0  0  0  0  0  0  0  0
    1.8459  -44.8723  -24.4413 C   0  0  0  0  0  0  0  0  0  0  0  0
    2.8957  -45.6307  -23.8710 O   0  0  0  0  0  0  0  0  0  0  0  0
 40 41  1  0  0  0
 41 23  1  0  0  0
 23 24  2  0  0  0
 24 25  1  0  0  0
 25 26  2  0  0  0
 26 27  1  0  0  0
 27 28  2  0  0  0
 28  1  1  0  0  0
  1  3  1  0  0  0
  3  4  2  0  0  0
  4  5  1  0  0  0
  5  6  2  0  0  0
  6  7  1  0  0  0
  6  8  1  0  0  0
  8 10  1  0  0  0
 10 11  1  0  0  0
 11 12  2  0  0  0
 12 13  1  0  0  0
 13 14  2  0  0  0
 14 15  1  0  0  0
 15 17  1  0  0  0
 17 18  1  0  0  0
 18 19  2  0  0  0
 18 21  1  0  0  0
 21 22  2  0  0  0
 15 16  2  0  0  0
  8  9  2  0  0  0
 25 29  1  0  0  0
 29 30  1  0  0  0
 30 31  1  0  0  0
 31 32  1  0  0  0
 32 33  1  0  0  0
 33 34  1  0  0  0
 32 35  1  0  0  0
 35 36  2  0  0  0
 35 37  1  0  0  0
 37 38  1  0  0  0
 28 23  1  0  0  0
  9  3  1  0  0  0
 34 29  1  0  0  0
 16 11  1  0  0  0
  1  2  1  0  0  0
 17 20  1  0  0  0
 38 39  1  0  0  0
M  END
> <minimizedAffinity>
-7.81689

> <CNNscore>
0.1152934432

> <CNNaffinity>
6.2615957260

> <CNN_VS>
0.7219209075

> <CNNaffinity_variance>
0.5424768329

$$$$
[H]C([H])=C([H])C(=O)N([H])c1c(OC([H])([H])C([H])([H])N([H])C(=O)C([H])([H])[H])c([H])c2nc([H])nc(N([H])c3c([H])c([H])c(Cl)c([H])c3F)c2c1[H]


 34 36  0  0  0  0  0  0  0  0999 V2000
    0.6686  -51.8322  -19.3144 C   0  0  0  0  0  0  0  0  0  0  0  0
   -0.1805  -52.8684  -19.5958 C   0  0  0  0  0  0  0  0  0  0  0  0
   -0.3671  -53.3551  -20.8753 C   0  0  0  0  0  0  0  0  0  0  0  0
   -1.2210  -54.3847  -21.1002 N   0  0  0  0  0  0  0  0  0  0  0  0
   -1.4057  -54.8621  -22.3469 C   0  0  0  0  0  0  0  0  0  0  0  0
   -0.7331  -54.2999  -23.3385 N   0  0  0  0  0  0  0  0  0  0  0  0
    0.1407  -53.2633  -23.1884 C   0  0  0  0  0  0  0  0  0  0  0  0
    0.3384  -52.7609  -21.8944 C   0  0  0  0  0  0  0  0  0  0  0  0
    1.1946  -51.7166  -21.6135 C   0  0  0  0  0  0  0  0  0  0  0  0
    1.4037  -51.2044  -20.3360 C   0  0  0  0  0  0  0  0  0  0  0  0
    2.2711  -50.1419  -20.0289 N   0  0  0  0  0  0  0  0  0  0  0  0
    2.1120  -48.7740  -20.2223 C   0  0  0  0  0  0  0  0  0  0  0  0
    1.0981  -48.2748  -20.7340 O   0  0  0  0  0  0  0  0  0  0  0  0
    3.1960  -50.4489  -19.5752 H   0  0  0  0  0  0  0  0  0  0  0  0
    3.1685  -47.8576  -19.8151 C   0  0  0  0  0  0  0  0  0  0  0  0
    3.4275  -46.7697  -20.5063 C   0  0  0  0  0  0  0  0  0  0  0  0
    0.8307  -52.6964  -24.2522 N   0  0  0  0  0  0  0  0  0  0  0  0
    1.6677  -52.0951  -24.0287 H   0  0  0  0  0  0  0  0  0  0  0  0
    0.5388  -52.8325  -25.6237 C   0  0  0  0  0  0  0  0  0  0  0  0
    1.2868  -53.4968  -26.5643 C   0  0  0  0  0  0  0  0  0  0  0  0
    0.9433  -53.5971  -27.9144 C   0  0  0  0  0  0  0  0  0  0  0  0
   -0.2045  -53.0028  -28.3400 C   0  0  0  0  0  0  0  0  0  0  0  0
   -0.7078  -53.0825  -30.0225 Cl  0  0  0  0  0  0  0  0  0  0  0  0
   -0.9909  -52.3236  -27.4355 C   0  0  0  0  0  0  0  0  0  0  0  0
   -0.6460  -52.2335  -26.1258 C   0  0  0  0  0  0  0  0  0  0  0  0
   -1.4356  -51.5569  -25.2410 F   0  0  0  0  0  0  0  0  0  0  0  0
    0.8159  -51.3837  -18.0019 O   0  0  0  0  0  0  0  0  0  0  0  0
   -0.3421  -50.9967  -17.2814 C   0  0  0  0  0  0  0  0  0  0  0  0
   -0.6761  -51.9549  -16.1854 C   0  0  0  0  0  0  0  0  0  0  0  0
   -4.4748  -52.7350  -16.1001 C   0  0  0  0  0  0  0  0  0  0  0  0
   -3.1723  -52.0485  -15.9235 C   0  0  0  0  0  0  0  0  0  0  0  0
   -3.1934  -50.9267  -15.3745 O   0  0  0  0  0  0  0  0  0  0  0  0
   -1.9465  -52.5990  -16.3401 N   0  0  0  0  0  0  0  0  0  0  0  0
   -1.9993  -53.5527  -16.7947 H   0  0  0  0  0  0  0  0  0  0  0  0
 30 31  1  0  0  0
 31 32  2  0  0  0
 31 33  1  0  0  0
 33 29  1  0  0  0
 29 28  1  0  0  0
 28 27  1  0  0  0
 27  1  1  0  0  0
  1  2  2  0  0  0
  2  3  1  0  0  0
  3  4  2  0  0  0
  4  5  1  0  0  0
  5  6  2  0  0  0
  6  7  1  0  0  0
  7 17  1  0  0  0
 17 19  1  0  0  0
 19 20  2  0  0  0
 20 21  1  0  0  0
 21 22  2  0  0  0
 22 23  1  0  0  0
 22 24  1  0  0  0
 24 25  2  0  0  0
 25 26  1  0  0  0
  7  8  2  0  0  0
  8  9  1  0  0  0
  9 10  2  0  0  0
 10 11  1  0  0  0
 11 12  1  0  0  0
 12 13  2  0  0  0
 12 15  1  0  0  0
 15 16  2  0  0  0
 10  1  1  0  0  0
  8  3  1  0  0  0
 25 19  1  0  0  0
 33 34  1  0  0  0
 17 18  1  0  0  0
 11 14  1  0  0  0
M  END
> <minimizedAffinity>
-7.95258

> <CNNscore>
0.9472963214

> <CNNaffinity>
7.5811285973

> <CNN_VS>
7.1815752983

> <CNNaffinity_variance>
0.0455004349

$$$$
[H]C([H])=C([H])C(=O)N([H])c1c(OC([H])([H])C([H])([H])N([H])C(=O)C([H])([H])[H])c([H])c2nc([H])nc(N([H])c3c([H])c([H])c(Cl)c([H])c3F)c2c1[H]


 34 36  0  0  0  0  0  0  0  0999 V2000
    0.1043  -51.5047  -18.8639 C   0  0  0  0  0  0  0  0  0  0  0  0
   -0.4906  -52.6914  -19.1975 C   0  0  0  0  0  0  0  0  0  0  0  0
   -0.5905  -53.1365  -20.5017 C   0  0  0  0  0  0  0  0  0  0  0  0
   -1.1903  -54.3212  -20.7785 N   0  0  0  0  0  0  0  0  0  0  0  0
   -1.2897  -54.7586  -22.0494 C   0  0  0  0  0  0  0  0  0  0  0  0
   -0.7878  -54.0025  -23.0127 N   0  0  0  0  0  0  0  0  0  0  0  0
   -0.1720  -52.8023  -22.8103 C   0  0  0  0  0  0  0  0  0  0  0  0
   -0.0645  -52.3402  -21.4909 C   0  0  0  0  0  0  0  0  0  0  0  0
    0.5355  -51.1439  -21.1574 C   0  0  0  0  0  0  0  0  0  0  0  0
    0.6515  -50.6688  -19.8539 C   0  0  0  0  0  0  0  0  0  0  0  0
    1.2587  -49.4535  -19.4932 N   0  0  0  0  0  0  0  0  0  0  0  0
    2.5867  -49.1734  -19.1900 C   0  0  0  0  0  0  0  0  0  0  0  0
    3.4805  -50.0336  -19.2002 O   0  0  0  0  0  0  0  0  0  0  0  0
    0.5800  -48.6212  -19.4488 H   0  0  0  0  0  0  0  0  0  0  0  0
    2.9783  -47.8149  -18.8399 C   0  0  0  0  0  0  0  0  0  0  0  0
    3.3422  -46.9535  -19.7641 C   0  0  0  0  0  0  0  0  0  0  0  0
    0.3442  -52.0336  -23.8456 N   0  0  0  0  0  0  0  0  0  0  0  0
    0.9735  -51.2268  -23.5903 H   0  0  0  0  0  0  0  0  0  0  0  0
    0.1220  -52.2077  -25.2259 C   0  0  0  0  0  0  0  0  0  0  0  0
   -1.0464  -51.9758  -25.9089 C   0  0  0  0  0  0  0  0  0  0  0  0
   -1.2051  -52.1679  -27.2832 C   0  0  0  0  0  0  0  0  0  0  0  0
   -0.1412  -52.6136  -28.0054 C   0  0  0  0  0  0  0  0  0  0  0  0
   -0.2584  -52.8809  -29.7389 Cl  0  0  0  0  0  0  0  0  0  0  0  0
    1.0542  -52.8614  -27.3672 C   0  0  0  0  0  0  0  0  0  0  0  0
    1.1955  -52.6706  -26.0308 C   0  0  0  0  0  0  0  0  0  0  0  0
    2.3867  -52.9205  -25.4121 F   0  0  0  0  0  0  0  0  0  0  0  0
    0.1756  -51.1076  -17.5286 O   0  0  0  0  0  0  0  0  0  0  0  0
   -0.3930  -51.9475  -16.5381 C   0  0  0  0  0  0  0  0  0  0  0  0
   -1.7509  -51.4899  -16.1164 C   0  0  0  0  0  0  0  0  0  0  0  0
   -5.0290  -53.5173  -15.6814 C   0  0  0  0  0  0  0  0  0  0  0  0
   -4.0833  -52.3964  -15.9007 C   0  0  0  0  0  0  0  0  0  0  0  0
   -4.5795  -51.2659  -16.0908 O   0  0  0  0  0  0  0  0  0  0  0  0
   -2.6854  -52.5547  -15.9026 N   0  0  0  0  0  0  0  0  0  0  0  0
   -2.3316  -53.5370  -15.7325 H   0  0  0  0  0  0  0  0  0  0  0  0
 30 31  1  0  0  0
 31 32  2  0  0  0
 31 33  1  0  0  0
 33 29  1  0  0  0
 29 28  1  0  0  0
 28 27  1  0  0  0
 27  1  1  0  0  0
  1  2  2  0  0  0
  2  3  1  0  0  0
  3  4  2  0  0  0
  4  5  1  0  0  0
  5  6  2  0  0  0
  6  7  1  0  0  0
  7 17  1  0  0  0
 17 19  1  0  0  0
 19 20  2  0  0  0
 20 21  1  0  0  0
 21 22  2  0  0  0
 22 23  1  0  0  0
 22 24  1  0  0  0
 24 25  2  0  0  0
 25 26  1  0  0  0
  7  8  2  0  0  0
  8  9  1  0  0  0
  9 10  2  0  0  0
 10 11  1  0  0  0
 11 12  1  0  0  0
 12 13  2  0  0  0
 12 15  1  0  0  0
 15 16  2  0  0  0
 10  1  1  0  0  0
  8  3  1  0  0  0
 25 19  1  0  0  0
 33 34  1  0  0  0
 17 18  1  0  0  0
 11 14  1  0  0  0
M  END
> <minimizedAffinity>
-8.27361

> <CNNscore>
0.8857284188

> <CNNaffinity>
7.3532552719

> <CNN_VS>
6.5129871368

> <CNNaffinity_variance>
0.0579626374

$$$$
[H]C([H])=C([H])C(=O)N([H])c1c(OC([H])([H])C([H])([H])N([H])C(=O)C([H])([H])[H])c([H])c2nc([H])nc(N([H])c3c([H])c([H])c(Cl)c([H])c3F)c2c1[H]


 34 36  0  0  0  0  0  0  0  0999 V2000
   -0.3622  -52.3787  -19.7776 C   0  0  0  0  0  0  0  0  0  0  0  0
   -0.9451  -53.4984  -20.3068 C   0  0  0  0  0  0  0  0  0  0  0  0
   -0.8590  -53.8232  -21.6469 C   0  0  0  0  0  0  0  0  0  0  0  0
   -1.4554  -54.9456  -22.1208 N   0  0  0  0  0  0  0  0  0  0  0  0
   -1.3737  -55.2656  -23.4274 C   0  0  0  0  0  0  0  0  0  0  0  0
   -0.6984  -54.4573  -24.2289 N   0  0  0  0  0  0  0  0  0  0  0  0
   -0.0741  -53.3139  -23.8244 C   0  0  0  0  0  0  0  0  0  0  0  0
   -0.1544  -52.9739  -22.4664 C   0  0  0  0  0  0  0  0  0  0  0  0
    0.4339  -51.8449  -21.9356 C   0  0  0  0  0  0  0  0  0  0  0  0
    0.3649  -51.4911  -20.5910 C   0  0  0  0  0  0  0  0  0  0  0  0
    0.9568  -50.3460  -20.0306 N   0  0  0  0  0  0  0  0  0  0  0  0
    2.2653  -50.1303  -19.6118 C   0  0  0  0  0  0  0  0  0  0  0  0
    3.1522  -50.9945  -19.6858 O   0  0  0  0  0  0  0  0  0  0  0  0
    0.2823  -49.5172  -19.9135 H   0  0  0  0  0  0  0  0  0  0  0  0
    2.6436  -48.8385  -19.0553 C   0  0  0  0  0  0  0  0  0  0  0  0
    2.6624  -47.7566  -19.8020 C   0  0  0  0  0  0  0  0  0  0  0  0
    0.6269  -52.4876  -24.6933 N   0  0  0  0  0  0  0  0  0  0  0  0
    0.0991  -52.0698  -25.5051 H   0  0  0  0  0  0  0  0  0  0  0  0
    1.9885  -52.1339  -24.6170 C   0  0  0  0  0  0  0  0  0  0  0  0
    3.0157  -52.9070  -24.1346 C   0  0  0  0  0  0  0  0  0  0  0  0
    4.3505  -52.4988  -24.0850 C   0  0  0  0  0  0  0  0  0  0  0  0
    4.6689  -51.2567  -24.5408 C   0  0  0  0  0  0  0  0  0  0  0  0
    6.3249  -50.6675  -24.5131 Cl  0  0  0  0  0  0  0  0  0  0  0  0
    3.6744  -50.4415  -25.0352 C   0  0  0  0  0  0  0  0  0  0  0  0
    2.3808  -50.8501  -25.0781 C   0  0  0  0  0  0  0  0  0  0  0  0
    1.4060  -50.0310  -25.5709 F   0  0  0  0  0  0  0  0  0  0  0  0
   -0.4833  -52.1028  -18.4156 O   0  0  0  0  0  0  0  0  0  0  0  0
   -1.2729  -52.9657  -17.6145 C   0  0  0  0  0  0  0  0  0  0  0  0
   -2.1944  -52.2156  -16.7093 C   0  0  0  0  0  0  0  0  0  0  0  0
   -5.4522  -53.3855  -14.9589 C   0  0  0  0  0  0  0  0  0  0  0  0
   -4.4094  -52.5235  -15.5658 C   0  0  0  0  0  0  0  0  0  0  0  0
   -4.6279  -51.2937  -15.5779 O   0  0  0  0  0  0  0  0  0  0  0  0
   -3.2149  -53.0259  -16.1137 N   0  0  0  0  0  0  0  0  0  0  0  0
   -3.0916  -54.0755  -16.0681 H   0  0  0  0  0  0  0  0  0  0  0  0
 30 31  1  0  0  0
 31 32  2  0  0  0
 31 33  1  0  0  0
 33 29  1  0  0  0
 29 28  1  0  0  0
 28 27  1  0  0  0
 27  1  1  0  0  0
  1  2  2  0  0  0
  2  3  1  0  0  0
  3  4  2  0  0  0
  4  5  1  0  0  0
  5  6  2  0  0  0
  6  7  1  0  0  0
  7 17  1  0  0  0
 17 19  1  0  0  0
 19 20  2  0  0  0
 20 21  1  0  0  0
 21 22  2  0  0  0
 22 23  1  0  0  0
 22 24  1  0  0  0
 24 25  2  0  0  0
 25 26  1  0  0  0
  7  8  2  0  0  0
  8  9  1  0  0  0
  9 10  2  0  0  0
 10 11  1  0  0  0
 11 12  1  0  0  0
 12 13  2  0  0  0
 12 15  1  0  0  0
 15 16  2  0  0  0
 10  1  1  0  0  0
  8  3  1  0  0  0
 25 19  1  0  0  0
 33 34  1  0  0  0
 17 18  1  0  0  0
 11 14  1  0  0  0
M  END
> <minimizedAffinity>
-7.32595

> <CNNscore>
0.8502295613

> <CNNaffinity>
7.1928877831

> <CNN_VS>
6.1156058311

> <CNNaffinity_variance>
0.0457073674

$$$$
[H]C([H])=C([H])C(=O)N([H])c1c(OC([H])([H])C([H])([H])N([H])C(=O)C([H])([H])[H])c([H])c2nc([H])nc(N([H])c3c([H])c([H])c(Cl)c([H])c3F)c2c1[H]


 34 36  0  0  0  0  0  0  0  0999 V2000
    0.1466  -51.8087  -18.7417 C   0  0  0  0  0  0  0  0  0  0  0  0
   -0.6669  -52.8488  -19.1023 C   0  0  0  0  0  0  0  0  0  0  0  0
   -0.7642  -53.3052  -20.4027 C   0  0  0  0  0  0  0  0  0  0  0  0
   -1.5863  -54.3403  -20.7071 N   0  0  0  0  0  0  0  0  0  0  0  0
   -1.6838  -54.7882  -21.9744 C   0  0  0  0  0  0  0  0  0  0  0  0
   -0.9582  -54.1918  -22.9068 N   0  0  0  0  0  0  0  0  0  0  0  0
   -0.1116  -53.1475  -22.6756 C   0  0  0  0  0  0  0  0  0  0  0  0
   -0.0044  -52.6757  -21.3596 C   0  0  0  0  0  0  0  0  0  0  0  0
    0.8162  -51.6273  -20.9989 C   0  0  0  0  0  0  0  0  0  0  0  0
    0.9357  -51.1451  -19.6984 C   0  0  0  0  0  0  0  0  0  0  0  0
    1.7654  -50.0790  -19.3103 N   0  0  0  0  0  0  0  0  0  0  0  0
    3.0459  -50.0947  -18.7682 C   0  0  0  0  0  0  0  0  0  0  0  0
    3.6723  -51.1406  -18.5385 O   0  0  0  0  0  0  0  0  0  0  0  0
    1.3300  -49.1079  -19.4615 H   0  0  0  0  0  0  0  0  0  0  0  0
    3.7101  -48.8396  -18.4437 C   0  0  0  0  0  0  0  0  0  0  0  0
    3.9694  -47.9481  -19.3745 C   0  0  0  0  0  0  0  0  0  0  0  0
    0.6361  -52.5444  -23.6787 N   0  0  0  0  0  0  0  0  0  0  0  0
    1.4973  -52.0073  -23.3924 H   0  0  0  0  0  0  0  0  0  0  0  0
    0.3747  -52.5654  -25.0629 C   0  0  0  0  0  0  0  0  0  0  0  0
   -0.7660  -52.1335  -25.6936 C   0  0  0  0  0  0  0  0  0  0  0  0
   -0.9665  -52.1806  -27.0750 C   0  0  0  0  0  0  0  0  0  0  0  0
    0.0243  -52.6848  -27.8599 C   0  0  0  0  0  0  0  0  0  0  0  0
   -0.1492  -52.7789  -29.6067 Cl  0  0  0  0  0  0  0  0  0  0  0  0
    1.1893  -53.1316  -27.2759 C   0  0  0  0  0  0  0  0  0  0  0  0
    1.3719  -53.0803  -25.9319 C   0  0  0  0  0  0  0  0  0  0  0  0
    2.5321  -53.5270  -25.3676 F   0  0  0  0  0  0  0  0  0  0  0  0
    0.2032  -51.3918  -17.4118 O   0  0  0  0  0  0  0  0  0  0  0  0
   -0.7675  -51.8836  -16.5031 C   0  0  0  0  0  0  0  0  0  0  0  0
   -0.4454  -51.5386  -15.0859 C   0  0  0  0  0  0  0  0  0  0  0  0
    3.2298  -52.1055  -13.9827 C   0  0  0  0  0  0  0  0  0  0  0  0
    1.9944  -51.4643  -14.4940 C   0  0  0  0  0  0  0  0  0  0  0  0
    2.0797  -50.2674  -14.8413 O   0  0  0  0  0  0  0  0  0  0  0  0
    0.7627  -52.1359  -14.5998 N   0  0  0  0  0  0  0  0  0  0  0  0
    0.7607  -53.1479  -14.2919 H   0  0  0  0  0  0  0  0  0  0  0  0
 30 31  1  0  0  0
 31 32  2  0  0  0
 31 33  1  0  0  0
 33 29  1  0  0  0
 29 28  1  0  0  0
 28 27  1  0  0  0
 27  1  1  0  0  0
  1  2  2  0  0  0
  2  3  1  0  0  0
  3  4  2  0  0  0
  4  5  1  0  0  0
  5  6  2  0  0  0
  6  7  1  0  0  0
  7 17  1  0  0  0
 17 19  1  0  0  0
 19 20  2  0  0  0
 20 21  1  0  0  0
 21 22  2  0  0  0
 22 23  1  0  0  0
 22 24  1  0  0  0
 24 25  2  0  0  0
 25 26  1  0  0  0
  7  8  2  0  0  0
  8  9  1  0  0  0
  9 10  2  0  0  0
 10 11  1  0  0  0
 11 12  1  0  0  0
 12 13  2  0  0  0
 12 15  1  0  0  0
 15 16  2  0  0  0
 10  1  1  0  0  0
  8  3  1  0  0  0
 25 19  1  0  0  0
 33 34  1  0  0  0
 17 18  1  0  0  0
 11 14  1  0  0  0
M  END
> <minimizedAffinity>
-7.74736

> <CNNscore>
0.7811880708

> <CNNaffinity>
7.1883416176

> <CNN_VS>
5.6154465675

> <CNNaffinity_variance>
0.1147195101

$$$$
[H]C([H])=C([H])C(=O)N([H])c1c(OC([H])([H])C([H])([H])N([H])C(=O)C([H])([H])[H])c([H])c2nc([H])nc(N([H])c3c([H])c([H])c(Cl)c([H])c3F)c2c1[H]


 34 36  0  0  0  0  0  0  0  0999 V2000
    2.1496  -51.1722  -20.9840 C   0  0  0  0  0  0  0  0  0  0  0  0
    1.0343  -51.5755  -20.3005 C   0  0  0  0  0  0  0  0  0  0  0  0
    0.1486  -52.5102  -20.8012 C   0  0  0  0  0  0  0  0  0  0  0  0
   -0.9425  -52.8755  -20.0828 N   0  0  0  0  0  0  0  0  0  0  0  0
   -1.8088  -53.7868  -20.5679 C   0  0  0  0  0  0  0  0  0  0  0  0
   -1.5644  -54.3113  -21.7583 N   0  0  0  0  0  0  0  0  0  0  0  0
   -0.4900  -53.9931  -22.5362 C   0  0  0  0  0  0  0  0  0  0  0  0
    0.4160  -53.0457  -22.0385 C   0  0  0  0  0  0  0  0  0  0  0  0
    1.5392  -52.6410  -22.7293 C   0  0  0  0  0  0  0  0  0  0  0  0
    2.4495  -51.7021  -22.2518 C   0  0  0  0  0  0  0  0  0  0  0  0
    3.5992  -51.2764  -22.9394 N   0  0  0  0  0  0  0  0  0  0  0  0
    3.7824  -50.1892  -23.7869 C   0  0  0  0  0  0  0  0  0  0  0  0
    2.8775  -49.3885  -24.0680 O   0  0  0  0  0  0  0  0  0  0  0  0
    4.4620  -51.8963  -22.7755 H   0  0  0  0  0  0  0  0  0  0  0  0
    5.0874  -49.9525  -24.3890 C   0  0  0  0  0  0  0  0  0  0  0  0
    6.0757  -50.8036  -24.2243 C   0  0  0  0  0  0  0  0  0  0  0  0
   -0.2637  -54.5635  -23.7822 N   0  0  0  0  0  0  0  0  0  0  0  0
    0.0734  -55.5623  -23.8100 H   0  0  0  0  0  0  0  0  0  0  0  0
   -0.4348  -53.9527  -25.0402 C   0  0  0  0  0  0  0  0  0  0  0  0
   -0.9606  -52.7088  -25.2884 C   0  0  0  0  0  0  0  0  0  0  0  0
   -1.1048  -52.1563  -26.5631 C   0  0  0  0  0  0  0  0  0  0  0  0
   -0.7025  -52.8866  -27.6386 C   0  0  0  0  0  0  0  0  0  0  0  0
   -0.8498  -52.2636  -29.2757 Cl  0  0  0  0  0  0  0  0  0  0  0  0
   -0.1679  -54.1412  -27.4432 C   0  0  0  0  0  0  0  0  0  0  0  0
   -0.0330  -54.6668  -26.1991 C   0  0  0  0  0  0  0  0  0  0  0  0
    0.4987  -55.9117  -26.0212 F   0  0  0  0  0  0  0  0  0  0  0  0
    3.0080  -50.2242  -20.4271 O   0  0  0  0  0  0  0  0  0  0  0  0
    3.8734  -50.6236  -19.3776 C   0  0  0  0  0  0  0  0  0  0  0  0
    3.7096  -49.7818  -18.1546 C   0  0  0  0  0  0  0  0  0  0  0  0
    3.7127  -51.6422  -14.7510 C   0  0  0  0  0  0  0  0  0  0  0  0
    3.2518  -50.9791  -15.9947 C   0  0  0  0  0  0  0  0  0  0  0  0
    2.0182  -50.9251  -16.1838 O   0  0  0  0  0  0  0  0  0  0  0  0
    4.1288  -50.4233  -16.9441 N   0  0  0  0  0  0  0  0  0  0  0  0
    5.1599  -50.5005  -16.7210 H   0  0  0  0  0  0  0  0  0  0  0  0
 30 31  1  0  0  0
 31 32  2  0  0  0
 31 33  1  0  0  0
 33 29  1  0  0  0
 29 28  1  0  0  0
 28 27  1  0  0  0
 27  1  1  0  0  0
  1  2  2  0  0  0
  2  3  1  0  0  0
  3  4  2  0  0  0
  4  5  1  0  0  0
  5  6  2  0  0  0
  6  7  1  0  0  0
  7 17  1  0  0  0
 17 19  1  0  0  0
 19 20  2  0  0  0
 20 21  1  0  0  0
 21 22  2  0  0  0
 22 23  1  0  0  0
 22 24  1  0  0  0
 24 25  2  0  0  0
 25 26  1  0  0  0
  7  8  2  0  0  0
  8  9  1  0  0  0
  9 10  2  0  0  0
 10 11  1  0  0  0
 11 12  1  0  0  0
 12 13  2  0  0  0
 12 15  1  0  0  0
 15 16  2  0  0  0
 10  1  1  0  0  0
  8  3  1  0  0  0
 25 19  1  0  0  0
 33 34  1  0  0  0
 17 18  1  0  0  0
 11 14  1  0  0  0
M  END
> <minimizedAffinity>
-7.46040

> <CNNscore>
0.6720235348

> <CNNaffinity>
7.2052283287

> <CNN_VS>
4.8420829773

> <CNNaffinity_variance>
0.1740797758

$$$$
[H]C([H])=C([H])C(=O)N([H])c1c(OC([H])([H])C([H])([H])N([H])C(=O)C([H])([H])[H])c([H])c2nc([H])nc(N([H])c3c([H])c([H])c(Cl)c([H])c3F)c2c1[H]


 34 36  0  0  0  0  0  0  0  0999 V2000
    1.5812  -50.9631  -22.7108 C   0  0  0  0  0  0  0  0  0  0  0  0
    0.6947  -51.9116  -23.1447 C   0  0  0  0  0  0  0  0  0  0  0  0
    0.0070  -52.7422  -22.2809 C   0  0  0  0  0  0  0  0  0  0  0  0
   -0.8609  -53.6664  -22.7630 N   0  0  0  0  0  0  0  0  0  0  0  0
   -1.5335  -54.4784  -21.9236 C   0  0  0  0  0  0  0  0  0  0  0  0
   -1.3230  -54.3478  -20.6234 N   0  0  0  0  0  0  0  0  0  0  0  0
   -0.4672  -53.4429  -20.0671 C   0  0  0  0  0  0  0  0  0  0  0  0
    0.2363  -52.5944  -20.9338 C   0  0  0  0  0  0  0  0  0  0  0  0
    1.1291  -51.6393  -20.4940 C   0  0  0  0  0  0  0  0  0  0  0  0
    1.8365  -50.7884  -21.3388 C   0  0  0  0  0  0  0  0  0  0  0  0
    2.7499  -49.8094  -20.9112 N   0  0  0  0  0  0  0  0  0  0  0  0
    2.5357  -48.4830  -20.5526 C   0  0  0  0  0  0  0  0  0  0  0  0
    1.4158  -47.9494  -20.5655 O   0  0  0  0  0  0  0  0  0  0  0  0
    3.7670  -50.1532  -20.8579 H   0  0  0  0  0  0  0  0  0  0  0  0
    3.6596  -47.6547  -20.1374 C   0  0  0  0  0  0  0  0  0  0  0  0
    4.5025  -48.0660  -19.2161 C   0  0  0  0  0  0  0  0  0  0  0  0
   -0.2701  -53.3325  -18.6967 N   0  0  0  0  0  0  0  0  0  0  0  0
    0.6315  -53.7086  -18.2994 H   0  0  0  0  0  0  0  0  0  0  0  0
   -1.1507  -52.7656  -17.7544 C   0  0  0  0  0  0  0  0  0  0  0  0
   -2.4362  -53.1643  -17.4827 C   0  0  0  0  0  0  0  0  0  0  0  0
   -3.2628  -52.5597  -16.5329 C   0  0  0  0  0  0  0  0  0  0  0  0
   -2.7761  -51.5057  -15.8229 C   0  0  0  0  0  0  0  0  0  0  0  0
   -3.7520  -50.6897  -14.6096 Cl  0  0  0  0  0  0  0  0  0  0  0  0
   -1.4916  -51.0666  -16.0577 C   0  0  0  0  0  0  0  0  0  0  0  0
   -0.6982  -51.6629  -16.9836 C   0  0  0  0  0  0  0  0  0  0  0  0
    0.5729  -51.2165  -17.2052 F   0  0  0  0  0  0  0  0  0  0  0  0
    2.2464  -50.1528  -23.6309 O   0  0  0  0  0  0  0  0  0  0  0  0
    2.2886  -50.5585  -24.9887 C   0  0  0  0  0  0  0  0  0  0  0  0
    3.6709  -50.9071  -25.4348 C   0  0  0  0  0  0  0  0  0  0  0  0
    5.3438  -47.7862  -27.0183 C   0  0  0  0  0  0  0  0  0  0  0  0
    4.4613  -48.9595  -26.8098 C   0  0  0  0  0  0  0  0  0  0  0  0
    3.6387  -49.2170  -27.7139 O   0  0  0  0  0  0  0  0  0  0  0  0
    4.5146  -49.7717  -25.6623 N   0  0  0  0  0  0  0  0  0  0  0  0
    5.2355  -49.5001  -24.9374 H   0  0  0  0  0  0  0  0  0  0  0  0
 30 31  1  0  0  0
 31 32  2  0  0  0
 31 33  1  0  0  0
 33 29  1  0  0  0
 29 28  1  0  0  0
 28 27  1  0  0  0
 27  1  1  0  0  0
  1  2  2  0  0  0
  2  3  1  0  0  0
  3  4  2  0  0  0
  4  5  1  0  0  0
  5  6  2  0  0  0
  6  7  1  0  0  0
  7 17  1  0  0  0
 17 19  1  0  0  0
 19 20  2  0  0  0
 20 21  1  0  0  0
 21 22  2  0  0  0
 22 23  1  0  0  0
 22 24  1  0  0  0
 24 25  2  0  0  0
 25 26  1  0  0  0
  7  8  2  0  0  0
  8  9  1  0  0  0
  9 10  2  0  0  0
 10 11  1  0  0  0
 11 12  1  0  0  0
 12 13  2  0  0  0
 12 15  1  0  0  0
 15 16  2  0  0  0
 10  1  1  0  0  0
  8  3  1  0  0  0
 25 19  1  0  0  0
 33 34  1  0  0  0
 17 18  1  0  0  0
 11 14  1  0  0  0
M  END
> <minimizedAffinity>
-6.62433

> <CNNscore>
0.6555402875

> <CNNaffinity>
6.9923028946

> <CNN_VS>
4.5837364197

> <CNNaffinity_variance>
0.1324534863

$$$$
[H]C([H])=C([H])C(=O)N([H])c1c(OC([H])([H])C([H])([H])N([H])C(=O)C([H])([H])[H])c([H])c2nc([H])nc(N([H])c3c([H])c([H])c(Cl)c([H])c3F)c2c1[H]


 34 36  0  0  0  0  0  0  0  0999 V2000
    1.6415  -51.2638  -23.2530 C   0  0  0  0  0  0  0  0  0  0  0  0
    0.7102  -52.2114  -23.5821 C   0  0  0  0  0  0  0  0  0  0  0  0
    0.0586  -52.9789  -22.6358 C   0  0  0  0  0  0  0  0  0  0  0  0
   -0.8567  -53.9052  -23.0154 N   0  0  0  0  0  0  0  0  0  0  0  0
   -1.4942  -54.6558  -22.0953 C   0  0  0  0  0  0  0  0  0  0  0  0
   -1.2024  -54.4630  -20.8188 N   0  0  0  0  0  0  0  0  0  0  0  0
   -0.2951  -53.5518  -20.3635 C   0  0  0  0  0  0  0  0  0  0  0  0
    0.3725  -52.7670  -21.3145 C   0  0  0  0  0  0  0  0  0  0  0  0
    1.3106  -51.8127  -20.9803 C   0  0  0  0  0  0  0  0  0  0  0  0
    1.9834  -51.0244  -21.9098 C   0  0  0  0  0  0  0  0  0  0  0  0
    2.9420  -50.0473  -21.5902 N   0  0  0  0  0  0  0  0  0  0  0  0
    2.7921  -48.6788  -21.3942 C   0  0  0  0  0  0  0  0  0  0  0  0
    1.7004  -48.0964  -21.4842 O   0  0  0  0  0  0  0  0  0  0  0  0
    3.9402  -50.4316  -21.4840 H   0  0  0  0  0  0  0  0  0  0  0  0
    3.9533  -47.8629  -21.0665 C   0  0  0  0  0  0  0  0  0  0  0  0
    3.8212  -46.7124  -20.4441 C   0  0  0  0  0  0  0  0  0  0  0  0
   -0.0128  -53.3753  -19.0151 N   0  0  0  0  0  0  0  0  0  0  0  0
    0.9244  -53.7069  -18.6631 H   0  0  0  0  0  0  0  0  0  0  0  0
   -0.8478  -52.7932  -18.0411 C   0  0  0  0  0  0  0  0  0  0  0  0
   -2.1021  -53.2131  -17.6724 C   0  0  0  0  0  0  0  0  0  0  0  0
   -2.8838  -52.5918  -16.6958 C   0  0  0  0  0  0  0  0  0  0  0  0
   -2.3830  -51.4979  -16.0598 C   0  0  0  0  0  0  0  0  0  0  0  0
   -3.3030  -50.6585  -14.8191 Cl  0  0  0  0  0  0  0  0  0  0  0  0
   -1.1285  -51.0361  -16.3932 C   0  0  0  0  0  0  0  0  0  0  0  0
   -0.3787  -51.6491  -17.3441 C   0  0  0  0  0  0  0  0  0  0  0  0
    0.8630  -51.1799  -17.6638 F   0  0  0  0  0  0  0  0  0  0  0  0
    2.2668  -50.5190  -24.2530 O   0  0  0  0  0  0  0  0  0  0  0  0
    3.1255  -51.1869  -25.1621 C   0  0  0  0  0  0  0  0  0  0  0  0
    2.7031  -51.0018  -26.5829 C   0  0  0  0  0  0  0  0  0  0  0  0
    0.6734  -54.0080  -27.9575 C   0  0  0  0  0  0  0  0  0  0  0  0
    1.8030  -53.1381  -27.5495 C   0  0  0  0  0  0  0  0  0  0  0  0
    2.9553  -53.5878  -27.7234 O   0  0  0  0  0  0  0  0  0  0  0  0
    1.6297  -51.8594  -26.9891 N   0  0  0  0  0  0  0  0  0  0  0  0
    0.6286  -51.5383  -26.8723 H   0  0  0  0  0  0  0  0  0  0  0  0
 30 31  1  0  0  0
 31 32  2  0  0  0
 31 33  1  0  0  0
 33 29  1  0  0  0
 29 28  1  0  0  0
 28 27  1  0  0  0
 27  1  1  0  0  0
  1  2  2  0  0  0
  2  3  1  0  0  0
  3  4  2  0  0  0
  4  5  1  0  0  0
  5  6  2  0  0  0
  6  7  1  0  0  0
  7 17  1  0  0  0
 17 19  1  0  0  0
 19 20  2  0  0  0
 20 21  1  0  0  0
 21 22  2  0  0  0
 22 23  1  0  0  0
 22 24  1  0  0  0
 24 25  2  0  0  0
 25 26  1  0  0  0
  7  8  2  0  0  0
  8  9  1  0  0  0
  9 10  2  0  0  0
 10 11  1  0  0  0
 11 12  1  0  0  0
 12 13  2  0  0  0
 12 15  1  0  0  0
 15 16  2  0  0  0
 10  1  1  0  0  0
  8  3  1  0  0  0
 25 19  1  0  0  0
 33 34  1  0  0  0
 17 18  1  0  0  0
 11 14  1  0  0  0
M  END
> <minimizedAffinity>
-7.25623

> <CNNscore>
0.5829832554

> <CNNaffinity>
7.1797246933

> <CNN_VS>
4.1856594086

> <CNNaffinity_variance>
0.1316661388

$$$$
[H]C([H])=C([H])C(=O)N([H])c1c(OC([H])([H])C([H])([H])N([H])C(=O)C([H])([H])[H])c([H])c2nc([H])nc(N([H])c3c([H])c([H])c(Cl)c([H])c3F)c2c1[H]


 34 36  0  0  0  0  0  0  0  0999 V2000
    1.3743  -50.0354  -21.7434 C   0  0  0  0  0  0  0  0  0  0  0  0
    0.4932  -50.6616  -20.9036 C   0  0  0  0  0  0  0  0  0  0  0  0
   -0.1083  -51.8658  -21.2148 C   0  0  0  0  0  0  0  0  0  0  0  0
   -0.9750  -52.4446  -20.3466 N   0  0  0  0  0  0  0  0  0  0  0  0
   -1.5638  -53.6191  -20.6467 C   0  0  0  0  0  0  0  0  0  0  0  0
   -1.2728  -54.1871  -21.8063 N   0  0  0  0  0  0  0  0  0  0  0  0
   -0.4128  -53.6648  -22.7273 C   0  0  0  0  0  0  0  0  0  0  0  0
    0.2039  -52.4430  -22.4225 C   0  0  0  0  0  0  0  0  0  0  0  0
    1.0915  -51.8141  -23.2706 C   0  0  0  0  0  0  0  0  0  0  0  0
    1.7133  -50.6016  -22.9855 C   0  0  0  0  0  0  0  0  0  0  0  0
    2.6200  -49.9447  -23.8353 N   0  0  0  0  0  0  0  0  0  0  0  0
    3.9946  -50.1053  -23.9709 C   0  0  0  0  0  0  0  0  0  0  0  0
    4.6517  -50.9179  -23.3024 O   0  0  0  0  0  0  0  0  0  0  0  0
    2.1669  -49.2073  -24.4727 H   0  0  0  0  0  0  0  0  0  0  0  0
    4.7264  -49.2955  -24.9355 C   0  0  0  0  0  0  0  0  0  0  0  0
    4.0941  -48.5585  -25.8219 C   0  0  0  0  0  0  0  0  0  0  0  0
   -0.1298  -54.2882  -23.9358 N   0  0  0  0  0  0  0  0  0  0  0  0
    0.3066  -55.2476  -23.9019 H   0  0  0  0  0  0  0  0  0  0  0  0
   -0.3615  -53.7797  -25.2291 C   0  0  0  0  0  0  0  0  0  0  0  0
   -0.9524  -52.5828  -25.5511 C   0  0  0  0  0  0  0  0  0  0  0  0
   -1.1549  -52.1324  -26.8576 C   0  0  0  0  0  0  0  0  0  0  0  0
   -0.7452  -52.9203  -27.8888 C   0  0  0  0  0  0  0  0  0  0  0  0
   -0.9633  -52.4263  -29.5617 Cl  0  0  0  0  0  0  0  0  0  0  0  0
   -0.1463  -54.1312  -27.6190 C   0  0  0  0  0  0  0  0  0  0  0  0
    0.0448  -54.5576  -26.3446 C   0  0  0  0  0  0  0  0  0  0  0  0
    0.6399  -55.7603  -26.0928 F   0  0  0  0  0  0  0  0  0  0  0  0
    1.9506  -48.8199  -21.3745 O   0  0  0  0  0  0  0  0  0  0  0  0
    2.4057  -48.6597  -20.0415 C   0  0  0  0  0  0  0  0  0  0  0  0
    3.7634  -49.2458  -19.8304 C   0  0  0  0  0  0  0  0  0  0  0  0
    7.0294  -48.5314  -21.7973 C   0  0  0  0  0  0  0  0  0  0  0  0
    6.0854  -48.8329  -20.6942 C   0  0  0  0  0  0  0  0  0  0  0  0
    6.5755  -48.9848  -19.5553 O   0  0  0  0  0  0  0  0  0  0  0  0
    4.6956  -48.9510  -20.8777 N   0  0  0  0  0  0  0  0  0  0  0  0
    4.3465  -48.8076  -21.8659 H   0  0  0  0  0  0  0  0  0  0  0  0
 30 31  1  0  0  0
 31 32  2  0  0  0
 31 33  1  0  0  0
 33 29  1  0  0  0
 29 28  1  0  0  0
 28 27  1  0  0  0
 27  1  1  0  0  0
  1  2  2  0  0  0
  2  3  1  0  0  0
  3  4  2  0  0  0
  4  5  1  0  0  0
  5  6  2  0  0  0
  6  7  1  0  0  0
  7 17  1  0  0  0
 17 19  1  0  0  0
 19 20  2  0  0  0
 20 21  1  0  0  0
 21 22  2  0  0  0
 22 23  1  0  0  0
 22 24  1  0  0  0
 24 25  2  0  0  0
 25 26  1  0  0  0
  7  8  2  0  0  0
  8  9  1  0  0  0
  9 10  2  0  0  0
 10 11  1  0  0  0
 11 12  1  0  0  0
 12 13  2  0  0  0
 12 15  1  0  0  0
 15 16  2  0  0  0
 10  1  1  0  0  0
  8  3  1  0  0  0
 25 19  1  0  0  0
 33 34  1  0  0  0
 17 18  1  0  0  0
 11 14  1  0  0  0
M  END
> <minimizedAffinity>
-6.95546

> <CNNscore>
0.5548313856

> <CNNaffinity>
7.1144738197

> <CNN_VS>
3.9473333359

> <CNNaffinity_variance>
0.2830395699

$$$$
[H]C([H])=C([H])C(=O)N([H])c1c(OC([H])([H])C([H])([H])N([H])C(=O)C([H])([H])[H])c([H])c2nc([H])nc(N([H])c3c([H])c([H])c(Cl)c([H])c3F)c2c1[H]


 34 36  0  0  0  0  0  0  0  0999 V2000
    1.5231  -50.8114  -22.5412 C   0  0  0  0  0  0  0  0  0  0  0  0
    0.6583  -51.7653  -23.0058 C   0  0  0  0  0  0  0  0  0  0  0  0
   -0.0324  -52.6194  -22.1678 C   0  0  0  0  0  0  0  0  0  0  0  0
   -0.8782  -53.5480  -22.6800 N   0  0  0  0  0  0  0  0  0  0  0  0
   -1.5536  -54.3830  -21.8657 C   0  0  0  0  0  0  0  0  0  0  0  0
   -1.3681  -54.2703  -20.5601 N   0  0  0  0  0  0  0  0  0  0  0  0
   -0.5354  -53.3624  -19.9743 C   0  0  0  0  0  0  0  0  0  0  0  0
    0.1709  -52.4900  -20.8146 C   0  0  0  0  0  0  0  0  0  0  0  0
    1.0418  -51.5296  -20.3438 C   0  0  0  0  0  0  0  0  0  0  0  0
    1.7515  -50.6552  -21.1622 C   0  0  0  0  0  0  0  0  0  0  0  0
    2.6429  -49.6703  -20.7028 N   0  0  0  0  0  0  0  0  0  0  0  0
    4.0118  -49.7431  -20.4689 C   0  0  0  0  0  0  0  0  0  0  0  0
    4.6771  -50.7741  -20.6514 O   0  0  0  0  0  0  0  0  0  0  0  0
    2.1815  -48.7196  -20.5061 H   0  0  0  0  0  0  0  0  0  0  0  0
    4.7271  -48.5696  -19.9862 C   0  0  0  0  0  0  0  0  0  0  0  0
    5.7980  -48.6892  -19.2329 C   0  0  0  0  0  0  0  0  0  0  0  0
   -0.3643  -53.2713  -18.5989 N   0  0  0  0  0  0  0  0  0  0  0  0
    0.5337  -53.6446  -18.1911 H   0  0  0  0  0  0  0  0  0  0  0  0
   -1.2674  -52.7277  -17.6643 C   0  0  0  0  0  0  0  0  0  0  0  0
   -2.5540  -53.1424  -17.4231 C   0  0  0  0  0  0  0  0  0  0  0  0
   -3.4036  -52.5608  -16.4793 C   0  0  0  0  0  0  0  0  0  0  0  0
   -2.9400  -51.5141  -15.7435 C   0  0  0  0  0  0  0  0  0  0  0  0
   -3.9458  -50.7268  -14.5357 Cl  0  0  0  0  0  0  0  0  0  0  0  0
   -1.6556  -51.0596  -15.9472 C   0  0  0  0  0  0  0  0  0  0  0  0
   -0.8397  -51.6337  -16.8676 C   0  0  0  0  0  0  0  0  0  0  0  0
    0.4311  -51.1722  -17.0583 F   0  0  0  0  0  0  0  0  0  0  0  0
    2.1927  -49.9770  -23.4362 O   0  0  0  0  0  0  0  0  0  0  0  0
    3.2690  -50.5110  -24.1888 C   0  0  0  0  0  0  0  0  0  0  0  0
    4.2964  -49.4792  -24.5218 C   0  0  0  0  0  0  0  0  0  0  0  0
    7.5618  -49.9763  -22.4881 C   0  0  0  0  0  0  0  0  0  0  0  0
    6.5011  -50.1338  -23.5124 C   0  0  0  0  0  0  0  0  0  0  0  0
    6.6791  -51.0137  -24.3810 O   0  0  0  0  0  0  0  0  0  0  0  0
    5.3331  -49.3501  -23.5414 N   0  0  0  0  0  0  0  0  0  0  0  0
    5.2438  -48.6259  -22.7755 H   0  0  0  0  0  0  0  0  0  0  0  0
 30 31  1  0  0  0
 31 32  2  0  0  0
 31 33  1  0  0  0
 33 29  1  0  0  0
 29 28  1  0  0  0
 28 27  1  0  0  0
 27  1  1  0  0  0
  1  2  2  0  0  0
  2  3  1  0  0  0
  3  4  2  0  0  0
  4  5  1  0  0  0
  5  6  2  0  0  0
  6  7  1  0  0  0
  7 17  1  0  0  0
 17 19  1  0  0  0
 19 20  2  0  0  0
 20 21  1  0  0  0
 21 22  2  0  0  0
 22 23  1  0  0  0
 22 24  1  0  0  0
 24 25  2  0  0  0
 25 26  1  0  0  0
  7  8  2  0  0  0
  8  9  1  0  0  0
  9 10  2  0  0  0
 10 11  1  0  0  0
 11 12  1  0  0  0
 12 13  2  0  0  0
 12 15  1  0  0  0
 15 16  2  0  0  0
 10  1  1  0  0  0
  8  3  1  0  0  0
 25 19  1  0  0  0
 33 34  1  0  0  0
 17 18  1  0  0  0
 11 14  1  0  0  0
M  END
> <minimizedAffinity>
-6.58230

> <CNNscore>
0.4698595703

> <CNNaffinity>
6.7597379684

> <CNN_VS>
3.1761276722

> <CNNaffinity_variance>
0.1668053269

$$$$
[H]OC(=O)C([H])([H])C([H])([H])N([H])c1c(Br)c([H])c([H])c([H])c1N([H])c1nc([H])nc2c([H])c([H])nc([H])c12


 27 29  0  0  0  0  0  0  0  0999 V2000
    0.7593  -52.7372  -26.4353 C   0  0  0  0  0  0  0  0  0  0  0  0
    0.6249  -53.0622  -27.7402 C   0  0  0  0  0  0  0  0  0  0  0  0
    2.0313  -53.8257  -28.7741 Br  0  0  0  0  0  0  0  0  0  0  0  0
   -0.6133  -52.8831  -28.3610 C   0  0  0  0  0  0  0  0  0  0  0  0
   -1.6685  -52.3890  -27.6551 C   0  0  0  0  0  0  0  0  0  0  0  0
   -1.4719  -52.0705  -26.2989 C   0  0  0  0  0  0  0  0  0  0  0  0
   -0.2917  -52.2238  -25.6467 C   0  0  0  0  0  0  0  0  0  0  0  0
    2.0174  -52.8423  -25.7876 N   0  0  0  0  0  0  0  0  0  0  0  0
    2.1848  -53.6053  -25.0575 H   0  0  0  0  0  0  0  0  0  0  0  0
    3.0543  -51.9021  -26.1363 C   0  0  0  0  0  0  0  0  0  0  0  0
    2.5697  -50.4970  -26.0548 C   0  0  0  0  0  0  0  0  0  0  0  0
    3.9526  -49.5466  -27.8783 O   0  0  0  0  0  0  0  0  0  0  0  0
    3.6884  -49.5842  -26.5274 C   0  0  0  0  0  0  0  0  0  0  0  0
    4.3486  -48.8898  -25.7201 O   0  0  0  0  0  0  0  0  0  0  0  0
    3.1567  -49.3378  -28.4921 H   0  0  0  0  0  0  0  0  0  0  0  0
   -0.0603  -51.9748  -24.3044 N   0  0  0  0  0  0  0  0  0  0  0  0
    0.4026  -51.0460  -24.0601 H   0  0  0  0  0  0  0  0  0  0  0  0
   -0.3535  -52.8336  -23.2194 C   0  0  0  0  0  0  0  0  0  0  0  0
   -0.8281  -54.0758  -23.3313 N   0  0  0  0  0  0  0  0  0  0  0  0
   -1.1389  -54.9222  -22.3523 C   0  0  0  0  0  0  0  0  0  0  0  0
   -0.9704  -54.5200  -21.1038 N   0  0  0  0  0  0  0  0  0  0  0  0
   -0.4924  -53.2738  -20.8604 C   0  0  0  0  0  0  0  0  0  0  0  0
   -0.3252  -52.8788  -19.5430 C   0  0  0  0  0  0  0  0  0  0  0  0
    0.1574  -51.6232  -19.2555 C   0  0  0  0  0  0  0  0  0  0  0  0
    0.4632  -50.7889  -20.2715 N   0  0  0  0  0  0  0  0  0  0  0  0
    0.3067  -51.1563  -21.5823 C   0  0  0  0  0  0  0  0  0  0  0  0
   -0.1719  -52.4001  -21.8944 C   0  0  0  0  0  0  0  0  0  0  0  0
 12 13  1  0  0  0
 13 14  2  0  0  0
 13 11  1  0  0  0
 11 10  1  0  0  0
 10  8  1  0  0  0
  8  1  1  0  0  0
  1  2  2  0  0  0
  2  3  1  0  0  0
  2  4  1  0  0  0
  4  5  2  0  0  0
  5  6  1  0  0  0
  6  7  2  0  0  0
  7 16  1  0  0  0
 16 18  1  0  0  0
 18 19  2  0  0  0
 19 20  1  0  0  0
 20 21  2  0  0  0
 21 22  1  0  0  0
 22 23  2  0  0  0
 23 24  1  0  0  0
 24 25  2  0  0  0
 25 26  1  0  0  0
 26 27  2  0  0  0
  7  1  1  0  0  0
 27 18  1  0  0  0
 27 22  1  0  0  0
 12 15  1  0  0  0
  8  9  1  0  0  0
 16 17  1  0  0  0
M  END
> <minimizedAffinity>
-7.00359

> <CNNscore>
0.8901550174

> <CNNaffinity>
7.0009789467

> <CNN_VS>
6.2319564819

> <CNNaffinity_variance>
0.0697306097

$$$$
[H]OC(=O)C([H])([H])C([H])([H])N([H])c1c(Br)c([H])c([H])c([H])c1N([H])c1nc([H])nc2c([H])c([H])nc([H])c12


 27 29  0  0  0  0  0  0  0  0999 V2000
    0.7945  -53.0322  -26.5560 C   0  0  0  0  0  0  0  0  0  0  0  0
    0.6641  -53.3190  -27.8701 C   0  0  0  0  0  0  0  0  0  0  0  0
    2.0026  -54.2278  -28.8763 Br  0  0  0  0  0  0  0  0  0  0  0  0
   -0.5242  -52.9850  -28.5238 C   0  0  0  0  0  0  0  0  0  0  0  0
   -1.5355  -52.3803  -27.8401 C   0  0  0  0  0  0  0  0  0  0  0  0
   -1.3457  -52.1082  -26.4729 C   0  0  0  0  0  0  0  0  0  0  0  0
   -0.2130  -52.4101  -25.7892 C   0  0  0  0  0  0  0  0  0  0  0  0
    2.0104  -53.2954  -25.8734 N   0  0  0  0  0  0  0  0  0  0  0  0
    2.1040  -54.1634  -25.2561 H   0  0  0  0  0  0  0  0  0  0  0  0
    3.1058  -52.3706  -26.0326 C   0  0  0  0  0  0  0  0  0  0  0  0
    3.9479  -52.3026  -24.8069 C   0  0  0  0  0  0  0  0  0  0  0  0
    3.8981  -51.1208  -22.6293 O   0  0  0  0  0  0  0  0  0  0  0  0
    3.3686  -51.2341  -23.8955 C   0  0  0  0  0  0  0  0  0  0  0  0
    2.4429  -50.4818  -24.2787 O   0  0  0  0  0  0  0  0  0  0  0  0
    4.9161  -51.0025  -22.5707 H   0  0  0  0  0  0  0  0  0  0  0  0
    0.0037  -52.2108  -24.4362 N   0  0  0  0  0  0  0  0  0  0  0  0
    0.5390  -51.3315  -24.1589 H   0  0  0  0  0  0  0  0  0  0  0  0
   -0.3917  -53.0634  -23.3791 C   0  0  0  0  0  0  0  0  0  0  0  0
   -0.9628  -54.2598  -23.5317 N   0  0  0  0  0  0  0  0  0  0  0  0
   -1.3714  -55.0967  -22.5807 C   0  0  0  0  0  0  0  0  0  0  0  0
   -1.2087  -54.7339  -21.3194 N   0  0  0  0  0  0  0  0  0  0  0  0
   -0.6381  -53.5364  -21.0352 C   0  0  0  0  0  0  0  0  0  0  0  0
   -0.4793  -53.1821  -19.7052 C   0  0  0  0  0  0  0  0  0  0  0  0
    0.0954  -51.9763  -19.3765 C   0  0  0  0  0  0  0  0  0  0  0  0
    0.4992  -51.1506  -20.3649 N   0  0  0  0  0  0  0  0  0  0  0  0
    0.3532  -51.4783  -21.6873 C   0  0  0  0  0  0  0  0  0  0  0  0
   -0.2158  -52.6721  -22.0402 C   0  0  0  0  0  0  0  0  0  0  0  0
 12 13  1  0  0  0
 13 14  2  0  0  0
 13 11  1  0  0  0
 11 10  1  0  0  0
 10  8  1  0  0  0
  8  1  1  0  0  0
  1  2  2  0  0  0
  2  3  1  0  0  0
  2  4  1  0  0  0
  4  5  2  0  0  0
  5  6  1  0  0  0
  6  7  2  0  0  0
  7 16  1  0  0  0
 16 18  1  0  0  0
 18 19  2  0  0  0
 19 20  1  0  0  0
 20 21  2  0  0  0
 21 22  1  0  0  0
 22 23  2  0  0  0
 23 24  1  0  0  0
 24 25  2  0  0  0
 25 26  1  0  0  0
 26 27  2  0  0  0
  7  1  1  0  0  0
 27 18  1  0  0  0
 27 22  1  0  0  0
 12 15  1  0  0  0
  8  9  1  0  0  0
 16 17  1  0  0  0
M  END
> <minimizedAffinity>
-6.89791

> <CNNscore>
0.8863241673

> <CNNaffinity>
6.7634072304

> <CNN_VS>
5.9945712090

> <CNNaffinity_variance>
0.0401462801

$$$$
[H]OC(=O)C([H])([H])C([H])([H])N([H])c1c(Br)c([H])c([H])c([H])c1N([H])c1nc([H])nc2c([H])c([H])nc([H])c12


 27 29  0  0  0  0  0  0  0  0999 V2000
    0.3088  -52.0503  -21.9809 C   0  0  0  0  0  0  0  0  0  0  0  0
    0.0411  -52.7773  -20.8736 C   0  0  0  0  0  0  0  0  0  0  0  0
    0.3018  -52.1175  -19.1054 Br  0  0  0  0  0  0  0  0  0  0  0  0
   -0.5014  -54.0565  -21.0155 C   0  0  0  0  0  0  0  0  0  0  0  0
   -0.7570  -54.5586  -22.2558 C   0  0  0  0  0  0  0  0  0  0  0  0
   -0.4610  -53.7563  -23.3731 C   0  0  0  0  0  0  0  0  0  0  0  0
    0.0667  -52.5086  -23.2929 C   0  0  0  0  0  0  0  0  0  0  0  0
    0.9214  -50.7742  -21.8801 N   0  0  0  0  0  0  0  0  0  0  0  0
    0.3206  -49.8951  -21.7833 H   0  0  0  0  0  0  0  0  0  0  0  0
    2.3612  -50.6951  -21.9111 C   0  0  0  0  0  0  0  0  0  0  0  0
    2.8527  -49.4197  -21.3213 C   0  0  0  0  0  0  0  0  0  0  0  0
    0.8340  -47.9847  -21.4039 O   0  0  0  0  0  0  0  0  0  0  0  0
    1.6844  -48.7400  -20.6276 C   0  0  0  0  0  0  0  0  0  0  0  0
    1.4987  -48.8602  -19.3944 O   0  0  0  0  0  0  0  0  0  0  0  0
    0.4267  -48.4536  -22.2212 H   0  0  0  0  0  0  0  0  0  0  0  0
    0.3275  -51.6607  -24.3561 N   0  0  0  0  0  0  0  0  0  0  0  0
    0.3120  -50.6144  -24.1521 H   0  0  0  0  0  0  0  0  0  0  0  0
    0.5919  -52.0347  -25.6944 C   0  0  0  0  0  0  0  0  0  0  0  0
    1.8067  -52.2378  -26.2080 N   0  0  0  0  0  0  0  0  0  0  0  0
    2.1190  -52.5721  -27.4580 C   0  0  0  0  0  0  0  0  0  0  0  0
    1.1335  -52.7315  -28.3252 N   0  0  0  0  0  0  0  0  0  0  0  0
   -0.1493  -52.5522  -27.9217 C   0  0  0  0  0  0  0  0  0  0  0  0
   -1.1620  -52.7262  -28.8511 C   0  0  0  0  0  0  0  0  0  0  0  0
   -2.4754  -52.5538  -28.4803 C   0  0  0  0  0  0  0  0  0  0  0  0
   -2.7583  -52.2149  -27.2048 N   0  0  0  0  0  0  0  0  0  0  0  0
   -1.7748  -52.0373  -26.2675 C   0  0  0  0  0  0  0  0  0  0  0  0
   -0.4604  -52.2028  -26.6116 C   0  0  0  0  0  0  0  0  0  0  0  0
 12 13  1  0  0  0
 13 14  2  0  0  0
 13 11  1  0  0  0
 11 10  1  0  0  0
 10  8  1  0  0  0
  8  1  1  0  0  0
  1  2  2  0  0  0
  2  3  1  0  0  0
  2  4  1  0  0  0
  4  5  2  0  0  0
  5  6  1  0  0  0
  6  7  2  0  0  0
  7 16  1  0  0  0
 16 18  1  0  0  0
 18 19  2  0  0  0
 19 20  1  0  0  0
 20 21  2  0  0  0
 21 22  1  0  0  0
 22 23  2  0  0  0
 23 24  1  0  0  0
 24 25  2  0  0  0
 25 26  1  0  0  0
 26 27  2  0  0  0
  7  1  1  0  0  0
 27 18  1  0  0  0
 27 22  1  0  0  0
 12 15  1  0  0  0
  8  9  1  0  0  0
 16 17  1  0  0  0
M  END
> <minimizedAffinity>
-7.51948

> <CNNscore>
0.4609498382

> <CNNaffinity>
6.3777933121

> <CNN_VS>
2.9398427010

> <CNNaffinity_variance>
0.1083359867

$$$$
[H]OC(=O)C([H])([H])C([H])([H])N([H])c1c(Br)c([H])c([H])c([H])c1N([H])c1nc([H])nc2c([H])c([H])nc([H])c12


 27 29  0  0  0  0  0  0  0  0999 V2000
    2.9757  -50.5690  -21.5613 C   0  0  0  0  0  0  0  0  0  0  0  0
    4.1407  -50.1786  -20.9987 C   0  0  0  0  0  0  0  0  0  0  0  0
    5.7933  -50.1381  -21.9458 Br  0  0  0  0  0  0  0  0  0  0  0  0
    4.1402  -49.7320  -19.6753 C   0  0  0  0  0  0  0  0  0  0  0  0
    2.9775  -49.6908  -18.9667 C   0  0  0  0  0  0  0  0  0  0  0  0
    1.7940  -50.1064  -19.6040 C   0  0  0  0  0  0  0  0  0  0  0  0
    1.7375  -50.5493  -20.8855 C   0  0  0  0  0  0  0  0  0  0  0  0
    2.9464  -51.0910  -22.8805 N   0  0  0  0  0  0  0  0  0  0  0  0
    2.8496  -52.1437  -23.0406 H   0  0  0  0  0  0  0  0  0  0  0  0
    3.0494  -50.1734  -23.9886 C   0  0  0  0  0  0  0  0  0  0  0  0
    2.8617  -50.8662  -25.2928 C   0  0  0  0  0  0  0  0  0  0  0  0
    2.8963  -53.3103  -25.7002 O   0  0  0  0  0  0  0  0  0  0  0  0
    3.5687  -52.2089  -25.2195 C   0  0  0  0  0  0  0  0  0  0  0  0
    4.7214  -52.3137  -24.7399 O   0  0  0  0  0  0  0  0  0  0  0  0
    2.5425  -53.2438  -26.6615 H   0  0  0  0  0  0  0  0  0  0  0  0
    0.5944  -50.9199  -21.5735 N   0  0  0  0  0  0  0  0  0  0  0  0
    0.2152  -50.2240  -22.2866 H   0  0  0  0  0  0  0  0  0  0  0  0
   -0.1399  -52.1185  -21.4154 C   0  0  0  0  0  0  0  0  0  0  0  0
   -0.6971  -52.5316  -20.2754 N   0  0  0  0  0  0  0  0  0  0  0  0
   -1.3816  -53.6527  -20.0606 C   0  0  0  0  0  0  0  0  0  0  0  0
   -1.5513  -54.4834  -21.0756 N   0  0  0  0  0  0  0  0  0  0  0  0
   -1.0302  -54.1732  -22.2892 C   0  0  0  0  0  0  0  0  0  0  0  0
   -1.2237  -55.0612  -23.3349 C   0  0  0  0  0  0  0  0  0  0  0  0
   -0.7112  -54.7820  -24.5806 C   0  0  0  0  0  0  0  0  0  0  0  0
   -0.0219  -53.6363  -24.7650 N   0  0  0  0  0  0  0  0  0  0  0  0
    0.1827  -52.7423  -23.7470 C   0  0  0  0  0  0  0  0  0  0  0  0
   -0.3170  -52.9973  -22.4985 C   0  0  0  0  0  0  0  0  0  0  0  0
 12 13  1  0  0  0
 13 14  2  0  0  0
 13 11  1  0  0  0
 11 10  1  0  0  0
 10  8  1  0  0  0
  8  1  1  0  0  0
  1  2  2  0  0  0
  2  3  1  0  0  0
  2  4  1  0  0  0
  4  5  2  0  0  0
  5  6  1  0  0  0
  6  7  2  0  0  0
  7 16  1  0  0  0
 16 18  1  0  0  0
 18 19  2  0  0  0
 19 20  1  0  0  0
 20 21  2  0  0  0
 21 22  1  0  0  0
 22 23  2  0  0  0
 23 24  1  0  0  0
 24 25  2  0  0  0
 25 26  1  0  0  0
 26 27  2  0  0  0
  7  1  1  0  0  0
 27 18  1  0  0  0
 27 22  1  0  0  0
 12 15  1  0  0  0
  8  9  1  0  0  0
 16 17  1  0  0  0
M  END
> <minimizedAffinity>
-5.91343

> <CNNscore>
0.4597172439

> <CNNaffinity>
6.1334919930

> <CNN_VS>
2.8196721077

> <CNNaffinity_variance>
0.0993862078

$$$$
[H]OC(=O)C([H])([H])C([H])([H])N([H])c1c(Br)c([H])c([H])c([H])c1N([H])c1nc([H])nc2c([H])c([H])nc([H])c12


 27 29  0  0  0  0  0  0  0  0999 V2000
    0.1757  -52.1595  -22.0257 C   0  0  0  0  0  0  0  0  0  0  0  0
   -0.0951  -52.8997  -20.9280 C   0  0  0  0  0  0  0  0  0  0  0  0
    0.0927  -52.2366  -19.1518 Br  0  0  0  0  0  0  0  0  0  0  0  0
   -0.5858  -54.1976  -21.0877 C   0  0  0  0  0  0  0  0  0  0  0  0
   -0.7885  -54.7046  -22.3357 C   0  0  0  0  0  0  0  0  0  0  0  0
   -0.4921  -53.8881  -23.4425 C   0  0  0  0  0  0  0  0  0  0  0  0
   -0.0134  -52.6221  -23.3450 C   0  0  0  0  0  0  0  0  0  0  0  0
    0.7375  -50.8620  -21.9052 N   0  0  0  0  0  0  0  0  0  0  0  0
    0.1246  -49.9959  -22.0364 H   0  0  0  0  0  0  0  0  0  0  0  0
    2.1431  -50.7435  -21.6041 C   0  0  0  0  0  0  0  0  0  0  0  0
    2.8046  -49.7271  -22.4674 C   0  0  0  0  0  0  0  0  0  0  0  0
    3.3405  -51.8216  -23.6784 O   0  0  0  0  0  0  0  0  0  0  0  0
    3.4339  -50.4481  -23.6472 C   0  0  0  0  0  0  0  0  0  0  0  0
    4.0175  -49.8191  -24.5602 O   0  0  0  0  0  0  0  0  0  0  0  0
    2.3963  -52.2156  -23.5940 H   0  0  0  0  0  0  0  0  0  0  0  0
    0.2447  -51.7615  -24.3986 N   0  0  0  0  0  0  0  0  0  0  0  0
    0.2225  -50.7175  -24.1838 H   0  0  0  0  0  0  0  0  0  0  0  0
    0.5144  -52.1199  -25.7402 C   0  0  0  0  0  0  0  0  0  0  0  0
    1.7302  -52.3328  -26.2473 N   0  0  0  0  0  0  0  0  0  0  0  0
    2.0477  -52.6535  -27.4995 C   0  0  0  0  0  0  0  0  0  0  0  0
    1.0669  -52.7863  -28.3766 N   0  0  0  0  0  0  0  0  0  0  0  0
   -0.2164  -52.5946  -27.9804 C   0  0  0  0  0  0  0  0  0  0  0  0
   -1.2240  -52.7408  -28.9200 C   0  0  0  0  0  0  0  0  0  0  0  0
   -2.5378  -52.5551  -28.5569 C   0  0  0  0  0  0  0  0  0  0  0  0
   -2.8260  -52.2307  -27.2788 N   0  0  0  0  0  0  0  0  0  0  0  0
   -1.8475  -52.0805  -26.3314 C   0  0  0  0  0  0  0  0  0  0  0  0
   -0.5328  -52.2597  -26.6678 C   0  0  0  0  0  0  0  0  0  0  0  0
 12 13  1  0  0  0
 13 14  2  0  0  0
 13 11  1  0  0  0
 11 10  1  0  0  0
 10  8  1  0  0  0
  8  1  1  0  0  0
  1  2  2  0  0  0
  2  3  1  0  0  0
  2  4  1  0  0  0
  4  5  2  0  0  0
  5  6  1  0  0  0
  6  7  2  0  0  0
  7 16  1  0  0  0
 16 18  1  0  0  0
 18 19  2  0  0  0
 19 20  1  0  0  0
 20 21  2  0  0  0
 21 22  1  0  0  0
 22 23  2  0  0  0
 23 24  1  0  0  0
 24 25  2  0  0  0
 25 26  1  0  0  0
 26 27  2  0  0  0
  7  1  1  0  0  0
 27 18  1  0  0  0
 27 22  1  0  0  0
 12 15  1  0  0  0
  8  9  1  0  0  0
 16 17  1  0  0  0
M  END
> <minimizedAffinity>
-7.48094

> <CNNscore>
0.4483948052

> <CNNaffinity>
6.2052435875

> <CNN_VS>
2.7823989391

> <CNNaffinity_variance>
0.3757751882

$$$$
[H]OC(=O)C([H])([H])C([H])([H])N([H])c1c(Br)c([H])c([H])c([H])c1N([H])c1nc([H])nc2c([H])c([H])nc([H])c12


 27 29  0  0  0  0  0  0  0  0999 V2000
    1.1891  -52.9915  -25.7336 C   0  0  0  0  0  0  0  0  0  0  0  0
    0.7061  -53.0532  -26.9942 C   0  0  0  0  0  0  0  0  0  0  0  0
    1.7669  -53.5620  -28.4928 Br  0  0  0  0  0  0  0  0  0  0  0  0
   -0.6459  -52.7835  -27.2178 C   0  0  0  0  0  0  0  0  0  0  0  0
   -1.4626  -52.4651  -26.1750 C   0  0  0  0  0  0  0  0  0  0  0  0
   -0.9063  -52.4185  -24.8836 C   0  0  0  0  0  0  0  0  0  0  0  0
    0.3988  -52.6705  -24.6100 C   0  0  0  0  0  0  0  0  0  0  0  0
    2.5696  -53.1936  -25.4751 N   0  0  0  0  0  0  0  0  0  0  0  0
    2.9507  -54.1817  -25.3285 H   0  0  0  0  0  0  0  0  0  0  0  0
    3.4368  -52.0424  -25.4159 C   0  0  0  0  0  0  0  0  0  0  0  0
    2.7568  -50.8179  -25.9200 C   0  0  0  0  0  0  0  0  0  0  0  0
    4.9493  -49.6654  -25.8455 O   0  0  0  0  0  0  0  0  0  0  0  0
    3.8054  -49.9282  -26.5656 C   0  0  0  0  0  0  0  0  0  0  0  0
    3.6386  -49.4493  -27.7113 O   0  0  0  0  0  0  0  0  0  0  0  0
    5.4654  -50.4815  -25.4972 H   0  0  0  0  0  0  0  0  0  0  0  0
    0.9829  -52.6884  -23.3546 N   0  0  0  0  0  0  0  0  0  0  0  0
    1.4229  -53.6077  -23.0417 H   0  0  0  0  0  0  0  0  0  0  0  0
    1.0397  -51.6194  -22.4300 C   0  0  0  0  0  0  0  0  0  0  0  0
    1.4814  -50.3905  -22.7049 N   0  0  0  0  0  0  0  0  0  0  0  0
    1.5754  -49.3526  -21.8769 C   0  0  0  0  0  0  0  0  0  0  0  0
    1.1944  -49.5203  -20.6217 N   0  0  0  0  0  0  0  0  0  0  0  0
    0.7254  -50.7283  -20.2198 C   0  0  0  0  0  0  0  0  0  0  0  0
    0.3327  -50.8756  -18.8993 C   0  0  0  0  0  0  0  0  0  0  0  0
   -0.1487  -52.0848  -18.4538 C   0  0  0  0  0  0  0  0  0  0  0  0
   -0.2314  -53.1174  -19.3191 N   0  0  0  0  0  0  0  0  0  0  0  0
    0.1506  -52.9966  -20.6294 C   0  0  0  0  0  0  0  0  0  0  0  0
    0.6329  -51.8041  -21.0969 C   0  0  0  0  0  0  0  0  0  0  0  0
 12 13  1  0  0  0
 13 14  2  0  0  0
 13 11  1  0  0  0
 11 10  1  0  0  0
 10  8  1  0  0  0
  8  1  1  0  0  0
  1  2  2  0  0  0
  2  3  1  0  0  0
  2  4  1  0  0  0
  4  5  2  0  0  0
  5  6  1  0  0  0
  6  7  2  0  0  0
  7 16  1  0  0  0
 16 18  1  0  0  0
 18 19  2  0  0  0
 19 20  1  0  0  0
 20 21  2  0  0  0
 21 22  1  0  0  0
 22 23  2  0  0  0
 23 24  1  0  0  0
 24 25  2  0  0  0
 25 26  1  0  0  0
 26 27  2  0  0  0
  7  1  1  0  0  0
 27 18  1  0  0  0
 27 22  1  0  0  0
 12 15  1  0  0  0
  8  9  1  0  0  0
 16 17  1  0  0  0
M  END
> <minimizedAffinity>
-6.33823

> <CNNscore>
0.4179533720

> <CNNaffinity>
6.2696037292

> <CNN_VS>
2.6204020977

> <CNNaffinity_variance>
0.2143843919

$$$$
[H]OC(=O)C([H])([H])C([H])([H])N([H])c1c(Br)c([H])c([H])c([H])c1N([H])c1nc([H])nc2c([H])c([H])nc([H])c12


 27 29  0  0  0  0  0  0  0  0999 V2000
    2.9940  -50.9822  -23.5438 C   0  0  0  0  0  0  0  0  0  0  0  0
    4.0468  -51.2264  -24.3551 C   0  0  0  0  0  0  0  0  0  0  0  0
    5.6468  -50.1926  -24.3259 Br  0  0  0  0  0  0  0  0  0  0  0  0
    3.9946  -52.3169  -25.2264 C   0  0  0  0  0  0  0  0  0  0  0  0
    2.8954  -53.1211  -25.2522 C   0  0  0  0  0  0  0  0  0  0  0  0
    1.8301  -52.8212  -24.3835 C   0  0  0  0  0  0  0  0  0  0  0  0
    1.8278  -51.7755  -23.5184 C   0  0  0  0  0  0  0  0  0  0  0  0
    2.9820  -49.8464  -22.6932 N   0  0  0  0  0  0  0  0  0  0  0  0
    2.5574  -48.9253  -23.0313 H   0  0  0  0  0  0  0  0  0  0  0  0
    3.5520  -49.9660  -21.3736 C   0  0  0  0  0  0  0  0  0  0  0  0
    3.1911  -48.8057  -20.5137 C   0  0  0  0  0  0  0  0  0  0  0  0
    2.6466  -47.0191  -22.1424 O   0  0  0  0  0  0  0  0  0  0  0  0
    2.1707  -47.9642  -21.2612 C   0  0  0  0  0  0  0  0  0  0  0  0
    0.9403  -48.1218  -21.0846 O   0  0  0  0  0  0  0  0  0  0  0  0
    3.2983  -47.3544  -22.8612 H   0  0  0  0  0  0  0  0  0  0  0  0
    0.8298  -51.4681  -22.6091 N   0  0  0  0  0  0  0  0  0  0  0  0
    0.6477  -50.4338  -22.4258 H   0  0  0  0  0  0  0  0  0  0  0  0
    0.0373  -52.3834  -21.8776 C   0  0  0  0  0  0  0  0  0  0  0  0
   -0.6239  -53.4163  -22.4036 N   0  0  0  0  0  0  0  0  0  0  0  0
   -1.3965  -54.2977  -21.7729 C   0  0  0  0  0  0  0  0  0  0  0  0
   -1.5522  -54.1671  -20.4661 N   0  0  0  0  0  0  0  0  0  0  0  0
   -0.9286  -53.1531  -19.8154 C   0  0  0  0  0  0  0  0  0  0  0  0
   -1.1088  -53.0405  -18.4463 C   0  0  0  0  0  0  0  0  0  0  0  0
   -0.4929  -52.0259  -17.7508 C   0  0  0  0  0  0  0  0  0  0  0  0
    0.2843  -51.1487  -18.4204 N   0  0  0  0  0  0  0  0  0  0  0  0
    0.4780  -51.2390  -19.7738 C   0  0  0  0  0  0  0  0  0  0  0  0
   -0.1240  -52.2394  -20.4884 C   0  0  0  0  0  0  0  0  0  0  0  0
 12 13  1  0  0  0
 13 14  2  0  0  0
 13 11  1  0  0  0
 11 10  1  0  0  0
 10  8  1  0  0  0
  8  1  1  0  0  0
  1  2  2  0  0  0
  2  3  1  0  0  0
  2  4  1  0  0  0
  4  5  2  0  0  0
  5  6  1  0  0  0
  6  7  2  0  0  0
  7 16  1  0  0  0
 16 18  1  0  0  0
 18 19  2  0  0  0
 19 20  1  0  0  0
 20 21  2  0  0  0
 21 22  1  0  0  0
 22 23  2  0  0  0
 23 24  1  0  0  0
 24 25  2  0  0  0
 25 26  1  0  0  0
 26 27  2  0  0  0
  7  1  1  0  0  0
 27 18  1  0  0  0
 27 22  1  0  0  0
 12 15  1  0  0  0
  8  9  1  0  0  0
 16 17  1  0  0  0
M  END
> <minimizedAffinity>
-5.96007

> <CNNscore>
0.4027415514

> <CNNaffinity>
6.0006585121

> <CNN_VS>
2.4167144299

> <CNNaffinity_variance>
0.2188423872

$$$$
[H]OC(=O)C([H])([H])C([H])([H])N([H])c1c(Br)c([H])c([H])c([H])c1N([H])c1nc([H])nc2c([H])c([H])nc([H])c12


 27 29  0  0  0  0  0  0  0  0999 V2000
    2.3042  -52.1239  -24.2306 C   0  0  0  0  0  0  0  0  0  0  0  0
    3.3770  -52.3925  -25.0072 C   0  0  0  0  0  0  0  0  0  0  0  0
    3.2378  -52.8860  -26.8422 Br  0  0  0  0  0  0  0  0  0  0  0  0
    4.6579  -52.2564  -24.4672 C   0  0  0  0  0  0  0  0  0  0  0  0
    4.8176  -51.8560  -23.1750 C   0  0  0  0  0  0  0  0  0  0  0  0
    3.6653  -51.5872  -22.4138 C   0  0  0  0  0  0  0  0  0  0  0  0
    2.3988  -51.7036  -22.8873 C   0  0  0  0  0  0  0  0  0  0  0  0
    0.9868  -52.3143  -24.7225 N   0  0  0  0  0  0  0  0  0  0  0  0
    0.4260  -53.1790  -24.4381 H   0  0  0  0  0  0  0  0  0  0  0  0
    0.4298  -51.3207  -25.6073 C   0  0  0  0  0  0  0  0  0  0  0  0
   -0.6890  -51.8746  -26.4182 C   0  0  0  0  0  0  0  0  0  0  0  0
   -1.3274  -53.8198  -25.0218 O   0  0  0  0  0  0  0  0  0  0  0  0
   -0.7417  -53.3751  -26.1860 C   0  0  0  0  0  0  0  0  0  0  0  0
   -0.2703  -54.1813  -27.0213 O   0  0  0  0  0  0  0  0  0  0  0  0
   -2.2792  -53.4842  -24.8342 H   0  0  0  0  0  0  0  0  0  0  0  0
    1.2365  -51.4025  -22.1975 N   0  0  0  0  0  0  0  0  0  0  0  0
    0.9526  -50.3756  -22.1581 H   0  0  0  0  0  0  0  0  0  0  0  0
    0.3933  -52.3126  -21.5181 C   0  0  0  0  0  0  0  0  0  0  0  0
   -0.2006  -53.3698  -22.0750 N   0  0  0  0  0  0  0  0  0  0  0  0
   -1.0152  -54.2482  -21.4949 C   0  0  0  0  0  0  0  0  0  0  0  0
   -1.2935  -54.0872  -20.2121 N   0  0  0  0  0  0  0  0  0  0  0  0
   -0.7484  -53.0462  -19.5341 C   0  0  0  0  0  0  0  0  0  0  0  0
   -1.0566  -52.9020  -18.1910 C   0  0  0  0  0  0  0  0  0  0  0  0
   -0.5233  -51.8595  -17.4692 C   0  0  0  0  0  0  0  0  0  0  0  0
    0.2995  -50.9862  -18.0874 N   0  0  0  0  0  0  0  0  0  0  0  0
    0.6194  -51.1075  -19.4142 C   0  0  0  0  0  0  0  0  0  0  0  0
    0.1015  -52.1360  -20.1541 C   0  0  0  0  0  0  0  0  0  0  0  0
 12 13  1  0  0  0
 13 14  2  0  0  0
 13 11  1  0  0  0
 11 10  1  0  0  0
 10  8  1  0  0  0
  8  1  1  0  0  0
  1  2  2  0  0  0
  2  3  1  0  0  0
  2  4  1  0  0  0
  4  5  2  0  0  0
  5  6  1  0  0  0
  6  7  2  0  0  0
  7 16  1  0  0  0
 16 18  1  0  0  0
 18 19  2  0  0  0
 19 20  1  0  0  0
 20 21  2  0  0  0
 21 22  1  0  0  0
 22 23  2  0  0  0
 23 24  1  0  0  0
 24 25  2  0  0  0
 25 26  1  0  0  0
 26 27  2  0  0  0
  7  1  1  0  0  0
 27 18  1  0  0  0
 27 22  1  0  0  0
 12 15  1  0  0  0
  8  9  1  0  0  0
 16 17  1  0  0  0
M  END
> <minimizedAffinity>
-6.71533

> <CNNscore>
0.3991750479

> <CNNaffinity>
6.3138413429

> <CNN_VS>
2.5203278065

> <CNNaffinity_variance>
0.0657036602

$$$$
[H]OC(=O)C([H])([H])C([H])([H])N([H])c1c(Br)c([H])c([H])c([H])c1N([H])c1nc([H])nc2c([H])c([H])nc([H])c12


 27 29  0  0  0  0  0  0  0  0999 V2000
    1.1691  -51.0034  -22.9070 C   0  0  0  0  0  0  0  0  0  0  0  0
    1.5827  -49.9242  -22.2065 C   0  0  0  0  0  0  0  0  0  0  0  0
    0.9579  -49.5179  -20.4531 Br  0  0  0  0  0  0  0  0  0  0  0  0
    2.5523  -49.0854  -22.7605 C   0  0  0  0  0  0  0  0  0  0  0  0
    3.0721  -49.3575  -23.9900 C   0  0  0  0  0  0  0  0  0  0  0  0
    2.6065  -50.4961  -24.6728 C   0  0  0  0  0  0  0  0  0  0  0  0
    1.6669  -51.3437  -24.1823 C   0  0  0  0  0  0  0  0  0  0  0  0
    0.1388  -51.8413  -22.4070 N   0  0  0  0  0  0  0  0  0  0  0  0
   -0.8842  -51.6314  -22.6362 H   0  0  0  0  0  0  0  0  0  0  0  0
    0.5042  -52.9723  -21.5898 C   0  0  0  0  0  0  0  0  0  0  0  0
   -0.6766  -53.8196  -21.2676 C   0  0  0  0  0  0  0  0  0  0  0  0
   -2.1306  -55.4514  -22.4356 O   0  0  0  0  0  0  0  0  0  0  0  0
   -1.0688  -54.5791  -22.5236 C   0  0  0  0  0  0  0  0  0  0  0  0
   -0.4507  -54.4198  -23.6018 O   0  0  0  0  0  0  0  0  0  0  0  0
   -3.0081  -55.0648  -22.0691 H   0  0  0  0  0  0  0  0  0  0  0  0
    1.2134  -52.5024  -24.7897 N   0  0  0  0  0  0  0  0  0  0  0  0
    0.9458  -53.3097  -24.1468 H   0  0  0  0  0  0  0  0  0  0  0  0
    1.0872  -52.7388  -26.1786 C   0  0  0  0  0  0  0  0  0  0  0  0
    2.0923  -53.0574  -26.9966 N   0  0  0  0  0  0  0  0  0  0  0  0
    2.0397  -53.2735  -28.3089 C   0  0  0  0  0  0  0  0  0  0  0  0
    0.8669  -53.1693  -28.9111 N   0  0  0  0  0  0  0  0  0  0  0  0
   -0.2331  -52.8496  -28.1842 C   0  0  0  0  0  0  0  0  0  0  0  0
   -1.4489  -52.7477  -28.8407 C   0  0  0  0  0  0  0  0  0  0  0  0
   -2.5871  -52.4261  -28.1383 C   0  0  0  0  0  0  0  0  0  0  0  0
   -2.4995  -52.2132  -26.8083 N   0  0  0  0  0  0  0  0  0  0  0  0
   -1.3091  -52.3082  -26.1366 C   0  0  0  0  0  0  0  0  0  0  0  0
   -0.1625  -52.6266  -26.8129 C   0  0  0  0  0  0  0  0  0  0  0  0
 12 13  1  0  0  0
 13 14  2  0  0  0
 13 11  1  0  0  0
 11 10  1  0  0  0
 10  8  1  0  0  0
  8  1  1  0  0  0
  1  2  2  0  0  0
  2  3  1  0  0  0
  2  4  1  0  0  0
  4  5  2  0  0  0
  5  6  1  0  0  0
  6  7  2  0  0  0
  7 16  1  0  0  0
 16 18  1  0  0  0
 18 19  2  0  0  0
 19 20  1  0  0  0
 20 21  2  0  0  0
 21 22  1  0  0  0
 22 23  2  0  0  0
 23 24  1  0  0  0
 24 25  2  0  0  0
 25 26  1  0  0  0
 26 27  2  0  0  0
  7  1  1  0  0  0
 27 18  1  0  0  0
 27 22  1  0  0  0
 12 15  1  0  0  0
  8  9  1  0  0  0
 16 17  1  0  0  0
M  END
> <minimizedAffinity>
-7.70591

> <CNNscore>
0.3274036050

> <CNNaffinity>
6.3715028763

> <CNN_VS>
2.0860528946

> <CNNaffinity_variance>
0.0816184506

$$$$
[H]/C(C(=O)N1C([H])([H])c2sc3nc([H])nc(N([H])c4c([H])c([H])c(Cl)c(Cl)c4[H])c3c2C([H])([H])C1([H])[H])=C(/[H])C([H])([H])N([H])C12C([H])([H])C3([H])C([H])([H])C([H])(C([H])([H])C([H])(C3([H])[H])C1([H])[H])C2([H])[H]


 40 46  0  0  0  0  0  0  0  0999 V2000
   -0.3187  -52.8131  -23.2501 C   0  0  0  0  0  0  0  0  0  0  0  0
   -0.7570  -54.0079  -23.7205 N   0  0  0  0  0  0  0  0  0  0  0  0
   -1.1171  -55.0608  -23.0105 C   0  0  0  0  0  0  0  0  0  0  0  0
   -1.0366  -54.9217  -21.6843 N   0  0  0  0  0  0  0  0  0  0  0  0
   -0.6031  -53.7467  -21.1313 C   0  0  0  0  0  0  0  0  0  0  0  0
   -0.3849  -53.2708  -19.5016 S   0  0  0  0  0  0  0  0  0  0  0  0
    0.1691  -51.7213  -19.7329 C   0  0  0  0  0  0  0  0  0  0  0  0
    0.6366  -50.5759  -18.8611 C   0  0  0  0  0  0  0  0  0  0  0  0
    1.9411  -50.1935  -19.4011 N   0  0  0  0  0  0  0  0  0  0  0  0
    2.0837  -50.0770  -20.8158 C   0  0  0  0  0  0  0  0  0  0  0  0
    0.6656  -50.1730  -21.4416 C   0  0  0  0  0  0  0  0  0  0  0  0
    0.1874  -51.5581  -21.1303 C   0  0  0  0  0  0  0  0  0  0  0  0
   -0.2223  -52.6356  -21.8509 C   0  0  0  0  0  0  0  0  0  0  0  0
    2.9827  -49.9476  -18.5102 C   0  0  0  0  0  0  0  0  0  0  0  0
    2.5812  -50.0342  -17.2560 O   0  0  0  0  0  0  0  0  0  0  0  0
   -0.0406  -51.8222  -24.2090 N   0  0  0  0  0  0  0  0  0  0  0  0
    0.1731  -50.8631  -23.9444 H   0  0  0  0  0  0  0  0  0  0  0  0
   -0.2712  -52.9950  -29.9698 Cl  0  0  0  0  0  0  0  0  0  0  0  0
   -0.2037  -52.6354  -28.2584 C   0  0  0  0  0  0  0  0  0  0  0  0
    1.0212  -52.5378  -27.6701 C   0  0  0  0  0  0  0  0  0  0  0  0
    1.1020  -52.2525  -26.3106 C   0  0  0  0  0  0  0  0  0  0  0  0
   -0.0467  -52.0796  -25.6046 C   0  0  0  0  0  0  0  0  0  0  0  0
   -1.2899  -52.1829  -26.2240 C   0  0  0  0  0  0  0  0  0  0  0  0
   -1.3943  -52.4646  -27.5718 C   0  0  0  0  0  0  0  0  0  0  0  0
   -2.9465  -52.5979  -28.3666 Cl  0  0  0  0  0  0  0  0  0  0  0  0
    4.3647  -49.6297  -18.7184 C   0  0  0  0  0  0  0  0  0  0  0  0
    4.9566  -48.5010  -18.9159 C   0  0  0  0  0  0  0  0  0  0  0  0
    6.4608  -48.4949  -19.1031 C   0  0  0  0  0  0  0  0  0  0  0  0
    6.7004  -47.7480  -20.3084 N   0  0  0  0  0  0  0  0  0  0  0  0
    6.0607  -46.9392  -20.4297 H   0  0  0  0  0  0  0  0  0  0  0  0
    6.6573  -48.5386  -21.5070 C   0  0  0  0  0  0  0  0  0  0  0  0
    6.8537  -50.0013  -21.2267 C   0  0  0  0  0  0  0  0  0  0  0  0
    6.6368  -50.8101  -22.4693 C   0  0  0  0  0  0  0  0  0  0  0  0
    7.6285  -50.4052  -23.5114 C   0  0  0  0  0  0  0  0  0  0  0  0
    7.4533  -48.9286  -23.7892 C   0  0  0  0  0  0  0  0  0  0  0  0
    6.0507  -48.7340  -24.3493 C   0  0  0  0  0  0  0  0  0  0  0  0
    5.0404  -49.1812  -23.3198 C   0  0  0  0  0  0  0  0  0  0  0  0
    5.2215  -50.6399  -22.9681 C   0  0  0  0  0  0  0  0  0  0  0  0
    5.2461  -48.3627  -22.0830 C   0  0  0  0  0  0  0  0  0  0  0  0
    7.6253  -48.1008  -22.5553 C   0  0  0  0  0  0  0  0  0  0  0  0
 18 19  1  0  0  0
 19 20  2  0  0  0
 20 21  1  0  0  0
 21 22  2  0  0  0
 22 16  1  0  0  0
 16  1  1  0  0  0
  1  2  1  0  0  0
  2  3  2  0  0  0
  3  4  1  0  0  0
  4  5  2  0  0  0
  5  6  1  0  0  0
  6  7  1  0  0  0
  7  8  1  0  0  0
  8  9  1  0  0  0
  9 10  1  0  0  0
 10 11  1  0  0  0
 11 12  1  0  0  0
 12 13  1  0  0  0
  9 14  1  0  0  0
 14 15  2  0  0  0
 14 26  1  0  0  0
 26 27  2  0  0  0
 27 28  1  0  0  0
 28 29  1  0  0  0
 29 31  1  0  0  0
 31 32  1  0  0  0
 32 33  1  0  0  0
 33 34  1  0  0  0
 34 35  1  0  0  0
 35 36  1  0  0  0
 36 37  1  0  0  0
 37 38  1  0  0  0
 37 39  1  0  0  0
 35 40  1  0  0  0
 22 23  1  0  0  0
 23 24  2  0  0  0
 24 25  1  0  0  0
 24 19  1  0  0  0
 13  1  2  0  0  0
 39 31  1  0  0  0
 13  5  1  0  0  0
 40 31  1  0  0  0
 12  7  2  0  0  0
 38 33  1  0  0  0
 16 17  1  0  0  0
 29 30  1  0  0  0
M  END
> <minimizedAffinity>
-9.13018

> <CNNscore>
0.6996447444

> <CNNaffinity>
7.9976248741

> <CNN_VS>
5.5954961777

> <CNNaffinity_variance>
0.1611573696

$$$$
[H]/C(C(=O)N1C([H])([H])c2sc3nc([H])nc(N([H])c4c([H])c([H])c(Cl)c(Cl)c4[H])c3c2C([H])([H])C1([H])[H])=C(/[H])C([H])([H])N([H])C12C([H])([H])C3([H])C([H])([H])C([H])(C([H])([H])C([H])(C3([H])[H])C1([H])[H])C2([H])[H]


 40 46  0  0  0  0  0  0  0  0999 V2000
   -0.4206  -52.7922  -23.1352 C   0  0  0  0  0  0  0  0  0  0  0  0
   -0.8898  -53.9991  -23.5405 N   0  0  0  0  0  0  0  0  0  0  0  0
   -1.2062  -55.0287  -22.7776 C   0  0  0  0  0  0  0  0  0  0  0  0
   -1.0419  -54.8499  -21.4639 N   0  0  0  0  0  0  0  0  0  0  0  0
   -0.5723  -53.6602  -20.9752 C   0  0  0  0  0  0  0  0  0  0  0  0
   -0.2510  -53.1362  -19.3778 S   0  0  0  0  0  0  0  0  0  0  0  0
    0.2900  -51.5964  -19.6905 C   0  0  0  0  0  0  0  0  0  0  0  0
    0.8136  -50.4269  -18.8851 C   0  0  0  0  0  0  0  0  0  0  0  0
    2.0821  -50.0657  -19.5175 N   0  0  0  0  0  0  0  0  0  0  0  0
    2.1353  -49.9926  -20.9413 C   0  0  0  0  0  0  0  0  0  0  0  0
    0.6804  -50.1022  -21.4733 C   0  0  0  0  0  0  0  0  0  0  0  0
    0.2204  -51.4756  -21.0906 C   0  0  0  0  0  0  0  0  0  0  0  0
   -0.2358  -52.5728  -21.7509 C   0  0  0  0  0  0  0  0  0  0  0  0
    3.1782  -49.7968  -18.7019 C   0  0  0  0  0  0  0  0  0  0  0  0
    2.8564  -49.8440  -17.4229 O   0  0  0  0  0  0  0  0  0  0  0  0
   -0.2018  -51.8317  -24.1394 N   0  0  0  0  0  0  0  0  0  0  0  0
   -0.0223  -50.8547  -23.9187 H   0  0  0  0  0  0  0  0  0  0  0  0
   -0.0805  -53.0548  -29.8930 Cl  0  0  0  0  0  0  0  0  0  0  0  0
   -0.1167  -52.7018  -28.1793 C   0  0  0  0  0  0  0  0  0  0  0  0
   -1.3212  -52.4272  -27.6050 C   0  0  0  0  0  0  0  0  0  0  0  0
   -1.3769  -52.1435  -26.2440 C   0  0  0  0  0  0  0  0  0  0  0  0
   -0.2246  -52.1470  -25.5228 C   0  0  0  0  0  0  0  0  0  0  0  0
    0.9975  -52.4306  -26.1279 C   0  0  0  0  0  0  0  0  0  0  0  0
    1.0768  -52.7155  -27.4767 C   0  0  0  0  0  0  0  0  0  0  0  0
    2.6021  -53.0741  -28.2534 Cl  0  0  0  0  0  0  0  0  0  0  0  0
    4.5449  -49.4904  -19.0064 C   0  0  0  0  0  0  0  0  0  0  0  0
    5.1555  -48.3611  -19.1290 C   0  0  0  0  0  0  0  0  0  0  0  0
    6.6346  -48.3696  -19.4606 C   0  0  0  0  0  0  0  0  0  0  0  0
    6.7596  -47.6550  -20.7023 N   0  0  0  0  0  0  0  0  0  0  0  0
    6.0941  -46.8633  -20.7945 H   0  0  0  0  0  0  0  0  0  0  0  0
    6.6382  -48.4822  -21.8704 C   0  0  0  0  0  0  0  0  0  0  0  0
    6.8236  -49.9389  -21.5532 C   0  0  0  0  0  0  0  0  0  0  0  0
    6.5260  -50.7824  -22.7553 C   0  0  0  0  0  0  0  0  0  0  0  0
    7.4673  -50.4300  -23.8613 C   0  0  0  0  0  0  0  0  0  0  0  0
    7.3035  -48.9600  -24.1776 C   0  0  0  0  0  0  0  0  0  0  0  0
    5.8765  -48.7561  -24.6685 C   0  0  0  0  0  0  0  0  0  0  0  0
    4.9153  -49.1507  -23.5727 C   0  0  0  0  0  0  0  0  0  0  0  0
    5.0892  -50.6007  -23.1835 C   0  0  0  0  0  0  0  0  0  0  0  0
    5.2015  -48.2975  -22.3760 C   0  0  0  0  0  0  0  0  0  0  0  0
    7.5561  -48.0968  -22.9824 C   0  0  0  0  0  0  0  0  0  0  0  0
 18 19  1  0  0  0
 19 20  2  0  0  0
 20 21  1  0  0  0
 21 22  2  0  0  0
 22 16  1  0  0  0
 16  1  1  0  0  0
  1  2  1  0  0  0
  2  3  2  0  0  0
  3  4  1  0  0  0
  4  5  2  0  0  0
  5  6  1  0  0  0
  6  7  1  0  0  0
  7  8  1  0  0  0
  8  9  1  0  0  0
  9 10  1  0  0  0
 10 11  1  0  0  0
 11 12  1  0  0  0
 12 13  1  0  0  0
  9 14  1  0  0  0
 14 15  2  0  0  0
 14 26  1  0  0  0
 26 27  2  0  0  0
 27 28  1  0  0  0
 28 29  1  0  0  0
 29 31  1  0  0  0
 31 32  1  0  0  0
 32 33  1  0  0  0
 33 34  1  0  0  0
 34 35  1  0  0  0
 35 36  1  0  0  0
 36 37  1  0  0  0
 37 38  1  0  0  0
 37 39  1  0  0  0
 35 40  1  0  0  0
 22 23  1  0  0  0
 23 24  2  0  0  0
 24 25  1  0  0  0
 24 19  1  0  0  0
 13  1  2  0  0  0
 39 31  1  0  0  0
 13  5  1  0  0  0
 40 31  1  0  0  0
 12  7  2  0  0  0
 38 33  1  0  0  0
 16 17  1  0  0  0
 29 30  1  0  0  0
M  END
> <minimizedAffinity>
-8.84253

> <CNNscore>
0.4998253584

> <CNNaffinity>
7.8147468567

> <CNN_VS>
3.9060087204

> <CNNaffinity_variance>
0.2209281176

$$$$
[H]/C(C(=O)N1C([H])([H])c2sc3nc([H])nc(N([H])c4c([H])c([H])c(Cl)c(Cl)c4[H])c3c2C([H])([H])C1([H])[H])=C(/[H])C([H])([H])N([H])C12C([H])([H])C3([H])C([H])([H])C([H])(C([H])([H])C([H])(C3([H])[H])C1([H])[H])C2([H])[H]


 40 46  0  0  0  0  0  0  0  0999 V2000
   -0.2520  -53.2931  -24.1200 C   0  0  0  0  0  0  0  0  0  0  0  0
   -0.6528  -54.5089  -24.5696 N   0  0  0  0  0  0  0  0  0  0  0  0
   -1.0893  -55.5226  -23.8455 C   0  0  0  0  0  0  0  0  0  0  0  0
   -1.1368  -55.3158  -22.5265 N   0  0  0  0  0  0  0  0  0  0  0  0
   -0.7489  -54.1155  -21.9943 C   0  0  0  0  0  0  0  0  0  0  0  0
   -0.6861  -53.5573  -20.3774 S   0  0  0  0  0  0  0  0  0  0  0  0
   -0.0988  -52.0238  -20.6320 C   0  0  0  0  0  0  0  0  0  0  0  0
    0.2916  -50.8368  -19.7781 C   0  0  0  0  0  0  0  0  0  0  0  0
    1.6457  -50.4874  -20.2071 N   0  0  0  0  0  0  0  0  0  0  0  0
    1.9260  -50.4443  -21.6052 C   0  0  0  0  0  0  0  0  0  0  0  0
    0.5746  -50.5671  -22.3606 C   0  0  0  0  0  0  0  0  0  0  0  0
    0.0566  -51.9327  -22.0274 C   0  0  0  0  0  0  0  0  0  0  0  0
   -0.2905  -53.0443  -22.7289 C   0  0  0  0  0  0  0  0  0  0  0  0
    2.5979  -50.1998  -19.2325 C   0  0  0  0  0  0  0  0  0  0  0  0
    2.0756  -50.2204  -18.0207 O   0  0  0  0  0  0  0  0  0  0  0  0
    0.1265  -52.3538  -25.0963 N   0  0  0  0  0  0  0  0  0  0  0  0
   -0.5175  -52.0410  -25.8194 H   0  0  0  0  0  0  0  0  0  0  0  0
    5.5626  -50.1039  -25.1324 Cl  0  0  0  0  0  0  0  0  0  0  0  0
    3.9481  -50.7791  -25.1306 C   0  0  0  0  0  0  0  0  0  0  0  0
    2.9495  -50.0584  -25.7130 C   0  0  0  0  0  0  0  0  0  0  0  0
    1.6569  -50.5733  -25.7250 C   0  0  0  0  0  0  0  0  0  0  0  0
    1.4251  -51.7843  -25.1525 C   0  0  0  0  0  0  0  0  0  0  0  0
    2.4595  -52.5066  -24.5622 C   0  0  0  0  0  0  0  0  0  0  0  0
    3.7499  -52.0157  -24.5392 C   0  0  0  0  0  0  0  0  0  0  0  0
    5.0611  -52.9085  -23.8028 Cl  0  0  0  0  0  0  0  0  0  0  0  0
    3.9962  -49.8981  -19.3209 C   0  0  0  0  0  0  0  0  0  0  0  0
    4.6969  -48.9537  -18.7913 C   0  0  0  0  0  0  0  0  0  0  0  0
    6.1842  -48.9060  -19.0800 C   0  0  0  0  0  0  0  0  0  0  0  0
    6.5195  -47.5103  -19.1677 N   0  0  0  0  0  0  0  0  0  0  0  0
    5.9000  -46.8982  -18.6022 H   0  0  0  0  0  0  0  0  0  0  0  0
    6.5538  -46.9982  -20.5093 C   0  0  0  0  0  0  0  0  0  0  0  0
    6.6673  -48.0944  -21.5301 C   0  0  0  0  0  0  0  0  0  0  0  0
    6.5321  -47.5408  -22.9158 C   0  0  0  0  0  0  0  0  0  0  0  0
    7.6285  -46.5584  -23.1733 C   0  0  0  0  0  0  0  0  0  0  0  0
    7.5364  -45.4582  -22.1394 C   0  0  0  0  0  0  0  0  0  0  0  0
    6.1985  -44.7583  -22.3373 C   0  0  0  0  0  0  0  0  0  0  0  0
    5.0831  -45.7533  -22.1220 C   0  0  0  0  0  0  0  0  0  0  0  0
    5.1751  -46.9034  -23.0981 C   0  0  0  0  0  0  0  0  0  0  0  0
    5.2082  -46.2956  -20.7319 C   0  0  0  0  0  0  0  0  0  0  0  0
    7.6285  -45.9894  -20.7442 C   0  0  0  0  0  0  0  0  0  0  0  0
 18 19  1  0  0  0
 19 20  2  0  0  0
 20 21  1  0  0  0
 21 22  2  0  0  0
 22 16  1  0  0  0
 16  1  1  0  0  0
  1  2  1  0  0  0
  2  3  2  0  0  0
  3  4  1  0  0  0
  4  5  2  0  0  0
  5  6  1  0  0  0
  6  7  1  0  0  0
  7  8  1  0  0  0
  8  9  1  0  0  0
  9 10  1  0  0  0
 10 11  1  0  0  0
 11 12  1  0  0  0
 12 13  1  0  0  0
  9 14  1  0  0  0
 14 15  2  0  0  0
 14 26  1  0  0  0
 26 27  2  0  0  0
 27 28  1  0  0  0
 28 29  1  0  0  0
 29 31  1  0  0  0
 31 32  1  0  0  0
 32 33  1  0  0  0
 33 34  1  0  0  0
 34 35  1  0  0  0
 35 36  1  0  0  0
 36 37  1  0  0  0
 37 38  1  0  0  0
 37 39  1  0  0  0
 35 40  1  0  0  0
 22 23  1  0  0  0
 23 24  2  0  0  0
 24 25  1  0  0  0
 24 19  1  0  0  0
 13  1  2  0  0  0
 39 31  1  0  0  0
 13  5  1  0  0  0
 40 31  1  0  0  0
 12  7  2  0  0  0
 38 33  1  0  0  0
 16 17  1  0  0  0
 29 30  1  0  0  0
M  END
> <minimizedAffinity>
-6.80012

> <CNNscore>
0.1498439461

> <CNNaffinity>
7.1655716896

> <CNN_VS>
1.0737175941

> <CNNaffinity_variance>
0.3387120664

$$$$
[H]/C(C(=O)N1C([H])([H])c2sc3nc([H])nc(N([H])c4c([H])c([H])c(Cl)c(Cl)c4[H])c3c2C([H])([H])C1([H])[H])=C(/[H])C([H])([H])N([H])C12C([H])([H])C3([H])C([H])([H])C([H])(C([H])([H])C([H])(C3([H])[H])C1([H])[H])C2([H])[H]


 40 46  0  0  0  0  0  0  0  0999 V2000
    1.7169  -49.6265  -17.8037 C   0  0  0  0  0  0  0  0  0  0  0  0
    1.4038  -48.7139  -16.8497 N   0  0  0  0  0  0  0  0  0  0  0  0
    0.3723  -48.7427  -16.0266 C   0  0  0  0  0  0  0  0  0  0  0  0
   -0.4457  -49.7908  -16.1575 N   0  0  0  0  0  0  0  0  0  0  0  0
   -0.1987  -50.7552  -17.0974 C   0  0  0  0  0  0  0  0  0  0  0  0
   -1.0468  -52.1839  -17.5087 S   0  0  0  0  0  0  0  0  0  0  0  0
   -0.0774  -52.7426  -18.7373 C   0  0  0  0  0  0  0  0  0  0  0  0
   -0.0736  -53.9175  -19.6914 C   0  0  0  0  0  0  0  0  0  0  0  0
    0.0651  -53.3273  -21.0225 N   0  0  0  0  0  0  0  0  0  0  0  0
    1.0289  -52.2922  -21.2102 C   0  0  0  0  0  0  0  0  0  0  0  0
    1.8925  -52.2135  -19.9219 C   0  0  0  0  0  0  0  0  0  0  0  0
    0.9503  -51.7869  -18.8381 C   0  0  0  0  0  0  0  0  0  0  0  0
    0.8699  -50.7467  -17.9665 C   0  0  0  0  0  0  0  0  0  0  0  0
   -0.7404  -53.8103  -22.0506 C   0  0  0  0  0  0  0  0  0  0  0  0
   -1.4846  -54.8240  -21.6505 O   0  0  0  0  0  0  0  0  0  0  0  0
    2.9025  -49.4011  -18.5264 N   0  0  0  0  0  0  0  0  0  0  0  0
    3.8190  -49.5965  -18.1299 H   0  0  0  0  0  0  0  0  0  0  0  0
    3.1581  -47.1752  -23.9665 Cl  0  0  0  0  0  0  0  0  0  0  0  0
    3.0812  -47.8475  -22.3525 C   0  0  0  0  0  0  0  0  0  0  0  0
    1.8751  -47.8625  -21.7195 C   0  0  0  0  0  0  0  0  0  0  0  0
    1.7872  -48.3918  -20.4357 C   0  0  0  0  0  0  0  0  0  0  0  0
    2.9109  -48.8798  -19.8463 C   0  0  0  0  0  0  0  0  0  0  0  0
    4.1352  -48.8560  -20.5100 C   0  0  0  0  0  0  0  0  0  0  0  0
    4.2459  -48.3362  -21.7844 C   0  0  0  0  0  0  0  0  0  0  0  0
    5.7746  -48.2982  -22.6332 Cl  0  0  0  0  0  0  0  0  0  0  0  0
   -0.8920  -53.4062  -23.4174 C   0  0  0  0  0  0  0  0  0  0  0  0
   -0.6861  -54.0432  -24.5196 C   0  0  0  0  0  0  0  0  0  0  0  0
   -0.9462  -53.3267  -25.8299 C   0  0  0  0  0  0  0  0  0  0  0  0
    0.2842  -53.4089  -26.5699 N   0  0  0  0  0  0  0  0  0  0  0  0
    0.6563  -54.3749  -26.6505 H   0  0  0  0  0  0  0  0  0  0  0  0
    1.3308  -52.5650  -26.0640 C   0  0  0  0  0  0  0  0  0  0  0  0
    2.0964  -53.2202  -24.9499 C   0  0  0  0  0  0  0  0  0  0  0  0
    3.2793  -52.3866  -24.5614 C   0  0  0  0  0  0  0  0  0  0  0  0
    2.8150  -51.0515  -24.0762 C   0  0  0  0  0  0  0  0  0  0  0  0
    2.0261  -50.3888  -25.1836 C   0  0  0  0  0  0  0  0  0  0  0  0
    2.9751  -50.1784  -26.3557 C   0  0  0  0  0  0  0  0  0  0  0  0
    3.4847  -51.5197  -26.8266 C   0  0  0  0  0  0  0  0  0  0  0  0
    4.2282  -52.2431  -25.7275 C   0  0  0  0  0  0  0  0  0  0  0  0
    2.3043  -52.3480  -27.2299 C   0  0  0  0  0  0  0  0  0  0  0  0
    0.8611  -51.2203  -25.6182 C   0  0  0  0  0  0  0  0  0  0  0  0
 18 19  1  0  0  0
 19 20  2  0  0  0
 20 21  1  0  0  0
 21 22  2  0  0  0
 22 16  1  0  0  0
 16  1  1  0  0  0
  1  2  1  0  0  0
  2  3  2  0  0  0
  3  4  1  0  0  0
  4  5  2  0  0  0
  5  6  1  0  0  0
  6  7  1  0  0  0
  7  8  1  0  0  0
  8  9  1  0  0  0
  9 10  1  0  0  0
 10 11  1  0  0  0
 11 12  1  0  0  0
 12 13  1  0  0  0
  9 14  1  0  0  0
 14 15  2  0  0  0
 14 26  1  0  0  0
 26 27  2  0  0  0
 27 28  1  0  0  0
 28 29  1  0  0  0
 29 31  1  0  0  0
 31 32  1  0  0  0
 32 33  1  0  0  0
 33 34  1  0  0  0
 34 35  1  0  0  0
 35 36  1  0  0  0
 36 37  1  0  0  0
 37 38  1  0  0  0
 37 39  1  0  0  0
 35 40  1  0  0  0
 22 23  1  0  0  0
 23 24  2  0  0  0
 24 25  1  0  0  0
 24 19  1  0  0  0
 13  1  2  0  0  0
 39 31  1  0  0  0
 13  5  1  0  0  0
 40 31  1  0  0  0
 12  7  2  0  0  0
 38 33  1  0  0  0
 16 17  1  0  0  0
 29 30  1  0  0  0
M  END
> <minimizedAffinity>
-7.80732

> <CNNscore>
0.1428364366

> <CNNaffinity>
7.4956855774

> <CNN_VS>
1.0706570148

> <CNNaffinity_variance>
0.2122648060

$$$$
[H]/C(C(=O)N1C([H])([H])c2sc3nc([H])nc(N([H])c4c([H])c([H])c(Cl)c(Cl)c4[H])c3c2C([H])([H])C1([H])[H])=C(/[H])C([H])([H])N([H])C12C([H])([H])C3([H])C([H])([H])C([H])(C([H])([H])C([H])(C3([H])[H])C1([H])[H])C2([H])[H]


 40 46  0  0  0  0  0  0  0  0999 V2000
   -0.0591  -52.5194  -22.1254 C   0  0  0  0  0  0  0  0  0  0  0  0
   -0.4513  -53.7878  -21.8453 N   0  0  0  0  0  0  0  0  0  0  0  0
   -0.1245  -54.5084  -20.7888 C   0  0  0  0  0  0  0  0  0  0  0  0
    0.6814  -53.9119  -19.9059 N   0  0  0  0  0  0  0  0  0  0  0  0
    1.1215  -52.6326  -20.1166 C   0  0  0  0  0  0  0  0  0  0  0  0
    2.1480  -51.6187  -19.1958 S   0  0  0  0  0  0  0  0  0  0  0  0
    2.1577  -50.2710  -20.1681 C   0  0  0  0  0  0  0  0  0  0  0  0
    2.8151  -48.9078  -20.1565 C   0  0  0  0  0  0  0  0  0  0  0  0
    3.4630  -48.7858  -21.4622 N   0  0  0  0  0  0  0  0  0  0  0  0
    2.7339  -49.1824  -22.6226 C   0  0  0  0  0  0  0  0  0  0  0  0
    1.2658  -49.4452  -22.1895 C   0  0  0  0  0  0  0  0  0  0  0  0
    1.3313  -50.6135  -21.2541 C   0  0  0  0  0  0  0  0  0  0  0  0
    0.7944  -51.8617  -21.2102 C   0  0  0  0  0  0  0  0  0  0  0  0
    4.7577  -48.2761  -21.5164 C   0  0  0  0  0  0  0  0  0  0  0  0
    5.1828  -47.8997  -20.3251 O   0  0  0  0  0  0  0  0  0  0  0  0
   -0.5832  -51.9419  -23.2961 N   0  0  0  0  0  0  0  0  0  0  0  0
   -1.3262  -51.2473  -23.2667 H   0  0  0  0  0  0  0  0  0  0  0  0
    1.0930  -53.4519  -28.7299 Cl  0  0  0  0  0  0  0  0  0  0  0  0
    0.5959  -52.9921  -27.1161 C   0  0  0  0  0  0  0  0  0  0  0  0
    1.5282  -53.0223  -26.1233 C   0  0  0  0  0  0  0  0  0  0  0  0
    1.1583  -52.6611  -24.8316 C   0  0  0  0  0  0  0  0  0  0  0  0
   -0.1273  -52.2881  -24.5947 C   0  0  0  0  0  0  0  0  0  0  0  0
   -1.0663  -52.2631  -25.6231 C   0  0  0  0  0  0  0  0  0  0  0  0
   -0.7217  -52.6167  -26.9127 C   0  0  0  0  0  0  0  0  0  0  0  0
   -1.8870  -52.5912  -28.2165 Cl  0  0  0  0  0  0  0  0  0  0  0  0
    5.6715  -48.0997  -22.6064 C   0  0  0  0  0  0  0  0  0  0  0  0
    6.1098  -47.0329  -23.1835 C   0  0  0  0  0  0  0  0  0  0  0  0
    7.0900  -47.1804  -24.3304 C   0  0  0  0  0  0  0  0  0  0  0  0
    6.6622  -46.2411  -25.3318 N   0  0  0  0  0  0  0  0  0  0  0  0
    6.3320  -45.3380  -24.9398 H   0  0  0  0  0  0  0  0  0  0  0  0
    5.6473  -46.7456  -26.2143 C   0  0  0  0  0  0  0  0  0  0  0  0
    5.6588  -48.2459  -26.2898 C   0  0  0  0  0  0  0  0  0  0  0  0
    4.4882  -48.7430  -27.0821 C   0  0  0  0  0  0  0  0  0  0  0  0
    4.5644  -48.2126  -28.4771 C   0  0  0  0  0  0  0  0  0  0  0  0
    4.5725  -46.7013  -28.4136 C   0  0  0  0  0  0  0  0  0  0  0  0
    3.2501  -46.2644  -27.7976 C   0  0  0  0  0  0  0  0  0  0  0  0
    3.1431  -46.8316  -26.4021 C   0  0  0  0  0  0  0  0  0  0  0  0
    3.1933  -48.3421  -26.4163 C   0  0  0  0  0  0  0  0  0  0  0  0
    4.3041  -46.3228  -25.6051 C   0  0  0  0  0  0  0  0  0  0  0  0
    5.7097  -46.1798  -27.5940 C   0  0  0  0  0  0  0  0  0  0  0  0
 18 19  1  0  0  0
 19 20  2  0  0  0
 20 21  1  0  0  0
 21 22  2  0  0  0
 22 16  1  0  0  0
 16  1  1  0  0  0
  1  2  1  0  0  0
  2  3  2  0  0  0
  3  4  1  0  0  0
  4  5  2  0  0  0
  5  6  1  0  0  0
  6  7  1  0  0  0
  7  8  1  0  0  0
  8  9  1  0  0  0
  9 10  1  0  0  0
 10 11  1  0  0  0
 11 12  1  0  0  0
 12 13  1  0  0  0
  9 14  1  0  0  0
 14 15  2  0  0  0
 14 26  1  0  0  0
 26 27  2  0  0  0
 27 28  1  0  0  0
 28 29  1  0  0  0
 29 31  1  0  0  0
 31 32  1  0  0  0
 32 33  1  0  0  0
 33 34  1  0  0  0
 34 35  1  0  0  0
 35 36  1  0  0  0
 36 37  1  0  0  0
 37 38  1  0  0  0
 37 39  1  0  0  0
 35 40  1  0  0  0
 22 23  1  0  0  0
 23 24  2  0  0  0
 24 25  1  0  0  0
 24 19  1  0  0  0
 13  1  2  0  0  0
 39 31  1  0  0  0
 13  5  1  0  0  0
 40 31  1  0  0  0
 12  7  2  0  0  0
 38 33  1  0  0  0
 16 17  1  0  0  0
 29 30  1  0  0  0
M  END
> <minimizedAffinity>
-7.55905

> <CNNscore>
0.1379068941

> <CNNaffinity>
7.2772421837

> <CNN_VS>
1.0035818815

> <CNNaffinity_variance>
0.4374886155

$$$$
[H]/C(C(=O)N1C([H])([H])c2sc3nc([H])nc(N([H])c4c([H])c([H])c(Cl)c(Cl)c4[H])c3c2C([H])([H])C1([H])[H])=C(/[H])C([H])([H])N([H])C12C([H])([H])C3([H])C([H])([H])C([H])(C([H])([H])C([H])(C3([H])[H])C1([H])[H])C2([H])[H]


 40 46  0  0  0  0  0  0  0  0999 V2000
   -0.4506  -52.6388  -23.0289 C   0  0  0  0  0  0  0  0  0  0  0  0
   -1.0194  -53.8705  -23.0490 N   0  0  0  0  0  0  0  0  0  0  0  0
   -0.8760  -54.8297  -22.1536 C   0  0  0  0  0  0  0  0  0  0  0  0
   -0.0810  -54.5436  -21.1188 N   0  0  0  0  0  0  0  0  0  0  0  0
    0.5306  -53.3222  -21.0258 C   0  0  0  0  0  0  0  0  0  0  0  0
    1.5923  -52.6701  -19.8522 S   0  0  0  0  0  0  0  0  0  0  0  0
    1.8520  -51.1673  -20.5122 C   0  0  0  0  0  0  0  0  0  0  0  0
    2.6697  -49.9400  -20.1721 C   0  0  0  0  0  0  0  0  0  0  0  0
    3.4370  -49.6457  -21.3821 N   0  0  0  0  0  0  0  0  0  0  0  0
    2.7664  -49.6920  -22.6405 C   0  0  0  0  0  0  0  0  0  0  0  0
    1.2455  -49.8309  -22.3588 C   0  0  0  0  0  0  0  0  0  0  0  0
    1.0855  -51.1629  -21.6921 C   0  0  0  0  0  0  0  0  0  0  0  0
    0.3963  -52.3067  -21.9467 C   0  0  0  0  0  0  0  0  0  0  0  0
    4.7848  -49.3208  -21.2515 C   0  0  0  0  0  0  0  0  0  0  0  0
    5.1498  -49.2579  -19.9848 O   0  0  0  0  0  0  0  0  0  0  0  0
   -0.7971  -51.7677  -24.0776 N   0  0  0  0  0  0  0  0  0  0  0  0
   -1.1997  -50.8496  -23.9029 H   0  0  0  0  0  0  0  0  0  0  0  0
    0.1288  -53.0464  -29.7453 Cl  0  0  0  0  0  0  0  0  0  0  0  0
   -0.1455  -52.6767  -28.0568 C   0  0  0  0  0  0  0  0  0  0  0  0
   -1.4325  -52.5657  -27.6241 C   0  0  0  0  0  0  0  0  0  0  0  0
   -1.6774  -52.2726  -26.2862 C   0  0  0  0  0  0  0  0  0  0  0  0
   -0.6226  -52.1034  -25.4453 C   0  0  0  0  0  0  0  0  0  0  0  0
    0.6864  -52.2213  -25.9065 C   0  0  0  0  0  0  0  0  0  0  0  0
    0.9532  -52.5122  -27.2297 C   0  0  0  0  0  0  0  0  0  0  0  0
    2.5900  -52.6642  -27.8266 Cl  0  0  0  0  0  0  0  0  0  0  0  0
    5.8033  -49.0546  -22.2242 C   0  0  0  0  0  0  0  0  0  0  0  0
    6.2801  -47.9436  -22.6730 C   0  0  0  0  0  0  0  0  0  0  0  0
    7.3762  -47.9956  -23.7188 C   0  0  0  0  0  0  0  0  0  0  0  0
    6.9120  -48.9127  -24.7245 N   0  0  0  0  0  0  0  0  0  0  0  0
    7.6762  -49.4374  -25.1922 H   0  0  0  0  0  0  0  0  0  0  0  0
    6.0962  -48.3068  -25.7397 C   0  0  0  0  0  0  0  0  0  0  0  0
    5.9388  -46.8276  -25.5301 C   0  0  0  0  0  0  0  0  0  0  0  0
    5.2268  -46.2033  -26.6914 C   0  0  0  0  0  0  0  0  0  0  0  0
    3.8613  -46.7965  -26.8209 C   0  0  0  0  0  0  0  0  0  0  0  0
    4.0056  -48.2898  -27.0139 C   0  0  0  0  0  0  0  0  0  0  0  0
    4.7584  -48.5095  -28.3192 C   0  0  0  0  0  0  0  0  0  0  0  0
    6.1251  -47.8756  -28.2149 C   0  0  0  0  0  0  0  0  0  0  0  0
    6.0247  -46.3893  -27.9600 C   0  0  0  0  0  0  0  0  0  0  0  0
    6.8432  -48.5100  -27.0643 C   0  0  0  0  0  0  0  0  0  0  0  0
    4.7491  -48.9324  -25.8863 C   0  0  0  0  0  0  0  0  0  0  0  0
 18 19  1  0  0  0
 19 20  2  0  0  0
 20 21  1  0  0  0
 21 22  2  0  0  0
 22 16  1  0  0  0
 16  1  1  0  0  0
  1  2  1  0  0  0
  2  3  2  0  0  0
  3  4  1  0  0  0
  4  5  2  0  0  0
  5  6  1  0  0  0
  6  7  1  0  0  0
  7  8  1  0  0  0
  8  9  1  0  0  0
  9 10  1  0  0  0
 10 11  1  0  0  0
 11 12  1  0  0  0
 12 13  1  0  0  0
  9 14  1  0  0  0
 14 15  2  0  0  0
 14 26  1  0  0  0
 26 27  2  0  0  0
 27 28  1  0  0  0
 28 29  1  0  0  0
 29 31  1  0  0  0
 31 32  1  0  0  0
 32 33  1  0  0  0
 33 34  1  0  0  0
 34 35  1  0  0  0
 35 36  1  0  0  0
 36 37  1  0  0  0
 37 38  1  0  0  0
 37 39  1  0  0  0
 35 40  1  0  0  0
 22 23  1  0  0  0
 23 24  2  0  0  0
 24 25  1  0  0  0
 24 19  1  0  0  0
 13  1  2  0  0  0
 39 31  1  0  0  0
 13  5  1  0  0  0
 40 31  1  0  0  0
 12  7  2  0  0  0
 38 33  1  0  0  0
 16 17  1  0  0  0
 29 30  1  0  0  0
M  END
> <minimizedAffinity>
-7.49279

> <CNNscore>
0.1193093732

> <CNNaffinity>
7.2426567078

> <CNN_VS>
0.8641168475

> <CNNaffinity_variance>
0.4803218842

$$$$
[H]/C(C(=O)N1C([H])([H])c2sc3nc([H])nc(N([H])c4c([H])c([H])c(Cl)c(Cl)c4[H])c3c2C([H])([H])C1([H])[H])=C(/[H])C([H])([H])N([H])C12C([H])([H])C3([H])C([H])([H])C([H])(C([H])([H])C([H])(C3([H])[H])C1([H])[H])C2([H])[H]


 40 46  0  0  0  0  0  0  0  0999 V2000
    2.1369  -51.6013  -27.0151 C   0  0  0  0  0  0  0  0  0  0  0  0
    3.0166  -51.9010  -28.0037 N   0  0  0  0  0  0  0  0  0  0  0  0
    3.1745  -53.0656  -28.6044 C   0  0  0  0  0  0  0  0  0  0  0  0
    2.3741  -54.0491  -28.1836 N   0  0  0  0  0  0  0  0  0  0  0  0
    1.4596  -53.8268  -27.1893 C   0  0  0  0  0  0  0  0  0  0  0  0
    0.3222  -54.8634  -26.4399 S   0  0  0  0  0  0  0  0  0  0  0  0
   -0.3543  -53.8014  -25.3556 C   0  0  0  0  0  0  0  0  0  0  0  0
   -1.4112  -53.8542  -24.2735 C   0  0  0  0  0  0  0  0  0  0  0  0
   -0.7655  -53.3028  -23.0825 N   0  0  0  0  0  0  0  0  0  0  0  0
    0.0126  -52.1149  -23.2194 C   0  0  0  0  0  0  0  0  0  0  0  0
   -0.2300  -51.5549  -24.6475 C   0  0  0  0  0  0  0  0  0  0  0  0
    0.3243  -52.5892  -25.5787 C   0  0  0  0  0  0  0  0  0  0  0  0
    1.2767  -52.6214  -26.5482 C   0  0  0  0  0  0  0  0  0  0  0  0
   -0.9491  -53.9542  -21.8655 C   0  0  0  0  0  0  0  0  0  0  0  0
   -1.7781  -54.9746  -21.9798 O   0  0  0  0  0  0  0  0  0  0  0  0
    2.1227  -50.2679  -26.5673 N   0  0  0  0  0  0  0  0  0  0  0  0
    1.4309  -49.5978  -26.8958 H   0  0  0  0  0  0  0  0  0  0  0  0
    6.0094  -48.3426  -22.5921 Cl  0  0  0  0  0  0  0  0  0  0  0  0
    4.8614  -48.9167  -23.7818 C   0  0  0  0  0  0  0  0  0  0  0  0
    4.1829  -47.9930  -24.5181 C   0  0  0  0  0  0  0  0  0  0  0  0
    3.2647  -48.4237  -25.4707 C   0  0  0  0  0  0  0  0  0  0  0  0
    3.0686  -49.7582  -25.6402 C   0  0  0  0  0  0  0  0  0  0  0  0
    3.7724  -50.6875  -24.8779 C   0  0  0  0  0  0  0  0  0  0  0  0
    4.6888  -50.2832  -23.9274 C   0  0  0  0  0  0  0  0  0  0  0  0
    5.5817  -51.4355  -22.9612 Cl  0  0  0  0  0  0  0  0  0  0  0  0
   -0.4088  -53.7126  -20.5601 C   0  0  0  0  0  0  0  0  0  0  0  0
   -0.7209  -52.8450  -19.6585 C   0  0  0  0  0  0  0  0  0  0  0  0
    0.0517  -52.8455  -18.3544 C   0  0  0  0  0  0  0  0  0  0  0  0
    0.1203  -51.4696  -17.9416 N   0  0  0  0  0  0  0  0  0  0  0  0
   -0.8025  -50.9938  -17.9281 H   0  0  0  0  0  0  0  0  0  0  0  0
    1.0273  -50.6690  -18.7160 C   0  0  0  0  0  0  0  0  0  0  0  0
    1.5277  -49.4789  -17.9480 C   0  0  0  0  0  0  0  0  0  0  0  0
    2.5936  -48.7630  -18.7203 C   0  0  0  0  0  0  0  0  0  0  0  0
    2.0312  -48.2708  -20.0145 C   0  0  0  0  0  0  0  0  0  0  0  0
    1.5065  -49.4589  -20.7898 C   0  0  0  0  0  0  0  0  0  0  0  0
    2.6916  -50.3677  -21.0875 C   0  0  0  0  0  0  0  0  0  0  0  0
    3.2950  -50.8365  -19.7850 C   0  0  0  0  0  0  0  0  0  0  0  0
    3.7773  -49.6721  -18.9509 C   0  0  0  0  0  0  0  0  0  0  0  0
    2.2348  -51.5656  -19.0193 C   0  0  0  0  0  0  0  0  0  0  0  0
    0.4683  -50.2154  -20.0235 C   0  0  0  0  0  0  0  0  0  0  0  0
 18 19  1  0  0  0
 19 20  2  0  0  0
 20 21  1  0  0  0
 21 22  2  0  0  0
 22 16  1  0  0  0
 16  1  1  0  0  0
  1  2  1  0  0  0
  2  3  2  0  0  0
  3  4  1  0  0  0
  4  5  2  0  0  0
  5  6  1  0  0  0
  6  7  1  0  0  0
  7  8  1  0  0  0
  8  9  1  0  0  0
  9 10  1  0  0  0
 10 11  1  0  0  0
 11 12  1  0  0  0
 12 13  1  0  0  0
  9 14  1  0  0  0
 14 15  2  0  0  0
 14 26  1  0  0  0
 26 27  2  0  0  0
 27 28  1  0  0  0
 28 29  1  0  0  0
 29 31  1  0  0  0
 31 32  1  0  0  0
 32 33  1  0  0  0
 33 34  1  0  0  0
 34 35  1  0  0  0
 35 36  1  0  0  0
 36 37  1  0  0  0
 37 38  1  0  0  0
 37 39  1  0  0  0
 35 40  1  0  0  0
 22 23  1  0  0  0
 23 24  2  0  0  0
 24 25  1  0  0  0
 24 19  1  0  0  0
 13  1  2  0  0  0
 39 31  1  0  0  0
 13  5  1  0  0  0
 40 31  1  0  0  0
 12  7  2  0  0  0
 38 33  1  0  0  0
 16 17  1  0  0  0
 29 30  1  0  0  0
M  END
> <minimizedAffinity>
-7.10203

> <CNNscore>
0.1131419316

> <CNNaffinity>
7.3284797668

> <CNN_VS>
0.8291583657

> <CNNaffinity_variance>
0.2436819077

$$$$
[H]/C(C(=O)N1C([H])([H])c2sc3nc([H])nc(N([H])c4c([H])c([H])c(Cl)c(Cl)c4[H])c3c2C([H])([H])C1([H])[H])=C(/[H])C([H])([H])N([H])C12C([H])([H])C3([H])C([H])([H])C([H])(C([H])([H])C([H])(C3([H])[H])C1([H])[H])C2([H])[H]


 40 46  0  0  0  0  0  0  0  0999 V2000
    0.5096  -53.2631  -25.7800 C   0  0  0  0  0  0  0  0  0  0  0  0
    0.5740  -54.2770  -26.6793 N   0  0  0  0  0  0  0  0  0  0  0  0
    0.1416  -55.5138  -26.5189 C   0  0  0  0  0  0  0  0  0  0  0  0
   -0.4191  -55.7839  -25.3368 N   0  0  0  0  0  0  0  0  0  0  0  0
   -0.5214  -54.8144  -24.3755 C   0  0  0  0  0  0  0  0  0  0  0  0
   -1.1658  -54.8505  -22.7902 S   0  0  0  0  0  0  0  0  0  0  0  0
   -0.8788  -53.2785  -22.3343 C   0  0  0  0  0  0  0  0  0  0  0  0
   -1.0910  -52.4331  -21.0970 C   0  0  0  0  0  0  0  0  0  0  0  0
    0.2146  -51.8375  -20.8136 N   0  0  0  0  0  0  0  0  0  0  0  0
    0.9600  -51.2859  -21.8978 C   0  0  0  0  0  0  0  0  0  0  0  0
    0.0309  -51.2577  -23.1420 C   0  0  0  0  0  0  0  0  0  0  0  0
   -0.2583  -52.6941  -23.4537 C   0  0  0  0  0  0  0  0  0  0  0  0
   -0.0779  -53.5183  -24.5197 C   0  0  0  0  0  0  0  0  0  0  0  0
    0.6667  -51.8235  -19.4966 C   0  0  0  0  0  0  0  0  0  0  0  0
   -0.2364  -52.3108  -18.6668 O   0  0  0  0  0  0  0  0  0  0  0  0
    0.9961  -52.0131  -26.2038 N   0  0  0  0  0  0  0  0  0  0  0  0
    0.4913  -51.4398  -26.8761 H   0  0  0  0  0  0  0  0  0  0  0  0
    6.0721  -49.9057  -24.1044 Cl  0  0  0  0  0  0  0  0  0  0  0  0
    4.5675  -50.5361  -24.7380 C   0  0  0  0  0  0  0  0  0  0  0  0
    3.7337  -49.6768  -25.3878 C   0  0  0  0  0  0  0  0  0  0  0  0
    2.5313  -50.1533  -25.9010 C   0  0  0  0  0  0  0  0  0  0  0  0
    2.2203  -51.4666  -25.7384 C   0  0  0  0  0  0  0  0  0  0  0  0
    3.0861  -52.3299  -25.0712 C   0  0  0  0  0  0  0  0  0  0  0  0
    4.2847  -51.8794  -24.5543 C   0  0  0  0  0  0  0  0  0  0  0  0
    5.3843  -52.9487  -23.7140 Cl  0  0  0  0  0  0  0  0  0  0  0  0
    1.9011  -51.3870  -18.9135 C   0  0  0  0  0  0  0  0  0  0  0  0
    2.2073  -51.0883  -17.6968 C   0  0  0  0  0  0  0  0  0  0  0  0
    3.6273  -50.6538  -17.3931 C   0  0  0  0  0  0  0  0  0  0  0  0
    3.7464  -50.6852  -15.9603 N   0  0  0  0  0  0  0  0  0  0  0  0
    3.2168  -51.4603  -15.5166 H   0  0  0  0  0  0  0  0  0  0  0  0
    3.3735  -49.4582  -15.3132 C   0  0  0  0  0  0  0  0  0  0  0  0
    1.9343  -49.4610  -14.8825 C   0  0  0  0  0  0  0  0  0  0  0  0
    1.6254  -48.2423  -14.0674 C   0  0  0  0  0  0  0  0  0  0  0  0
    1.8560  -47.0162  -14.8902 C   0  0  0  0  0  0  0  0  0  0  0  0
    3.2982  -47.0112  -15.3460 C   0  0  0  0  0  0  0  0  0  0  0  0
    4.1694  -46.9327  -14.0995 C   0  0  0  0  0  0  0  0  0  0  0  0
    3.9122  -48.1466  -13.2388 C   0  0  0  0  0  0  0  0  0  0  0  0
    2.4644  -48.2221  -12.8118 C   0  0  0  0  0  0  0  0  0  0  0  0
    4.2356  -49.3646  -14.0475 C   0  0  0  0  0  0  0  0  0  0  0  0
    3.6440  -48.2379  -16.1290 C   0  0  0  0  0  0  0  0  0  0  0  0
 18 19  1  0  0  0
 19 20  2  0  0  0
 20 21  1  0  0  0
 21 22  2  0  0  0
 22 16  1  0  0  0
 16  1  1  0  0  0
  1  2  1  0  0  0
  2  3  2  0  0  0
  3  4  1  0  0  0
  4  5  2  0  0  0
  5  6  1  0  0  0
  6  7  1  0  0  0
  7  8  1  0  0  0
  8  9  1  0  0  0
  9 10  1  0  0  0
 10 11  1  0  0  0
 11 12  1  0  0  0
 12 13  1  0  0  0
  9 14  1  0  0  0
 14 15  2  0  0  0
 14 26  1  0  0  0
 26 27  2  0  0  0
 27 28  1  0  0  0
 28 29  1  0  0  0
 29 31  1  0  0  0
 31 32  1  0  0  0
 32 33  1  0  0  0
 33 34  1  0  0  0
 34 35  1  0  0  0
 35 36  1  0  0  0
 36 37  1  0  0  0
 37 38  1  0  0  0
 37 39  1  0  0  0
 35 40  1  0  0  0
 22 23  1  0  0  0
 23 24  2  0  0  0
 24 25  1  0  0  0
 24 19  1  0  0  0
 13  1  2  0  0  0
 39 31  1  0  0  0
 13  5  1  0  0  0
 40 31  1  0  0  0
 12  7  2  0  0  0
 38 33  1  0  0  0
 16 17  1  0  0  0
 29 30  1  0  0  0
M  END
> <minimizedAffinity>
-7.62217

> <CNNscore>
0.0778356865

> <CNNaffinity>
6.9022660255

> <CNN_VS>
0.5372425914

> <CNNaffinity_variance>
0.1294297874

$$$$
[H]/C(C(=O)N1C([H])([H])c2sc3nc([H])nc(N([H])c4c([H])c([H])c(Cl)c(Cl)c4[H])c3c2C([H])([H])C1([H])[H])=C(/[H])C([H])([H])N([H])C12C([H])([H])C3([H])C([H])([H])C([H])(C([H])([H])C([H])(C3([H])[H])C1([H])[H])C2([H])[H]


 40 46  0  0  0  0  0  0  0  0999 V2000
    0.4814  -53.5368  -25.6262 C   0  0  0  0  0  0  0  0  0  0  0  0
    0.4728  -54.5796  -26.4942 N   0  0  0  0  0  0  0  0  0  0  0  0
   -0.0512  -55.7752  -26.2989 C   0  0  0  0  0  0  0  0  0  0  0  0
   -0.6343  -55.9668  -25.1123 N   0  0  0  0  0  0  0  0  0  0  0  0
   -0.6670  -54.9634  -24.1812 C   0  0  0  0  0  0  0  0  0  0  0  0
   -1.3174  -54.9031  -22.5991 S   0  0  0  0  0  0  0  0  0  0  0  0
   -0.9153  -53.3437  -22.1892 C   0  0  0  0  0  0  0  0  0  0  0  0
   -1.0678  -52.4475  -20.9792 C   0  0  0  0  0  0  0  0  0  0  0  0
    0.2776  -51.9424  -20.7067 N   0  0  0  0  0  0  0  0  0  0  0  0
    1.0656  -51.4812  -21.8029 C   0  0  0  0  0  0  0  0  0  0  0  0
    0.1452  -51.4218  -23.0525 C   0  0  0  0  0  0  0  0  0  0  0  0
   -0.2494  -52.8415  -23.3224 C   0  0  0  0  0  0  0  0  0  0  0  0
   -0.1276  -53.7090  -24.3620 C   0  0  0  0  0  0  0  0  0  0  0  0
    0.7253  -51.9221  -19.3883 C   0  0  0  0  0  0  0  0  0  0  0  0
   -0.2143  -52.3152  -18.5491 O   0  0  0  0  0  0  0  0  0  0  0  0
    1.0611  -52.3400  -26.0848 N   0  0  0  0  0  0  0  0  0  0  0  0
    0.6203  -51.7701  -26.8034 H   0  0  0  0  0  0  0  0  0  0  0  0
    6.1680  -50.1157  -24.1910 Cl  0  0  0  0  0  0  0  0  0  0  0  0
    4.6444  -50.7752  -24.7445 C   0  0  0  0  0  0  0  0  0  0  0  0
    4.4689  -52.1248  -24.6851 C   0  0  0  0  0  0  0  0  0  0  0  0
    3.2664  -52.6741  -25.1189 C   0  0  0  0  0  0  0  0  0  0  0  0
    2.2973  -51.8466  -25.5926 C   0  0  0  0  0  0  0  0  0  0  0  0
    2.4954  -50.4690  -25.6451 C   0  0  0  0  0  0  0  0  0  0  0  0
    3.6802  -49.9017  -25.2195 C   0  0  0  0  0  0  0  0  0  0  0  0
    3.9466  -48.1742  -25.2777 Cl  0  0  0  0  0  0  0  0  0  0  0  0
    1.9869  -51.5612  -18.8118 C   0  0  0  0  0  0  0  0  0  0  0  0
    2.2788  -50.7859  -17.8234 C   0  0  0  0  0  0  0  0  0  0  0  0
    3.7367  -50.6075  -17.4487 C   0  0  0  0  0  0  0  0  0  0  0  0
    3.9602  -49.1872  -17.4178 N   0  0  0  0  0  0  0  0  0  0  0  0
    3.1377  -48.6446  -17.0904 H   0  0  0  0  0  0  0  0  0  0  0  0
    4.3936  -48.6340  -18.6706 C   0  0  0  0  0  0  0  0  0  0  0  0
    4.9340  -49.6863  -19.5965 C   0  0  0  0  0  0  0  0  0  0  0  0
    5.2192  -49.1041  -20.9473 C   0  0  0  0  0  0  0  0  0  0  0  0
    6.2496  -48.0289  -20.8233 C   0  0  0  0  0  0  0  0  0  0  0  0
    5.7247  -46.9712  -19.8779 C   0  0  0  0  0  0  0  0  0  0  0  0
    4.4732  -46.3765  -20.5096 C   0  0  0  0  0  0  0  0  0  0  0  0
    3.4400  -47.4647  -20.6797 C   0  0  0  0  0  0  0  0  0  0  0  0
    3.9500  -48.5738  -21.5708 C   0  0  0  0  0  0  0  0  0  0  0  0
    3.1428  -48.0365  -19.3282 C   0  0  0  0  0  0  0  0  0  0  0  0
    5.3939  -47.5348  -18.5325 C   0  0  0  0  0  0  0  0  0  0  0  0
 18 19  1  0  0  0
 19 20  2  0  0  0
 20 21  1  0  0  0
 21 22  2  0  0  0
 22 16  1  0  0  0
 16  1  1  0  0  0
  1  2  1  0  0  0
  2  3  2  0  0  0
  3  4  1  0  0  0
  4  5  2  0  0  0
  5  6  1  0  0  0
  6  7  1  0  0  0
  7  8  1  0  0  0
  8  9  1  0  0  0
  9 10  1  0  0  0
 10 11  1  0  0  0
 11 12  1  0  0  0
 12 13  1  0  0  0
  9 14  1  0  0  0
 14 15  2  0  0  0
 14 26  1  0  0  0
 26 27  2  0  0  0
 27 28  1  0  0  0
 28 29  1  0  0  0
 29 31  1  0  0  0
 31 32  1  0  0  0
 32 33  1  0  0  0
 33 34  1  0  0  0
 34 35  1  0  0  0
 35 36  1  0  0  0
 36 37  1  0  0  0
 37 38  1  0  0  0
 37 39  1  0  0  0
 35 40  1  0  0  0
 22 23  1  0  0  0
 23 24  2  0  0  0
 24 25  1  0  0  0
 24 19  1  0  0  0
 13  1  2  0  0  0
 39 31  1  0  0  0
 13  5  1  0  0  0
 40 31  1  0  0  0
 12  7  2  0  0  0
 38 33  1  0  0  0
 16 17  1  0  0  0
 29 30  1  0  0  0
M  END
> <minimizedAffinity>
-7.83769

> <CNNscore>
0.0737782791

> <CNNaffinity>
7.3274612427

> <CNN_VS>
0.5406074524

> <CNNaffinity_variance>
0.1687188298

$$$$
[H]/C(=N\OC([H])([H])C([H])([H])[H])c1c(N([H])[H])nc([H])nc1N([H])c1c([H])c([H])c2c(c([H])nn2C([H])([H])c2c([H])c([H])c([H])c(F)c2[H])c1[H]


 33 36  0  0  0  0  0  0  0  0999 V2000
    1.3164  -51.0622  -22.3172 C   0  0  0  0  0  0  0  0  0  0  0  0
    1.9217  -51.7744  -21.2739 C   0  0  0  0  0  0  0  0  0  0  0  0
    2.6920  -51.1688  -20.3122 C   0  0  0  0  0  0  0  0  0  0  0  0
    2.8917  -49.8101  -20.3537 C   0  0  0  0  0  0  0  0  0  0  0  0
    3.5640  -48.9207  -19.6016 N   0  0  0  0  0  0  0  0  0  0  0  0
    3.4084  -47.7134  -20.1165 N   0  0  0  0  0  0  0  0  0  0  0  0
    2.6383  -47.7521  -21.2148 C   0  0  0  0  0  0  0  0  0  0  0  0
    2.3104  -49.0886  -21.3640 C   0  0  0  0  0  0  0  0  0  0  0  0
    1.5245  -49.7117  -22.3431 C   0  0  0  0  0  0  0  0  0  0  0  0
    0.5210  -51.7960  -23.2297 N   0  0  0  0  0  0  0  0  0  0  0  0
    0.5215  -51.3907  -24.2043 H   0  0  0  0  0  0  0  0  0  0  0  0
   -0.3984  -53.9534  -23.8567 C   0  0  0  0  0  0  0  0  0  0  0  0
   -1.1944  -55.0295  -23.4459 C   0  0  0  0  0  0  0  0  0  0  0  0
   -1.4091  -56.1014  -24.3793 N   0  0  0  0  0  0  0  0  0  0  0  0
   -1.7570  -55.0926  -22.2247 N   0  0  0  0  0  0  0  0  0  0  0  0
   -1.5702  -54.1017  -21.3358 C   0  0  0  0  0  0  0  0  0  0  0  0
   -0.8162  -53.0786  -21.7206 N   0  0  0  0  0  0  0  0  0  0  0  0
   -0.2217  -52.9565  -22.9377 C   0  0  0  0  0  0  0  0  0  0  0  0
   -2.2252  -56.0233  -25.0211 H   0  0  0  0  0  0  0  0  0  0  0  0
   -0.7808  -56.9297  -24.4232 H   0  0  0  0  0  0  0  0  0  0  0  0
   -0.3838  -53.9902  -26.3199 N   0  0  0  0  0  0  0  0  0  0  0  0
    0.1630  -53.9884  -25.1791 C   0  0  0  0  0  0  0  0  0  0  0  0
    0.2920  -54.0261  -27.5129 O   0  0  0  0  0  0  0  0  0  0  0  0
   -0.7438  -52.7916  -29.2313 C   0  0  0  0  0  0  0  0  0  0  0  0
    0.4191  -52.8122  -28.2349 C   0  0  0  0  0  0  0  0  0  0  0  0
    4.3292  -49.2903  -18.4162 C   0  0  0  0  0  0  0  0  0  0  0  0
    3.4664  -49.5813  -17.2492 C   0  0  0  0  0  0  0  0  0  0  0  0
    3.7291  -50.7503  -16.5375 C   0  0  0  0  0  0  0  0  0  0  0  0
    2.9761  -51.0905  -15.4414 C   0  0  0  0  0  0  0  0  0  0  0  0
    1.9433  -50.2769  -15.0259 C   0  0  0  0  0  0  0  0  0  0  0  0
    1.6987  -49.1285  -15.7392 C   0  0  0  0  0  0  0  0  0  0  0  0
    0.6984  -48.3072  -15.3641 F   0  0  0  0  0  0  0  0  0  0  0  0
    2.4488  -48.7794  -16.8397 C   0  0  0  0  0  0  0  0  0  0  0  0
 24 25  1  0  0  0
 25 23  1  0  0  0
 23 21  1  0  0  0
 21 22  2  0  0  0
 22 12  1  0  0  0
 12 13  2  0  0  0
 13 14  1  0  0  0
 13 15  1  0  0  0
 15 16  2  0  0  0
 16 17  1  0  0  0
 17 18  2  0  0  0
 18 10  1  0  0  0
 10  1  1  0  0  0
  1  2  2  0  0  0
  2  3  1  0  0  0
  3  4  2  0  0  0
  4  5  1  0  0  0
  5 26  1  0  0  0
 26 27  1  0  0  0
 27 28  2  0  0  0
 28 29  1  0  0  0
 29 30  2  0  0  0
 30 31  1  0  0  0
 31 32  1  0  0  0
 31 33  2  0  0  0
  5  6  1  0  0  0
  6  7  2  0  0  0
  7  8  1  0  0  0
  8  9  2  0  0  0
 18 12  1  0  0  0
  9  1  1  0  0  0
  8  4  1  0  0  0
 33 27  1  0  0  0
 14 19  1  0  0  0
 14 20  1  0  0  0
 10 11  1  0  0  0
M  END
> <minimizedAffinity>
-7.61180

> <CNNscore>
0.7045288086

> <CNNaffinity>
7.1267976761

> <CNN_VS>
5.0210342407

> <CNNaffinity_variance>
0.3049084842

$$$$
[H]/C(=N\OC([H])([H])C([H])([H])[H])c1c(N([H])[H])nc([H])nc1N([H])c1c([H])c([H])c2c(c([H])nn2C([H])([H])c2c([H])c([H])c([H])c(F)c2[H])c1[H]


 33 36  0  0  0  0  0  0  0  0999 V2000
   -0.2529  -53.2456  -20.0354 C   0  0  0  0  0  0  0  0  0  0  0  0
    0.1553  -52.0382  -20.6165 C   0  0  0  0  0  0  0  0  0  0  0  0
    0.1290  -51.8219  -21.9721 C   0  0  0  0  0  0  0  0  0  0  0  0
   -0.3115  -52.8151  -22.8131 C   0  0  0  0  0  0  0  0  0  0  0  0
   -0.4646  -52.9413  -24.1432 N   0  0  0  0  0  0  0  0  0  0  0  0
   -0.9396  -54.1451  -24.4118 N   0  0  0  0  0  0  0  0  0  0  0  0
   -1.1180  -54.8559  -23.2877 C   0  0  0  0  0  0  0  0  0  0  0  0
   -0.7172  -54.0068  -22.2707 C   0  0  0  0  0  0  0  0  0  0  0  0
   -0.6890  -54.2224  -20.8860 C   0  0  0  0  0  0  0  0  0  0  0  0
   -0.2076  -53.3357  -18.6234 N   0  0  0  0  0  0  0  0  0  0  0  0
    0.5468  -53.9838  -18.2700 H   0  0  0  0  0  0  0  0  0  0  0  0
   -0.6447  -51.5362  -17.0537 C   0  0  0  0  0  0  0  0  0  0  0  0
   -1.5696  -50.9911  -16.1549 C   0  0  0  0  0  0  0  0  0  0  0  0
   -1.1866  -49.8103  -15.4303 N   0  0  0  0  0  0  0  0  0  0  0  0
   -2.7867  -51.5281  -15.9499 N   0  0  0  0  0  0  0  0  0  0  0  0
   -3.1660  -52.6322  -16.6161 C   0  0  0  0  0  0  0  0  0  0  0  0
   -2.2924  -53.1533  -17.4696 N   0  0  0  0  0  0  0  0  0  0  0  0
   -1.0504  -52.6590  -17.7203 C   0  0  0  0  0  0  0  0  0  0  0  0
   -0.7038  -49.9423  -14.5173 H   0  0  0  0  0  0  0  0  0  0  0  0
   -1.3782  -48.8537  -15.7922 H   0  0  0  0  0  0  0  0  0  0  0  0
    0.9413  -49.7910  -17.7663 N   0  0  0  0  0  0  0  0  0  0  0  0
    0.6247  -50.8798  -17.2054 C   0  0  0  0  0  0  0  0  0  0  0  0
    2.2143  -49.2845  -17.8323 O   0  0  0  0  0  0  0  0  0  0  0  0
    1.6542  -48.6643  -20.0348 C   0  0  0  0  0  0  0  0  0  0  0  0
    2.4747  -48.2810  -18.7998 C   0  0  0  0  0  0  0  0  0  0  0  0
   -0.1382  -51.8819  -25.0912 C   0  0  0  0  0  0  0  0  0  0  0  0
   -0.4874  -52.2374  -26.4850 C   0  0  0  0  0  0  0  0  0  0  0  0
    0.5661  -52.4717  -27.3666 C   0  0  0  0  0  0  0  0  0  0  0  0
    0.3262  -52.8089  -28.6754 C   0  0  0  0  0  0  0  0  0  0  0  0
   -0.9672  -52.9213  -29.1400 C   0  0  0  0  0  0  0  0  0  0  0  0
   -1.9934  -52.6869  -28.2571 C   0  0  0  0  0  0  0  0  0  0  0  0
   -3.2711  -52.7873  -28.6731 F   0  0  0  0  0  0  0  0  0  0  0  0
   -1.7621  -52.3483  -26.9427 C   0  0  0  0  0  0  0  0  0  0  0  0
 24 25  1  0  0  0
 25 23  1  0  0  0
 23 21  1  0  0  0
 21 22  2  0  0  0
 22 12  1  0  0  0
 12 13  2  0  0  0
 13 14  1  0  0  0
 13 15  1  0  0  0
 15 16  2  0  0  0
 16 17  1  0  0  0
 17 18  2  0  0  0
 18 10  1  0  0  0
 10  1  1  0  0  0
  1  2  2  0  0  0
  2  3  1  0  0  0
  3  4  2  0  0  0
  4  5  1  0  0  0
  5 26  1  0  0  0
 26 27  1  0  0  0
 27 28  2  0  0  0
 28 29  1  0  0  0
 29 30  2  0  0  0
 30 31  1  0  0  0
 31 32  1  0  0  0
 31 33  2  0  0  0
  5  6  1  0  0  0
  6  7  2  0  0  0
  7  8  1  0  0  0
  8  9  2  0  0  0
 18 12  1  0  0  0
  9  1  1  0  0  0
  8  4  1  0  0  0
 33 27  1  0  0  0
 14 19  1  0  0  0
 14 20  1  0  0  0
 10 11  1  0  0  0
M  END
> <minimizedAffinity>
-8.94150

> <CNNscore>
0.6582326293

> <CNNaffinity>
7.0385832787

> <CNN_VS>
4.6330251694

> <CNNaffinity_variance>
0.0479534715

$$$$
[H]/C(=N\OC([H])([H])C([H])([H])[H])c1c(N([H])[H])nc([H])nc1N([H])c1c([H])c([H])c2c(c([H])nn2C([H])([H])c2c([H])c([H])c([H])c(F)c2[H])c1[H]


 33 36  0  0  0  0  0  0  0  0999 V2000
   -0.3067  -53.2052  -19.9854 C   0  0  0  0  0  0  0  0  0  0  0  0
    0.0380  -51.9814  -20.5732 C   0  0  0  0  0  0  0  0  0  0  0  0
   -0.0031  -51.7730  -21.9296 C   0  0  0  0  0  0  0  0  0  0  0  0
   -0.3951  -52.7912  -22.7648 C   0  0  0  0  0  0  0  0  0  0  0  0
   -0.5455  -52.9312  -24.0939 N   0  0  0  0  0  0  0  0  0  0  0  0
   -0.9596  -54.1587  -24.3555 N   0  0  0  0  0  0  0  0  0  0  0  0
   -1.0985  -54.8725  -23.2277 C   0  0  0  0  0  0  0  0  0  0  0  0
   -0.7383  -53.9994  -22.2158 C   0  0  0  0  0  0  0  0  0  0  0  0
   -0.6951  -54.2068  -20.8302 C   0  0  0  0  0  0  0  0  0  0  0  0
   -0.2528  -53.2863  -18.5731 N   0  0  0  0  0  0  0  0  0  0  0  0
    0.5480  -53.8755  -18.2187 H   0  0  0  0  0  0  0  0  0  0  0  0
   -0.8070  -51.5362  -16.9847 C   0  0  0  0  0  0  0  0  0  0  0  0
   -1.7707  -51.0562  -16.0897 C   0  0  0  0  0  0  0  0  0  0  0  0
   -1.4624  -49.8662  -15.3447 N   0  0  0  0  0  0  0  0  0  0  0  0
   -2.9582  -51.6629  -15.9063 N   0  0  0  0  0  0  0  0  0  0  0  0
   -3.2679  -52.7770  -16.5917 C   0  0  0  0  0  0  0  0  0  0  0  0
   -2.3571  -53.2365  -17.4417 N   0  0  0  0  0  0  0  0  0  0  0  0
   -1.1419  -52.6703  -17.6711 C   0  0  0  0  0  0  0  0  0  0  0  0
   -0.9830  -49.9840  -14.4280 H   0  0  0  0  0  0  0  0  0  0  0  0
   -1.7030  -48.9167  -15.6960 H   0  0  0  0  0  0  0  0  0  0  0  0
    0.6965  -49.7191  -17.6962 N   0  0  0  0  0  0  0  0  0  0  0  0
    0.4254  -50.8081  -17.1125 C   0  0  0  0  0  0  0  0  0  0  0  0
    1.9383  -49.1378  -17.7335 O   0  0  0  0  0  0  0  0  0  0  0  0
    1.6338  -48.6398  -20.0159 C   0  0  0  0  0  0  0  0  0  0  0  0
    2.6322  -49.1451  -18.9702 C   0  0  0  0  0  0  0  0  0  0  0  0
   -0.2761  -51.8610  -25.0476 C   0  0  0  0  0  0  0  0  0  0  0  0
   -0.7916  -52.1621  -26.4021 C   0  0  0  0  0  0  0  0  0  0  0  0
   -2.1703  -52.0872  -26.5910 C   0  0  0  0  0  0  0  0  0  0  0  0
   -2.7272  -52.3491  -27.8180 C   0  0  0  0  0  0  0  0  0  0  0  0
   -1.9271  -52.6921  -28.8874 C   0  0  0  0  0  0  0  0  0  0  0  0
   -0.5703  -52.7610  -28.6830 C   0  0  0  0  0  0  0  0  0  0  0  0
    0.2449  -53.0923  -29.7035 F   0  0  0  0  0  0  0  0  0  0  0  0
   -0.0030  -52.4999  -27.4559 C   0  0  0  0  0  0  0  0  0  0  0  0
 24 25  1  0  0  0
 25 23  1  0  0  0
 23 21  1  0  0  0
 21 22  2  0  0  0
 22 12  1  0  0  0
 12 13  2  0  0  0
 13 14  1  0  0  0
 13 15  1  0  0  0
 15 16  2  0  0  0
 16 17  1  0  0  0
 17 18  2  0  0  0
 18 10  1  0  0  0
 10  1  1  0  0  0
  1  2  2  0  0  0
  2  3  1  0  0  0
  3  4  2  0  0  0
  4  5  1  0  0  0
  5 26  1  0  0  0
 26 27  1  0  0  0
 27 28  2  0  0  0
 28 29  1  0  0  0
 29 30  2  0  0  0
 30 31  1  0  0  0
 31 32  1  0  0  0
 31 33  2  0  0  0
  5  6  1  0  0  0
  6  7  2  0  0  0
  7  8  1  0  0  0
  8  9  2  0  0  0
 18 12  1  0  0  0
  9  1  1  0  0  0
  8  4  1  0  0  0
 33 27  1  0  0  0
 14 19  1  0  0  0
 14 20  1  0  0  0
 10 11  1  0  0  0
M  END
> <minimizedAffinity>
-8.91653

> <CNNscore>
0.6511448622

> <CNNaffinity>
6.9618062973

> <CNN_VS>
4.5331444740

> <CNNaffinity_variance>
0.0505151637

$$$$
[H]/C(=N\OC([H])([H])C([H])([H])[H])c1c(N([H])[H])nc([H])nc1N([H])c1c([H])c([H])c2c(c([H])nn2C([H])([H])c2c([H])c([H])c([H])c(F)c2[H])c1[H]


 33 36  0  0  0  0  0  0  0  0999 V2000
    0.3246  -51.7325  -21.4752 C   0  0  0  0  0  0  0  0  0  0  0  0
   -0.2692  -52.7113  -20.6680 C   0  0  0  0  0  0  0  0  0  0  0  0
   -0.3726  -52.5850  -19.3047 C   0  0  0  0  0  0  0  0  0  0  0  0
    0.1189  -51.4618  -18.6844 C   0  0  0  0  0  0  0  0  0  0  0  0
    0.1843  -51.0243  -17.4144 N   0  0  0  0  0  0  0  0  0  0  0  0
    0.7778  -49.8435  -17.3936 N   0  0  0  0  0  0  0  0  0  0  0  0
    1.1254  -49.4556  -18.6303 C   0  0  0  0  0  0  0  0  0  0  0  0
    0.7048  -50.4880  -19.4508 C   0  0  0  0  0  0  0  0  0  0  0  0
    0.8074  -50.6216  -20.8423 C   0  0  0  0  0  0  0  0  0  0  0  0
    0.3437  -51.9651  -22.8714 N   0  0  0  0  0  0  0  0  0  0  0  0
    0.6784  -51.1337  -23.4290 H   0  0  0  0  0  0  0  0  0  0  0  0
    0.3935  -53.4584  -24.7847 C   0  0  0  0  0  0  0  0  0  0  0  0
   -0.0902  -54.6569  -25.3232 C   0  0  0  0  0  0  0  0  0  0  0  0
    0.3283  -55.0142  -26.6511 N   0  0  0  0  0  0  0  0  0  0  0  0
   -0.9215  -55.4731  -24.6490 N   0  0  0  0  0  0  0  0  0  0  0  0
   -1.3263  -55.1590  -23.4063 C   0  0  0  0  0  0  0  0  0  0  0  0
   -0.8707  -54.0232  -22.8911 N   0  0  0  0  0  0  0  0  0  0  0  0
   -0.0308  -53.1578  -23.5201 C   0  0  0  0  0  0  0  0  0  0  0  0
   -0.2527  -54.6748  -27.4456 H   0  0  0  0  0  0  0  0  0  0  0  0
    1.1775  -55.5895  -26.8266 H   0  0  0  0  0  0  0  0  0  0  0  0
    1.4757  -51.4141  -25.6324 N   0  0  0  0  0  0  0  0  0  0  0  0
    1.2843  -52.6636  -25.5848 C   0  0  0  0  0  0  0  0  0  0  0  0
    2.3743  -50.7898  -26.4595 O   0  0  0  0  0  0  0  0  0  0  0  0
    2.9165  -49.7512  -24.4158 C   0  0  0  0  0  0  0  0  0  0  0  0
    3.0969  -49.6879  -25.9353 C   0  0  0  0  0  0  0  0  0  0  0  0
   -0.3336  -51.7796  -16.2792 C   0  0  0  0  0  0  0  0  0  0  0  0
   -1.7664  -51.5111  -16.0224 C   0  0  0  0  0  0  0  0  0  0  0  0
   -2.0834  -50.3369  -15.3421 C   0  0  0  0  0  0  0  0  0  0  0  0
   -3.3890  -50.0139  -15.0673 C   0  0  0  0  0  0  0  0  0  0  0  0
   -4.4115  -50.8505  -15.4621 C   0  0  0  0  0  0  0  0  0  0  0  0
   -4.0807  -52.0035  -16.1318 C   0  0  0  0  0  0  0  0  0  0  0  0
   -5.0518  -52.8465  -16.5345 F   0  0  0  0  0  0  0  0  0  0  0  0
   -2.7741  -52.3355  -16.4117 C   0  0  0  0  0  0  0  0  0  0  0  0
 24 25  1  0  0  0
 25 23  1  0  0  0
 23 21  1  0  0  0
 21 22  2  0  0  0
 22 12  1  0  0  0
 12 13  2  0  0  0
 13 14  1  0  0  0
 13 15  1  0  0  0
 15 16  2  0  0  0
 16 17  1  0  0  0
 17 18  2  0  0  0
 18 10  1  0  0  0
 10  1  1  0  0  0
  1  2  2  0  0  0
  2  3  1  0  0  0
  3  4  2  0  0  0
  4  5  1  0  0  0
  5 26  1  0  0  0
 26 27  1  0  0  0
 27 28  2  0  0  0
 28 29  1  0  0  0
 29 30  2  0  0  0
 30 31  1  0  0  0
 31 32  1  0  0  0
 31 33  2  0  0  0
  5  6  1  0  0  0
  6  7  2  0  0  0
  7  8  1  0  0  0
  8  9  2  0  0  0
 18 12  1  0  0  0
  9  1  1  0  0  0
  8  4  1  0  0  0
 33 27  1  0  0  0
 14 19  1  0  0  0
 14 20  1  0  0  0
 10 11  1  0  0  0
M  END
> <minimizedAffinity>
-8.26145

> <CNNscore>
0.5205624700

> <CNNaffinity>
6.8861517906

> <CNN_VS>
3.5846722126

> <CNNaffinity_variance>
0.0684487894

$$$$
[H]/C(=N\OC([H])([H])C([H])([H])[H])c1c(N([H])[H])nc([H])nc1N([H])c1c([H])c([H])c2c(c([H])nn2C([H])([H])c2c([H])c([H])c([H])c(F)c2[H])c1[H]


 33 36  0  0  0  0  0  0  0  0999 V2000
    1.5636  -51.1969  -23.3417 C   0  0  0  0  0  0  0  0  0  0  0  0
    2.0209  -51.4863  -22.0498 C   0  0  0  0  0  0  0  0  0  0  0  0
    3.2455  -51.0725  -21.5869 C   0  0  0  0  0  0  0  0  0  0  0  0
    4.0737  -50.3436  -22.4059 C   0  0  0  0  0  0  0  0  0  0  0  0
    5.2958  -49.7959  -22.2839 N   0  0  0  0  0  0  0  0  0  0  0  0
    5.6139  -49.1912  -23.4152 N   0  0  0  0  0  0  0  0  0  0  0  0
    4.6306  -49.3115  -24.3204 C   0  0  0  0  0  0  0  0  0  0  0  0
    3.6506  -50.0460  -23.6753 C   0  0  0  0  0  0  0  0  0  0  0  0
    2.3992  -50.4704  -24.1428 C   0  0  0  0  0  0  0  0  0  0  0  0
    0.2698  -51.6532  -23.6909 N   0  0  0  0  0  0  0  0  0  0  0  0
   -0.2489  -50.9909  -24.3284 H   0  0  0  0  0  0  0  0  0  0  0  0
   -0.4366  -53.9402  -24.0957 C   0  0  0  0  0  0  0  0  0  0  0  0
   -1.0920  -55.0552  -23.5594 C   0  0  0  0  0  0  0  0  0  0  0  0
   -1.2300  -56.2185  -24.3924 N   0  0  0  0  0  0  0  0  0  0  0  0
   -1.5897  -55.0736  -22.3089 N   0  0  0  0  0  0  0  0  0  0  0  0
   -1.4725  -53.9972  -21.5124 C   0  0  0  0  0  0  0  0  0  0  0  0
   -0.8520  -52.9369  -22.0163 N   0  0  0  0  0  0  0  0  0  0  0  0
   -0.3287  -52.8564  -23.2691 C   0  0  0  0  0  0  0  0  0  0  0  0
   -2.0774  -56.2806  -24.9942 H   0  0  0  0  0  0  0  0  0  0  0  0
   -0.5181  -56.9772  -24.4039 H   0  0  0  0  0  0  0  0  0  0  0  0
   -0.5253  -54.2019  -26.5436 N   0  0  0  0  0  0  0  0  0  0  0  0
    0.0662  -54.0275  -25.4391 C   0  0  0  0  0  0  0  0  0  0  0  0
    0.0966  -54.2642  -27.7646 O   0  0  0  0  0  0  0  0  0  0  0  0
   -0.7560  -52.6184  -29.2186 C   0  0  0  0  0  0  0  0  0  0  0  0
    0.4567  -53.0402  -28.3837 C   0  0  0  0  0  0  0  0  0  0  0  0
    6.0980  -49.8896  -21.0693 C   0  0  0  0  0  0  0  0  0  0  0  0
    5.7542  -48.8459  -20.0777 C   0  0  0  0  0  0  0  0  0  0  0  0
    6.2916  -47.5755  -20.2763 C   0  0  0  0  0  0  0  0  0  0  0  0
    6.0187  -46.5521  -19.4032 C   0  0  0  0  0  0  0  0  0  0  0  0
    5.2048  -46.7665  -18.3110 C   0  0  0  0  0  0  0  0  0  0  0  0
    4.6836  -48.0248  -18.1309 C   0  0  0  0  0  0  0  0  0  0  0  0
    3.8834  -48.2737  -17.0757 F   0  0  0  0  0  0  0  0  0  0  0  0
    4.9519  -49.0572  -19.0015 C   0  0  0  0  0  0  0  0  0  0  0  0
 24 25  1  0  0  0
 25 23  1  0  0  0
 23 21  1  0  0  0
 21 22  2  0  0  0
 22 12  1  0  0  0
 12 13  2  0  0  0
 13 14  1  0  0  0
 13 15  1  0  0  0
 15 16  2  0  0  0
 16 17  1  0  0  0
 17 18  2  0  0  0
 18 10  1  0  0  0
 10  1  1  0  0  0
  1  2  2  0  0  0
  2  3  1  0  0  0
  3  4  2  0  0  0
  4  5  1  0  0  0
  5 26  1  0  0  0
 26 27  1  0  0  0
 27 28  2  0  0  0
 28 29  1  0  0  0
 29 30  2  0  0  0
 30 31  1  0  0  0
 31 32  1  0  0  0
 31 33  2  0  0  0
  5  6  1  0  0  0
  6  7  2  0  0  0
  7  8  1  0  0  0
  8  9  2  0  0  0
 18 12  1  0  0  0
  9  1  1  0  0  0
  8  4  1  0  0  0
 33 27  1  0  0  0
 14 19  1  0  0  0
 14 20  1  0  0  0
 10 11  1  0  0  0
M  END
> <minimizedAffinity>
-7.48153

> <CNNscore>
0.4603804946

> <CNNaffinity>
6.9787549973

> <CNN_VS>
3.2128827572

> <CNNaffinity_variance>
0.1907986850

$$$$
[H]/C(=N\OC([H])([H])C([H])([H])[H])c1c(N([H])[H])nc([H])nc1N([H])c1c([H])c([H])c2c(c([H])nn2C([H])([H])c2c([H])c([H])c([H])c(F)c2[H])c1[H]


 33 36  0  0  0  0  0  0  0  0999 V2000
    2.0156  -51.5980  -20.9376 C   0  0  0  0  0  0  0  0  0  0  0  0
    2.2177  -52.0694  -22.2411 C   0  0  0  0  0  0  0  0  0  0  0  0
    1.3492  -52.9345  -22.8594 C   0  0  0  0  0  0  0  0  0  0  0  0
    0.2293  -53.3695  -22.1927 C   0  0  0  0  0  0  0  0  0  0  0  0
   -0.7974  -54.1878  -22.4842 N   0  0  0  0  0  0  0  0  0  0  0  0
   -1.6124  -54.2463  -21.4453 N   0  0  0  0  0  0  0  0  0  0  0  0
   -1.1662  -53.4808  -20.4375 C   0  0  0  0  0  0  0  0  0  0  0  0
    0.0070  -52.9234  -20.9158 C   0  0  0  0  0  0  0  0  0  0  0  0
    0.8966  -52.0399  -20.2892 C   0  0  0  0  0  0  0  0  0  0  0  0
    2.9669  -50.6857  -20.4213 N   0  0  0  0  0  0  0  0  0  0  0  0
    3.6838  -50.3817  -21.1337 H   0  0  0  0  0  0  0  0  0  0  0  0
    2.9250  -48.8543  -18.8284 C   0  0  0  0  0  0  0  0  0  0  0  0
    3.0281  -48.5000  -17.4778 C   0  0  0  0  0  0  0  0  0  0  0  0
    2.9419  -47.1054  -17.1405 N   0  0  0  0  0  0  0  0  0  0  0  0
    3.2028  -49.4081  -16.4997 N   0  0  0  0  0  0  0  0  0  0  0  0
    3.2866  -50.7175  -16.7918 C   0  0  0  0  0  0  0  0  0  0  0  0
    3.1896  -51.0588  -18.0714 N   0  0  0  0  0  0  0  0  0  0  0  0
    3.0132  -50.1907  -19.1035 C   0  0  0  0  0  0  0  0  0  0  0  0
    3.8278  -46.5585  -17.1280 H   0  0  0  0  0  0  0  0  0  0  0  0
    2.0355  -46.6466  -16.9153 H   0  0  0  0  0  0  0  0  0  0  0  0
    3.2726  -47.5933  -20.9160 N   0  0  0  0  0  0  0  0  0  0  0  0
    2.7301  -47.8074  -19.7935 C   0  0  0  0  0  0  0  0  0  0  0  0
    2.9798  -46.5359  -21.7390 O   0  0  0  0  0  0  0  0  0  0  0  0
    3.2115  -48.2514  -23.3369 C   0  0  0  0  0  0  0  0  0  0  0  0
    2.7332  -46.8147  -23.1074 C   0  0  0  0  0  0  0  0  0  0  0  0
   -0.9347  -54.8768  -23.7624 C   0  0  0  0  0  0  0  0  0  0  0  0
   -0.6420  -53.9984  -24.9172 C   0  0  0  0  0  0  0  0  0  0  0  0
    0.1710  -54.5171  -25.9233 C   0  0  0  0  0  0  0  0  0  0  0  0
    0.4873  -53.7672  -27.0286 C   0  0  0  0  0  0  0  0  0  0  0  0
    0.0031  -52.4829  -27.1608 C   0  0  0  0  0  0  0  0  0  0  0  0
   -0.7969  -51.9878  -26.1597 C   0  0  0  0  0  0  0  0  0  0  0  0
   -1.2899  -50.7372  -26.2528 F   0  0  0  0  0  0  0  0  0  0  0  0
   -1.1193  -52.7329  -25.0476 C   0  0  0  0  0  0  0  0  0  0  0  0
 24 25  1  0  0  0
 25 23  1  0  0  0
 23 21  1  0  0  0
 21 22  2  0  0  0
 22 12  1  0  0  0
 12 13  2  0  0  0
 13 14  1  0  0  0
 13 15  1  0  0  0
 15 16  2  0  0  0
 16 17  1  0  0  0
 17 18  2  0  0  0
 18 10  1  0  0  0
 10  1  1  0  0  0
  1  2  2  0  0  0
  2  3  1  0  0  0
  3  4  2  0  0  0
  4  5  1  0  0  0
  5 26  1  0  0  0
 26 27  1  0  0  0
 27 28  2  0  0  0
 28 29  1  0  0  0
 29 30  2  0  0  0
 30 31  1  0  0  0
 31 32  1  0  0  0
 31 33  2  0  0  0
  5  6  1  0  0  0
  6  7  2  0  0  0
  7  8  1  0  0  0
  8  9  2  0  0  0
 18 12  1  0  0  0
  9  1  1  0  0  0
  8  4  1  0  0  0
 33 27  1  0  0  0
 14 19  1  0  0  0
 14 20  1  0  0  0
 10 11  1  0  0  0
M  END
> <minimizedAffinity>
-7.05712

> <CNNscore>
0.3626036644

> <CNNaffinity>
6.9233827591

> <CNN_VS>
2.5104439259

> <CNNaffinity_variance>
0.4686598182

$$$$
[H]/C(=N\OC([H])([H])C([H])([H])[H])c1c(N([H])[H])nc([H])nc1N([H])c1c([H])c([H])c2c(c([H])nn2C([H])([H])c2c([H])c([H])c([H])c(F)c2[H])c1[H]


 33 36  0  0  0  0  0  0  0  0999 V2000
    2.5716  -52.6065  -26.0592 C   0  0  0  0  0  0  0  0  0  0  0  0
    2.7305  -53.0750  -24.7488 C   0  0  0  0  0  0  0  0  0  0  0  0
    3.3745  -52.3512  -23.7758 C   0  0  0  0  0  0  0  0  0  0  0  0
    3.8924  -51.1145  -24.0759 C   0  0  0  0  0  0  0  0  0  0  0  0
    4.5599  -50.1678  -23.3925 N   0  0  0  0  0  0  0  0  0  0  0  0
    4.8179  -49.1530  -24.1989 N   0  0  0  0  0  0  0  0  0  0  0  0
    4.3396  -49.3816  -25.4316 C   0  0  0  0  0  0  0  0  0  0  0  0
    3.7506  -50.6316  -25.3509 C   0  0  0  0  0  0  0  0  0  0  0  0
    3.0918  -51.3743  -26.3404 C   0  0  0  0  0  0  0  0  0  0  0  0
    1.8622  -53.4327  -26.9636 N   0  0  0  0  0  0  0  0  0  0  0  0
    2.3216  -54.3697  -27.1219 H   0  0  0  0  0  0  0  0  0  0  0  0
   -0.5137  -52.9352  -26.9426 C   0  0  0  0  0  0  0  0  0  0  0  0
   -1.6383  -52.6531  -27.7274 C   0  0  0  0  0  0  0  0  0  0  0  0
   -2.8963  -52.4679  -27.0570 N   0  0  0  0  0  0  0  0  0  0  0  0
   -1.5816  -52.5513  -29.0684 N   0  0  0  0  0  0  0  0  0  0  0  0
   -0.4163  -52.7211  -29.7165 C   0  0  0  0  0  0  0  0  0  0  0  0
    0.6534  -52.9891  -28.9767 N   0  0  0  0  0  0  0  0  0  0  0  0
    0.6609  -53.1045  -27.6216 C   0  0  0  0  0  0  0  0  0  0  0  0
   -3.4859  -53.3115  -26.9001 H   0  0  0  0  0  0  0  0  0  0  0  0
   -3.2181  -51.5321  -26.7351 H   0  0  0  0  0  0  0  0  0  0  0  0
   -0.7294  -54.0053  -24.7341 N   0  0  0  0  0  0  0  0  0  0  0  0
   -0.6808  -53.0131  -25.5173 C   0  0  0  0  0  0  0  0  0  0  0  0
   -0.8956  -53.9236  -23.3751 O   0  0  0  0  0  0  0  0  0  0  0  0
    0.0909  -53.2557  -21.3427 C   0  0  0  0  0  0  0  0  0  0  0  0
   -0.3857  -52.7757  -22.7168 C   0  0  0  0  0  0  0  0  0  0  0  0
    4.9170  -50.2982  -21.9844 C   0  0  0  0  0  0  0  0  0  0  0  0
    3.7378  -50.2510  -21.0909 C   0  0  0  0  0  0  0  0  0  0  0  0
    3.6841  -51.1826  -20.0559 C   0  0  0  0  0  0  0  0  0  0  0  0
    2.6254  -51.2031  -19.1824 C   0  0  0  0  0  0  0  0  0  0  0  0
    1.5939  -50.2979  -19.3165 C   0  0  0  0  0  0  0  0  0  0  0  0
    1.6635  -49.3867  -20.3424 C   0  0  0  0  0  0  0  0  0  0  0  0
    0.6751  -48.4855  -20.5060 F   0  0  0  0  0  0  0  0  0  0  0  0
    2.7214  -49.3588  -21.2230 C   0  0  0  0  0  0  0  0  0  0  0  0
 24 25  1  0  0  0
 25 23  1  0  0  0
 23 21  1  0  0  0
 21 22  2  0  0  0
 22 12  1  0  0  0
 12 13  2  0  0  0
 13 14  1  0  0  0
 13 15  1  0  0  0
 15 16  2  0  0  0
 16 17  1  0  0  0
 17 18  2  0  0  0
 18 10  1  0  0  0
 10  1  1  0  0  0
  1  2  2  0  0  0
  2  3  1  0  0  0
  3  4  2  0  0  0
  4  5  1  0  0  0
  5 26  1  0  0  0
 26 27  1  0  0  0
 27 28  2  0  0  0
 28 29  1  0  0  0
 29 30  2  0  0  0
 30 31  1  0  0  0
 31 32  1  0  0  0
 31 33  2  0  0  0
  5  6  1  0  0  0
  6  7  2  0  0  0
  7  8  1  0  0  0
  8  9  2  0  0  0
 18 12  1  0  0  0
  9  1  1  0  0  0
  8  4  1  0  0  0
 33 27  1  0  0  0
 14 19  1  0  0  0
 14 20  1  0  0  0
 10 11  1  0  0  0
M  END
> <minimizedAffinity>
-8.07267

> <CNNscore>
0.3373049200

> <CNNaffinity>
7.0738191605

> <CNN_VS>
2.3860340118

> <CNNaffinity_variance>
0.0300797261

$$$$
[H]/C(=N\OC([H])([H])C([H])([H])[H])c1c(N([H])[H])nc([H])nc1N([H])c1c([H])c([H])c2c(c([H])nn2C([H])([H])c2c([H])c([H])c([H])c(F)c2[H])c1[H]


 33 36  0  0  0  0  0  0  0  0999 V2000
   -0.4061  -53.2513  -19.7999 C   0  0  0  0  0  0  0  0  0  0  0  0
   -0.0101  -52.0681  -20.4366 C   0  0  0  0  0  0  0  0  0  0  0  0
   -0.0296  -51.9185  -21.8013 C   0  0  0  0  0  0  0  0  0  0  0  0
   -0.4507  -52.9575  -22.5956 C   0  0  0  0  0  0  0  0  0  0  0  0
   -0.5926  -53.1505  -23.9190 N   0  0  0  0  0  0  0  0  0  0  0  0
   -1.0494  -54.3724  -24.1315 N   0  0  0  0  0  0  0  0  0  0  0  0
   -1.2262  -55.0300  -22.9752 C   0  0  0  0  0  0  0  0  0  0  0  0
   -0.8442  -54.1269  -21.9983 C   0  0  0  0  0  0  0  0  0  0  0  0
   -0.8228  -54.2743  -20.6046 C   0  0  0  0  0  0  0  0  0  0  0  0
   -0.3696  -53.2718  -18.3849 N   0  0  0  0  0  0  0  0  0  0  0  0
    0.4255  -53.8465  -17.9957 H   0  0  0  0  0  0  0  0  0  0  0  0
   -0.9257  -51.4756  -16.8494 C   0  0  0  0  0  0  0  0  0  0  0  0
   -1.9021  -50.9544  -15.9919 C   0  0  0  0  0  0  0  0  0  0  0  0
   -1.5863  -49.7561  -15.2635 N   0  0  0  0  0  0  0  0  0  0  0  0
   -3.1082  -51.5294  -15.8293 N   0  0  0  0  0  0  0  0  0  0  0  0
   -3.4252  -52.6506  -16.4998 C   0  0  0  0  0  0  0  0  0  0  0  0
   -2.5025  -53.1492  -17.3142 N   0  0  0  0  0  0  0  0  0  0  0  0
   -1.2684  -52.6162  -17.5212 C   0  0  0  0  0  0  0  0  0  0  0  0
   -1.1353  -49.8652  -14.3315 H   0  0  0  0  0  0  0  0  0  0  0  0
   -1.7947  -48.8091  -15.6411 H   0  0  0  0  0  0  0  0  0  0  0  0
    0.6081  -49.6298  -17.4051 N   0  0  0  0  0  0  0  0  0  0  0  0
    0.3266  -50.7790  -16.9578 C   0  0  0  0  0  0  0  0  0  0  0  0
    1.8690  -49.0913  -17.4445 O   0  0  0  0  0  0  0  0  0  0  0  0
    3.5154  -50.2661  -18.6524 C   0  0  0  0  0  0  0  0  0  0  0  0
    2.5433  -49.0833  -18.6920 C   0  0  0  0  0  0  0  0  0  0  0  0
   -0.2739  -52.1342  -24.9154 C   0  0  0  0  0  0  0  0  0  0  0  0
    1.1767  -51.8508  -24.9960 C   0  0  0  0  0  0  0  0  0  0  0  0
    1.5616  -50.6689  -25.6263 C   0  0  0  0  0  0  0  0  0  0  0  0
    2.8875  -50.3320  -25.7397 C   0  0  0  0  0  0  0  0  0  0  0  0
    3.8633  -51.1618  -25.2294 C   0  0  0  0  0  0  0  0  0  0  0  0
    3.4657  -52.3225  -24.6113 C   0  0  0  0  0  0  0  0  0  0  0  0
    4.3896  -53.1592  -24.0993 F   0  0  0  0  0  0  0  0  0  0  0  0
    2.1383  -52.6685  -24.4929 C   0  0  0  0  0  0  0  0  0  0  0  0
 24 25  1  0  0  0
 25 23  1  0  0  0
 23 21  1  0  0  0
 21 22  2  0  0  0
 22 12  1  0  0  0
 12 13  2  0  0  0
 13 14  1  0  0  0
 13 15  1  0  0  0
 15 16  2  0  0  0
 16 17  1  0  0  0
 17 18  2  0  0  0
 18 10  1  0  0  0
 10  1  1  0  0  0
  1  2  2  0  0  0
  2  3  1  0  0  0
  3  4  2  0  0  0
  4  5  1  0  0  0
  5 26  1  0  0  0
 26 27  1  0  0  0
 27 28  2  0  0  0
 28 29  1  0  0  0
 29 30  2  0  0  0
 30 31  1  0  0  0
 31 32  1  0  0  0
 31 33  2  0  0  0
  5  6  1  0  0  0
  6  7  2  0  0  0
  7  8  1  0  0  0
  8  9  2  0  0  0
 18 12  1  0  0  0
  9  1  1  0  0  0
  8  4  1  0  0  0
 33 27  1  0  0  0
 14 19  1  0  0  0
 14 20  1  0  0  0
 10 11  1  0  0  0
M  END
> <minimizedAffinity>
-7.67003

> <CNNscore>
0.2905258238

> <CNNaffinity>
6.6332292557

> <CNN_VS>
1.9271243811

> <CNNaffinity_variance>
0.1401748359

$$$$
[H]/C(=N\OC([H])([H])C([H])([H])[H])c1c(N([H])[H])nc([H])nc1N([H])c1c([H])c([H])c2c(c([H])nn2C([H])([H])c2c([H])c([H])c([H])c(F)c2[H])c1[H]


 33 36  0  0  0  0  0  0  0  0999 V2000
    0.7495  -51.3382  -22.7378 C   0  0  0  0  0  0  0  0  0  0  0  0
    1.2882  -50.7361  -21.5935 C   0  0  0  0  0  0  0  0  0  0  0  0
    0.9234  -51.1027  -20.3217 C   0  0  0  0  0  0  0  0  0  0  0  0
   -0.0059  -52.0981  -20.1386 C   0  0  0  0  0  0  0  0  0  0  0  0
   -0.5749  -52.6883  -19.0725 N   0  0  0  0  0  0  0  0  0  0  0  0
   -1.4242  -53.6106  -19.4906 N   0  0  0  0  0  0  0  0  0  0  0  0
   -1.4530  -53.6688  -20.8310 C   0  0  0  0  0  0  0  0  0  0  0  0
   -0.5488  -52.7044  -21.2415 C   0  0  0  0  0  0  0  0  0  0  0  0
   -0.1727  -52.3268  -22.5378 C   0  0  0  0  0  0  0  0  0  0  0  0
    1.2288  -50.8933  -23.9934 N   0  0  0  0  0  0  0  0  0  0  0  0
    1.0859  -49.8598  -24.1529 H   0  0  0  0  0  0  0  0  0  0  0  0
    1.1568  -52.1612  -26.0623 C   0  0  0  0  0  0  0  0  0  0  0  0
    1.8822  -52.9772  -26.9388 C   0  0  0  0  0  0  0  0  0  0  0  0
    1.2007  -53.4959  -28.0933 N   0  0  0  0  0  0  0  0  0  0  0  0
    3.1766  -53.2877  -26.7392 N   0  0  0  0  0  0  0  0  0  0  0  0
    3.8339  -52.8144  -25.6664 C   0  0  0  0  0  0  0  0  0  0  0  0
    3.1504  -52.0402  -24.8318 N   0  0  0  0  0  0  0  0  0  0  0  0
    1.8440  -51.6909  -24.9778 C   0  0  0  0  0  0  0  0  0  0  0  0
    0.7114  -54.4093  -27.9923 H   0  0  0  0  0  0  0  0  0  0  0  0
    1.1885  -52.9885  -29.0017 H   0  0  0  0  0  0  0  0  0  0  0  0
   -1.2371  -52.6329  -26.4015 N   0  0  0  0  0  0  0  0  0  0  0  0
   -0.2186  -51.8833  -26.3725 C   0  0  0  0  0  0  0  0  0  0  0  0
   -2.5056  -52.2197  -26.7203 O   0  0  0  0  0  0  0  0  0  0  0  0
   -1.8814  -52.4816  -28.9767 C   0  0  0  0  0  0  0  0  0  0  0  0
   -3.0322  -52.6177  -27.9754 C   0  0  0  0  0  0  0  0  0  0  0  0
   -0.2651  -52.3235  -17.6947 C   0  0  0  0  0  0  0  0  0  0  0  0
   -1.4753  -52.0063  -16.9036 C   0  0  0  0  0  0  0  0  0  0  0  0
   -2.6061  -52.7898  -17.1259 C   0  0  0  0  0  0  0  0  0  0  0  0
   -3.7676  -52.5615  -16.4308 C   0  0  0  0  0  0  0  0  0  0  0  0
   -3.8333  -51.5485  -15.4976 C   0  0  0  0  0  0  0  0  0  0  0  0
   -2.7091  -50.7862  -15.2914 C   0  0  0  0  0  0  0  0  0  0  0  0
   -2.7337  -49.7872  -14.3875 F   0  0  0  0  0  0  0  0  0  0  0  0
   -1.5400  -51.0081  -15.9839 C   0  0  0  0  0  0  0  0  0  0  0  0
 24 25  1  0  0  0
 25 23  1  0  0  0
 23 21  1  0  0  0
 21 22  2  0  0  0
 22 12  1  0  0  0
 12 13  2  0  0  0
 13 14  1  0  0  0
 13 15  1  0  0  0
 15 16  2  0  0  0
 16 17  1  0  0  0
 17 18  2  0  0  0
 18 10  1  0  0  0
 10  1  1  0  0  0
  1  2  2  0  0  0
  2  3  1  0  0  0
  3  4  2  0  0  0
  4  5  1  0  0  0
  5 26  1  0  0  0
 26 27  1  0  0  0
 27 28  2  0  0  0
 28 29  1  0  0  0
 29 30  2  0  0  0
 30 31  1  0  0  0
 31 32  1  0  0  0
 31 33  2  0  0  0
  5  6  1  0  0  0
  6  7  2  0  0  0
  7  8  1  0  0  0
  8  9  2  0  0  0
 18 12  1  0  0  0
  9  1  1  0  0  0
  8  4  1  0  0  0
 33 27  1  0  0  0
 14 19  1  0  0  0
 14 20  1  0  0  0
 10 11  1  0  0  0
M  END
> <minimizedAffinity>
-8.12513

> <CNNscore>
0.2852366865

> <CNNaffinity>
6.6615195274

> <CNN_VS>
1.9001097679

> <CNNaffinity_variance>
0.0920976624

$$$$
[H]c1nc(N([H])c2c([H])c([H])c(F)c(Cl)c2[H])c2c(OC3([H])C([H])([H])C([H])([H])OC([H])([H])C3([H])[H])c([H])c(OC([H])([H])C([H])([H])C([H])([H])N3C([H])([H])C([H])([H])N(C([H])([H])[H])C([H])([H])C3([H])[H])c([H])c2n1


 38 42  0  0  0  0  0  0  0  0999 V2000
   -0.2891  -52.3935  -19.3399 C   0  0  0  0  0  0  0  0  0  0  0  0
    0.3324  -51.4655  -20.1302 C   0  0  0  0  0  0  0  0  0  0  0  0
    0.3964  -51.6479  -21.5073 C   0  0  0  0  0  0  0  0  0  0  0  0
   -0.1715  -52.7784  -22.1081 C   0  0  0  0  0  0  0  0  0  0  0  0
   -0.1055  -52.9820  -23.4545 C   0  0  0  0  0  0  0  0  0  0  0  0
   -0.6834  -54.1458  -23.9206 N   0  0  0  0  0  0  0  0  0  0  0  0
   -1.2752  -55.0327  -23.1462 C   0  0  0  0  0  0  0  0  0  0  0  0
   -1.3498  -54.8462  -21.8285 N   0  0  0  0  0  0  0  0  0  0  0  0
   -0.8050  -53.7236  -21.2773 C   0  0  0  0  0  0  0  0  0  0  0  0
   -0.8600  -53.5337  -19.9390 C   0  0  0  0  0  0  0  0  0  0  0  0
    0.4025  -52.0886  -24.3989 N   0  0  0  0  0  0  0  0  0  0  0  0
    0.8796  -51.2207  -24.1911 H   0  0  0  0  0  0  0  0  0  0  0  0
    0.2556  -52.3113  -25.8166 C   0  0  0  0  0  0  0  0  0  0  0  0
    1.3204  -52.5550  -26.6183 C   0  0  0  0  0  0  0  0  0  0  0  0
    1.0638  -52.7954  -27.9786 C   0  0  0  0  0  0  0  0  0  0  0  0
   -0.2318  -52.7807  -28.4719 C   0  0  0  0  0  0  0  0  0  0  0  0
   -0.4766  -53.0123  -29.7813 F   0  0  0  0  0  0  0  0  0  0  0  0
   -1.2991  -52.5319  -27.6504 C   0  0  0  0  0  0  0  0  0  0  0  0
   -2.9517  -52.5009  -28.2185 Cl  0  0  0  0  0  0  0  0  0  0  0  0
   -1.0528  -52.2981  -26.3267 C   0  0  0  0  0  0  0  0  0  0  0  0
   -0.3984  -52.2870  -17.9994 O   0  0  0  0  0  0  0  0  0  0  0  0
   -1.4392  -52.5526  -17.1306 C   0  0  0  0  0  0  0  0  0  0  0  0
   -1.6022  -51.4705  -16.1163 C   0  0  0  0  0  0  0  0  0  0  0  0
   -0.4790  -51.2307  -15.1847 C   0  0  0  0  0  0  0  0  0  0  0  0
    3.6802  -50.1784  -18.2997 C   0  0  0  0  0  0  0  0  0  0  0  0
    2.5484  -50.4035  -17.4351 N   0  0  0  0  0  0  0  0  0  0  0  0
    1.6080  -49.3169  -17.4618 C   0  0  0  0  0  0  0  0  0  0  0  0
    0.6634  -49.3650  -16.2898 C   0  0  0  0  0  0  0  0  0  0  0  0
    0.6551  -50.5359  -15.5434 N   0  0  0  0  0  0  0  0  0  0  0  0
    1.9235  -51.1018  -15.2021 C   0  0  0  0  0  0  0  0  0  0  0  0
    3.0441  -50.6809  -16.1082 C   0  0  0  0  0  0  0  0  0  0  0  0
    1.0184  -50.7337  -22.3076 O   0  0  0  0  0  0  0  0  0  0  0  0
    2.3002  -50.2687  -22.1755 C   0  0  0  0  0  0  0  0  0  0  0  0
    3.3438  -51.3972  -22.1954 C   0  0  0  0  0  0  0  0  0  0  0  0
    4.6963  -50.7206  -22.1208 C   0  0  0  0  0  0  0  0  0  0  0  0
    4.5883  -49.3637  -21.8334 O   0  0  0  0  0  0  0  0  0  0  0  0
    3.9897  -48.6524  -22.8644 C   0  0  0  0  0  0  0  0  0  0  0  0
    2.7329  -49.3589  -23.3234 C   0  0  0  0  0  0  0  0  0  0  0  0
 25 26  1  0  0  0
 26 27  1  0  0  0
 27 28  1  0  0  0
 28 29  1  0  0  0
 29 24  1  0  0  0
 24 23  1  0  0  0
 23 22  1  0  0  0
 22 21  1  0  0  0
 21  1  1  0  0  0
  1  2  2  0  0  0
  2  3  1  0  0  0
  3 32  1  0  0  0
 32 33  1  0  0  0
 33 34  1  0  0  0
 34 35  1  0  0  0
 35 36  1  0  0  0
 36 37  1  0  0  0
 37 38  1  0  0  0
  3  4  2  0  0  0
  4  5  1  0  0  0
  5 11  1  0  0  0
 11 13  1  0  0  0
 13 14  2  0  0  0
 14 15  1  0  0  0
 15 16  2  0  0  0
 16 17  1  0  0  0
 16 18  1  0  0  0
 18 19  1  0  0  0
 18 20  2  0  0  0
  5  6  2  0  0  0
  6  7  1  0  0  0
  7  8  2  0  0  0
  8  9  1  0  0  0
  9 10  2  0  0  0
 29 30  1  0  0  0
 30 31  1  0  0  0
 31 26  1  0  0  0
 10  1  1  0  0  0
 38 33  1  0  0  0
  9  4  1  0  0  0
 20 13  1  0  0  0
 11 12  1  0  0  0
M  END
> <minimizedAffinity>
-8.98298

> <CNNscore>
0.9583129883

> <CNNaffinity>
8.0516090393

> <CNN_VS>
7.7159614563

> <CNNaffinity_variance>
0.0237758607

$$$$
[H]c1nc(N([H])c2c([H])c([H])c(F)c(Cl)c2[H])c2c(OC3([H])C([H])([H])C([H])([H])OC([H])([H])C3([H])[H])c([H])c(OC([H])([H])C([H])([H])C([H])([H])N3C([H])([H])C([H])([H])N(C([H])([H])[H])C([H])([H])C3([H])[H])c([H])c2n1


 38 42  0  0  0  0  0  0  0  0999 V2000
   -0.2685  -52.0923  -19.2415 C   0  0  0  0  0  0  0  0  0  0  0  0
    0.2932  -51.1564  -20.0664 C   0  0  0  0  0  0  0  0  0  0  0  0
    0.3513  -51.3759  -21.4383 C   0  0  0  0  0  0  0  0  0  0  0  0
   -0.1618  -52.5526  -21.9985 C   0  0  0  0  0  0  0  0  0  0  0  0
   -0.1003  -52.7923  -23.3393 C   0  0  0  0  0  0  0  0  0  0  0  0
   -0.6200  -53.9986  -23.7638 N   0  0  0  0  0  0  0  0  0  0  0  0
   -1.1544  -54.8924  -22.9563 C   0  0  0  0  0  0  0  0  0  0  0  0
   -1.2240  -54.6711  -21.6437 N   0  0  0  0  0  0  0  0  0  0  0  0
   -0.7341  -53.5051  -21.1325 C   0  0  0  0  0  0  0  0  0  0  0  0
   -0.7840  -53.2787  -19.7997 C   0  0  0  0  0  0  0  0  0  0  0  0
    0.3482  -51.9015  -24.3157 N   0  0  0  0  0  0  0  0  0  0  0  0
    0.7603  -50.9941  -24.1400 H   0  0  0  0  0  0  0  0  0  0  0  0
    0.2267  -52.1885  -25.7242 C   0  0  0  0  0  0  0  0  0  0  0  0
    1.3056  -52.4678  -26.4949 C   0  0  0  0  0  0  0  0  0  0  0  0
    1.0733  -52.7699  -27.8471 C   0  0  0  0  0  0  0  0  0  0  0  0
   -0.2133  -52.7783  -28.3638 C   0  0  0  0  0  0  0  0  0  0  0  0
   -0.4346  -53.0693  -29.6655 F   0  0  0  0  0  0  0  0  0  0  0  0
   -1.2950  -52.4930  -27.5737 C   0  0  0  0  0  0  0  0  0  0  0  0
   -2.9372  -52.4887  -28.1722 Cl  0  0  0  0  0  0  0  0  0  0  0  0
   -1.0724  -52.1992  -26.2577 C   0  0  0  0  0  0  0  0  0  0  0  0
   -0.3681  -51.9520  -17.9033 O   0  0  0  0  0  0  0  0  0  0  0  0
   -1.1374  -52.6028  -16.9581 C   0  0  0  0  0  0  0  0  0  0  0  0
   -1.4817  -51.7081  -15.8147 C   0  0  0  0  0  0  0  0  0  0  0  0
   -2.8324  -51.1061  -15.7993 C   0  0  0  0  0  0  0  0  0  0  0  0
   -5.1912  -54.8888  -12.9293 C   0  0  0  0  0  0  0  0  0  0  0  0
   -4.5943  -53.8193  -13.6903 N   0  0  0  0  0  0  0  0  0  0  0  0
   -4.6304  -52.5609  -12.9968 C   0  0  0  0  0  0  0  0  0  0  0  0
   -4.3860  -51.4019  -13.9269 C   0  0  0  0  0  0  0  0  0  0  0  0
   -3.9137  -51.7097  -15.1959 N   0  0  0  0  0  0  0  0  0  0  0  0
   -4.5461  -52.7929  -15.8831 C   0  0  0  0  0  0  0  0  0  0  0  0
   -5.2439  -53.7664  -14.9780 C   0  0  0  0  0  0  0  0  0  0  0  0
    0.9141  -50.4541  -22.2729 O   0  0  0  0  0  0  0  0  0  0  0  0
    1.9874  -49.6487  -21.9973 C   0  0  0  0  0  0  0  0  0  0  0  0
    2.8396  -49.3524  -23.2419 C   0  0  0  0  0  0  0  0  0  0  0  0
    3.9252  -48.3983  -22.7909 C   0  0  0  0  0  0  0  0  0  0  0  0
    3.9659  -48.2674  -21.4064 O   0  0  0  0  0  0  0  0  0  0  0  0
    2.8335  -47.6420  -20.9025 C   0  0  0  0  0  0  0  0  0  0  0  0
    1.5880  -48.2619  -21.4970 C   0  0  0  0  0  0  0  0  0  0  0  0
 25 26  1  0  0  0
 26 27  1  0  0  0
 27 28  1  0  0  0
 28 29  1  0  0  0
 29 24  1  0  0  0
 24 23  1  0  0  0
 23 22  1  0  0  0
 22 21  1  0  0  0
 21  1  1  0  0  0
  1  2  2  0  0  0
  2  3  1  0  0  0
  3 32  1  0  0  0
 32 33  1  0  0  0
 33 34  1  0  0  0
 34 35  1  0  0  0
 35 36  1  0  0  0
 36 37  1  0  0  0
 37 38  1  0  0  0
  3  4  2  0  0  0
  4  5  1  0  0  0
  5 11  1  0  0  0
 11 13  1  0  0  0
 13 14  2  0  0  0
 14 15  1  0  0  0
 15 16  2  0  0  0
 16 17  1  0  0  0
 16 18  1  0  0  0
 18 19  1  0  0  0
 18 20  2  0  0  0
  5  6  2  0  0  0
  6  7  1  0  0  0
  7  8  2  0  0  0
  8  9  1  0  0  0
  9 10  2  0  0  0
 29 30  1  0  0  0
 30 31  1  0  0  0
 31 26  1  0  0  0
 10  1  1  0  0  0
 38 33  1  0  0  0
  9  4  1  0  0  0
 20 13  1  0  0  0
 11 12  1  0  0  0
M  END
> <minimizedAffinity>
-9.04977

> <CNNscore>
0.9384382963

> <CNNaffinity>
7.8543000221

> <CNN_VS>
7.3707756996

> <CNNaffinity_variance>
0.0115113007

$$$$
[H]c1nc(N([H])c2c([H])c([H])c(F)c(Cl)c2[H])c2c(OC3([H])C([H])([H])C([H])([H])OC([H])([H])C3([H])[H])c([H])c(OC([H])([H])C([H])([H])C([H])([H])N3C([H])([H])C([H])([H])N(C([H])([H])[H])C([H])([H])C3([H])[H])c([H])c2n1


 38 42  0  0  0  0  0  0  0  0999 V2000
   -0.1596  -52.0562  -19.2467 C   0  0  0  0  0  0  0  0  0  0  0  0
    0.4838  -51.2451  -20.1412 C   0  0  0  0  0  0  0  0  0  0  0  0
    0.4925  -51.5627  -21.4950 C   0  0  0  0  0  0  0  0  0  0  0  0
   -0.1542  -52.7123  -21.9659 C   0  0  0  0  0  0  0  0  0  0  0  0
   -0.1436  -53.0482  -23.2873 C   0  0  0  0  0  0  0  0  0  0  0  0
   -0.7976  -54.2172  -23.6207 N   0  0  0  0  0  0  0  0  0  0  0  0
   -1.4098  -54.9907  -22.7470 C   0  0  0  0  0  0  0  0  0  0  0  0
   -1.4308  -54.6742  -21.4524 N   0  0  0  0  0  0  0  0  0  0  0  0
   -0.8092  -53.5359  -21.0293 C   0  0  0  0  0  0  0  0  0  0  0  0
   -0.8098  -53.2151  -19.7150 C   0  0  0  0  0  0  0  0  0  0  0  0
    0.3796  -52.2800  -24.3285 N   0  0  0  0  0  0  0  0  0  0  0  0
    1.0213  -51.5045  -24.2229 H   0  0  0  0  0  0  0  0  0  0  0  0
    0.0100  -52.5064  -25.7043 C   0  0  0  0  0  0  0  0  0  0  0  0
   -1.1952  -52.1282  -26.1947 C   0  0  0  0  0  0  0  0  0  0  0  0
   -1.4406  -52.3618  -27.5581 C   0  0  0  0  0  0  0  0  0  0  0  0
   -0.4810  -52.9576  -28.3622 C   0  0  0  0  0  0  0  0  0  0  0  0
   -0.7191  -53.1814  -29.6742 F   0  0  0  0  0  0  0  0  0  0  0  0
    0.7330  -53.3360  -27.8533 C   0  0  0  0  0  0  0  0  0  0  0  0
    1.9780  -54.0907  -28.8204 Cl  0  0  0  0  0  0  0  0  0  0  0  0
    0.9749  -53.1097  -26.5274 C   0  0  0  0  0  0  0  0  0  0  0  0
   -0.2188  -51.8150  -17.9206 O   0  0  0  0  0  0  0  0  0  0  0  0
   -0.9074  -52.4349  -16.8958 C   0  0  0  0  0  0  0  0  0  0  0  0
   -1.7578  -51.4704  -16.1389 C   0  0  0  0  0  0  0  0  0  0  0  0
   -1.5630  -51.3885  -14.6752 C   0  0  0  0  0  0  0  0  0  0  0  0
    3.6745  -52.1520  -14.3665 C   0  0  0  0  0  0  0  0  0  0  0  0
    2.2576  -51.8897  -14.4189 N   0  0  0  0  0  0  0  0  0  0  0  0
    1.9607  -50.5017  -14.6449 C   0  0  0  0  0  0  0  0  0  0  0  0
    0.5318  -50.1718  -14.3022 C   0  0  0  0  0  0  0  0  0  0  0  0
   -0.3230  -51.2459  -14.0923 N   0  0  0  0  0  0  0  0  0  0  0  0
    0.1634  -52.3187  -13.2811 C   0  0  0  0  0  0  0  0  0  0  0  0
    1.6607  -52.3986  -13.2073 C   0  0  0  0  0  0  0  0  0  0  0  0
    1.1354  -50.7664  -22.3980 O   0  0  0  0  0  0  0  0  0  0  0  0
    2.4415  -50.3568  -22.3434 C   0  0  0  0  0  0  0  0  0  0  0  0
    3.4334  -51.5239  -22.4729 C   0  0  0  0  0  0  0  0  0  0  0  0
    4.8147  -50.9038  -22.4742 C   0  0  0  0  0  0  0  0  0  0  0  0
    4.7835  -49.5542  -22.1378 O   0  0  0  0  0  0  0  0  0  0  0  0
    4.1441  -48.7855  -23.1008 C   0  0  0  0  0  0  0  0  0  0  0  0
    2.8300  -49.4261  -23.4905 C   0  0  0  0  0  0  0  0  0  0  0  0
 25 26  1  0  0  0
 26 27  1  0  0  0
 27 28  1  0  0  0
 28 29  1  0  0  0
 29 24  1  0  0  0
 24 23  1  0  0  0
 23 22  1  0  0  0
 22 21  1  0  0  0
 21  1  1  0  0  0
  1  2  2  0  0  0
  2  3  1  0  0  0
  3 32  1  0  0  0
 32 33  1  0  0  0
 33 34  1  0  0  0
 34 35  1  0  0  0
 35 36  1  0  0  0
 36 37  1  0  0  0
 37 38  1  0  0  0
  3  4  2  0  0  0
  4  5  1  0  0  0
  5 11  1  0  0  0
 11 13  1  0  0  0
 13 14  2  0  0  0
 14 15  1  0  0  0
 15 16  2  0  0  0
 16 17  1  0  0  0
 16 18  1  0  0  0
 18 19  1  0  0  0
 18 20  2  0  0  0
  5  6  2  0  0  0
  6  7  1  0  0  0
  7  8  2  0  0  0
  8  9  1  0  0  0
  9 10  2  0  0  0
 29 30  1  0  0  0
 30 31  1  0  0  0
 31 26  1  0  0  0
 10  1  1  0  0  0
 38 33  1  0  0  0
  9  4  1  0  0  0
 20 13  1  0  0  0
 11 12  1  0  0  0
M  END
> <minimizedAffinity>
-8.83985

> <CNNscore>
0.9296503663

> <CNNaffinity>
7.7251982689

> <CNN_VS>
7.1817336082

> <CNNaffinity_variance>
0.0265481435

$$$$
[H]c1nc(N([H])c2c([H])c([H])c(F)c(Cl)c2[H])c2c(OC3([H])C([H])([H])C([H])([H])OC([H])([H])C3([H])[H])c([H])c(OC([H])([H])C([H])([H])C([H])([H])N3C([H])([H])C([H])([H])N(C([H])([H])[H])C([H])([H])C3([H])[H])c([H])c2n1


 38 42  0  0  0  0  0  0  0  0999 V2000
   -0.1826  -52.0786  -19.2912 C   0  0  0  0  0  0  0  0  0  0  0  0
    0.4704  -51.2755  -20.1860 C   0  0  0  0  0  0  0  0  0  0  0  0
    0.4825  -51.5982  -21.5386 C   0  0  0  0  0  0  0  0  0  0  0  0
   -0.1704  -52.7449  -22.0079 C   0  0  0  0  0  0  0  0  0  0  0  0
   -0.1566  -53.0858  -23.3279 C   0  0  0  0  0  0  0  0  0  0  0  0
   -0.8175  -54.2515  -23.6598 N   0  0  0  0  0  0  0  0  0  0  0  0
   -1.4388  -55.0173  -22.7858 C   0  0  0  0  0  0  0  0  0  0  0  0
   -1.4630  -54.6957  -21.4924 N   0  0  0  0  0  0  0  0  0  0  0  0
   -0.8351  -53.5604  -21.0710 C   0  0  0  0  0  0  0  0  0  0  0  0
   -0.8390  -53.2346  -19.7579 C   0  0  0  0  0  0  0  0  0  0  0  0
    0.3765  -52.3253  -24.3698 N   0  0  0  0  0  0  0  0  0  0  0  0
    1.0302  -51.5599  -24.2650 H   0  0  0  0  0  0  0  0  0  0  0  0
    0.0007  -52.5452  -25.7450 C   0  0  0  0  0  0  0  0  0  0  0  0
   -1.2071  -52.1657  -26.2279 C   0  0  0  0  0  0  0  0  0  0  0  0
   -1.4585  -52.3927  -27.5914 C   0  0  0  0  0  0  0  0  0  0  0  0
   -0.5021  -52.9836  -28.4028 C   0  0  0  0  0  0  0  0  0  0  0  0
   -0.7461  -53.2012  -29.7148 F   0  0  0  0  0  0  0  0  0  0  0  0
    0.7145  -53.3634  -27.9014 C   0  0  0  0  0  0  0  0  0  0  0  0
    1.9557  -54.1122  -28.8779 Cl  0  0  0  0  0  0  0  0  0  0  0  0
    0.9623  -53.1435  -26.5755 C   0  0  0  0  0  0  0  0  0  0  0  0
   -0.2456  -51.8320  -17.9663 O   0  0  0  0  0  0  0  0  0  0  0  0
   -0.9967  -52.3964  -16.9533 C   0  0  0  0  0  0  0  0  0  0  0  0
   -1.6845  -51.3585  -16.1313 C   0  0  0  0  0  0  0  0  0  0  0  0
   -0.8397  -50.4682  -15.3061 C   0  0  0  0  0  0  0  0  0  0  0  0
   -1.0290  -45.5575  -13.3165 C   0  0  0  0  0  0  0  0  0  0  0  0
   -0.9477  -46.8697  -13.9086 N   0  0  0  0  0  0  0  0  0  0  0  0
    0.3010  -47.0947  -14.5838 C   0  0  0  0  0  0  0  0  0  0  0  0
    0.2270  -48.2720  -15.5201 C   0  0  0  0  0  0  0  0  0  0  0  0
   -0.8853  -49.0947  -15.4007 N   0  0  0  0  0  0  0  0  0  0  0  0
   -2.1594  -48.4565  -15.2790 C   0  0  0  0  0  0  0  0  0  0  0  0
   -2.0899  -47.0447  -14.7734 C   0  0  0  0  0  0  0  0  0  0  0  0
    1.1348  -50.8098  -22.4418 O   0  0  0  0  0  0  0  0  0  0  0  0
    2.4329  -50.3790  -22.3645 C   0  0  0  0  0  0  0  0  0  0  0  0
    3.4466  -51.5106  -22.5987 C   0  0  0  0  0  0  0  0  0  0  0  0
    4.8152  -50.8639  -22.5602 C   0  0  0  0  0  0  0  0  0  0  0  0
    4.7604  -49.5477  -22.1129 O   0  0  0  0  0  0  0  0  0  0  0  0
    4.0960  -48.7155  -23.0035 C   0  0  0  0  0  0  0  0  0  0  0  0
    2.7911  -49.3489  -23.4338 C   0  0  0  0  0  0  0  0  0  0  0  0
 25 26  1  0  0  0
 26 27  1  0  0  0
 27 28  1  0  0  0
 28 29  1  0  0  0
 29 24  1  0  0  0
 24 23  1  0  0  0
 23 22  1  0  0  0
 22 21  1  0  0  0
 21  1  1  0  0  0
  1  2  2  0  0  0
  2  3  1  0  0  0
  3 32  1  0  0  0
 32 33  1  0  0  0
 33 34  1  0  0  0
 34 35  1  0  0  0
 35 36  1  0  0  0
 36 37  1  0  0  0
 37 38  1  0  0  0
  3  4  2  0  0  0
  4  5  1  0  0  0
  5 11  1  0  0  0
 11 13  1  0  0  0
 13 14  2  0  0  0
 14 15  1  0  0  0
 15 16  2  0  0  0
 16 17  1  0  0  0
 16 18  1  0  0  0
 18 19  1  0  0  0
 18 20  2  0  0  0
  5  6  2  0  0  0
  6  7  1  0  0  0
  7  8  2  0  0  0
  8  9  1  0  0  0
  9 10  2  0  0  0
 29 30  1  0  0  0
 30 31  1  0  0  0
 31 26  1  0  0  0
 10  1  1  0  0  0
 38 33  1  0  0  0
  9  4  1  0  0  0
 20 13  1  0  0  0
 11 12  1  0  0  0
M  END
> <minimizedAffinity>
-8.46055

> <CNNscore>
0.9257776737

> <CNNaffinity>
7.7471480370

> <CNN_VS>
7.1721367836

> <CNNaffinity_variance>
0.0424792804

$$$$
[H]c1nc(N([H])c2c([H])c([H])c(F)c(Cl)c2[H])c2c(OC3([H])C([H])([H])C([H])([H])OC([H])([H])C3([H])[H])c([H])c(OC([H])([H])C([H])([H])C([H])([H])N3C([H])([H])C([H])([H])N(C([H])([H])[H])C([H])([H])C3([H])[H])c([H])c2n1


 38 42  0  0  0  0  0  0  0  0999 V2000
   -0.0297  -52.2157  -19.6557 C   0  0  0  0  0  0  0  0  0  0  0  0
    0.6113  -51.3650  -20.5145 C   0  0  0  0  0  0  0  0  0  0  0  0
    0.6378  -51.6347  -21.8784 C   0  0  0  0  0  0  0  0  0  0  0  0
    0.0117  -52.7757  -22.3960 C   0  0  0  0  0  0  0  0  0  0  0  0
    0.0401  -53.0647  -23.7281 C   0  0  0  0  0  0  0  0  0  0  0  0
   -0.5943  -54.2301  -24.1090 N   0  0  0  0  0  0  0  0  0  0  0  0
   -1.2043  -55.0420  -23.2692 C   0  0  0  0  0  0  0  0  0  0  0  0
   -1.2425  -54.7714  -21.9646 N   0  0  0  0  0  0  0  0  0  0  0  0
   -0.6410  -53.6405  -21.4956 C   0  0  0  0  0  0  0  0  0  0  0  0
   -0.6590  -53.3661  -20.1709 C   0  0  0  0  0  0  0  0  0  0  0  0
    0.5629  -52.2534  -24.7363 N   0  0  0  0  0  0  0  0  0  0  0  0
    1.1531  -51.4439  -24.5935 H   0  0  0  0  0  0  0  0  0  0  0  0
    0.2676  -52.4817  -26.1297 C   0  0  0  0  0  0  0  0  0  0  0  0
    1.2331  -52.8049  -27.0237 C   0  0  0  0  0  0  0  0  0  0  0  0
    0.8331  -53.0429  -28.3494 C   0  0  0  0  0  0  0  0  0  0  0  0
   -0.4998  -52.9473  -28.7187 C   0  0  0  0  0  0  0  0  0  0  0  0
   -0.8826  -53.1768  -29.9950 F   0  0  0  0  0  0  0  0  0  0  0  0
   -1.4655  -52.6186  -27.8049 C   0  0  0  0  0  0  0  0  0  0  0  0
   -3.1591  -52.4838  -28.2154 Cl  0  0  0  0  0  0  0  0  0  0  0  0
   -1.0797  -52.3870  -26.5145 C   0  0  0  0  0  0  0  0  0  0  0  0
   -0.1053  -52.0220  -18.3226 O   0  0  0  0  0  0  0  0  0  0  0  0
   -0.0886  -50.8766  -17.5503 C   0  0  0  0  0  0  0  0  0  0  0  0
    0.9270  -50.9598  -16.4604 C   0  0  0  0  0  0  0  0  0  0  0  0
    0.6464  -50.2285  -15.2060 C   0  0  0  0  0  0  0  0  0  0  0  0
   -4.6486  -50.4542  -15.3548 C   0  0  0  0  0  0  0  0  0  0  0  0
   -3.2109  -50.4097  -15.2531 N   0  0  0  0  0  0  0  0  0  0  0  0
   -2.6816  -51.4700  -14.4400 C   0  0  0  0  0  0  0  0  0  0  0  0
   -1.2644  -51.1932  -14.0120 C   0  0  0  0  0  0  0  0  0  0  0  0
   -0.6126  -50.1478  -14.6527 N   0  0  0  0  0  0  0  0  0  0  0  0
   -1.3428  -48.9299  -14.8236 C   0  0  0  0  0  0  0  0  0  0  0  0
   -2.8337  -49.1000  -14.7784 C   0  0  0  0  0  0  0  0  0  0  0  0
    1.2784  -50.7985  -22.7463 O   0  0  0  0  0  0  0  0  0  0  0  0
    2.5945  -50.4212  -22.6978 C   0  0  0  0  0  0  0  0  0  0  0  0
    3.5548  -51.6214  -22.7087 C   0  0  0  0  0  0  0  0  0  0  0  0
    4.9531  -51.0410  -22.7317 C   0  0  0  0  0  0  0  0  0  0  0  0
    4.9542  -49.6677  -22.5090 O   0  0  0  0  0  0  0  0  0  0  0  0
    4.3556  -48.9651  -23.5460 C   0  0  0  0  0  0  0  0  0  0  0  0
    3.0315  -49.6003  -23.9095 C   0  0  0  0  0  0  0  0  0  0  0  0
 25 26  1  0  0  0
 26 27  1  0  0  0
 27 28  1  0  0  0
 28 29  1  0  0  0
 29 24  1  0  0  0
 24 23  1  0  0  0
 23 22  1  0  0  0
 22 21  1  0  0  0
 21  1  1  0  0  0
  1  2  2  0  0  0
  2  3  1  0  0  0
  3 32  1  0  0  0
 32 33  1  0  0  0
 33 34  1  0  0  0
 34 35  1  0  0  0
 35 36  1  0  0  0
 36 37  1  0  0  0
 37 38  1  0  0  0
  3  4  2  0  0  0
  4  5  1  0  0  0
  5 11  1  0  0  0
 11 13  1  0  0  0
 13 14  2  0  0  0
 14 15  1  0  0  0
 15 16  2  0  0  0
 16 17  1  0  0  0
 16 18  1  0  0  0
 18 19  1  0  0  0
 18 20  2  0  0  0
  5  6  2  0  0  0
  6  7  1  0  0  0
  7  8  2  0  0  0
  8  9  1  0  0  0
  9 10  2  0  0  0
 29 30  1  0  0  0
 30 31  1  0  0  0
 31 26  1  0  0  0
 10  1  1  0  0  0
 38 33  1  0  0  0
  9  4  1  0  0  0
 20 13  1  0  0  0
 11 12  1  0  0  0
M  END
> <minimizedAffinity>
-8.75683

> <CNNscore>
0.9212537408

> <CNNaffinity>
7.8901357651

> <CNN_VS>
7.2688169479

> <CNNaffinity_variance>
0.0428681448

$$$$
[H]c1nc(N([H])c2c([H])c([H])c(F)c(Cl)c2[H])c2c(OC3([H])C([H])([H])C([H])([H])OC([H])([H])C3([H])[H])c([H])c(OC([H])([H])C([H])([H])C([H])([H])N3C([H])([H])C([H])([H])N(C([H])([H])[H])C([H])([H])C3([H])[H])c([H])c2n1


 38 42  0  0  0  0  0  0  0  0999 V2000
   -0.0607  -52.0033  -19.3456 C   0  0  0  0  0  0  0  0  0  0  0  0
    0.5494  -51.1355  -20.2097 C   0  0  0  0  0  0  0  0  0  0  0  0
    0.5746  -51.4061  -21.5734 C   0  0  0  0  0  0  0  0  0  0  0  0
   -0.0213  -52.5655  -22.0854 C   0  0  0  0  0  0  0  0  0  0  0  0
    0.0064  -52.8554  -23.4174 C   0  0  0  0  0  0  0  0  0  0  0  0
   -0.5962  -54.0393  -23.7927 N   0  0  0  0  0  0  0  0  0  0  0  0
   -1.1765  -54.8675  -22.9479 C   0  0  0  0  0  0  0  0  0  0  0  0
   -1.2139  -54.5965  -21.6434 N   0  0  0  0  0  0  0  0  0  0  0  0
   -0.6425  -53.4478  -21.1797 C   0  0  0  0  0  0  0  0  0  0  0  0
   -0.6597  -53.1723  -19.8553 C   0  0  0  0  0  0  0  0  0  0  0  0
    0.4986  -52.0305  -24.4300 N   0  0  0  0  0  0  0  0  0  0  0  0
    1.0046  -51.1653  -24.2905 H   0  0  0  0  0  0  0  0  0  0  0  0
    0.2904  -52.3286  -25.8259 C   0  0  0  0  0  0  0  0  0  0  0  0
    1.3093  -52.6946  -26.6408 C   0  0  0  0  0  0  0  0  0  0  0  0
    0.9924  -52.9991  -27.9752 C   0  0  0  0  0  0  0  0  0  0  0  0
   -0.3147  -52.9242  -28.4313 C   0  0  0  0  0  0  0  0  0  0  0  0
   -0.6175  -53.2178  -29.7159 F   0  0  0  0  0  0  0  0  0  0  0  0
   -1.3351  -52.5518  -27.5970 C   0  0  0  0  0  0  0  0  0  0  0  0
   -2.9996  -52.4403  -28.1186 Cl  0  0  0  0  0  0  0  0  0  0  0  0
   -1.0301  -52.2553  -26.2983 C   0  0  0  0  0  0  0  0  0  0  0  0
   -0.1329  -51.8101  -18.0122 O   0  0  0  0  0  0  0  0  0  0  0  0
    0.0442  -50.6868  -17.2277 C   0  0  0  0  0  0  0  0  0  0  0  0
    0.7150  -51.0150  -15.9361 C   0  0  0  0  0  0  0  0  0  0  0  0
    2.1936  -51.0376  -15.9191 C   0  0  0  0  0  0  0  0  0  0  0  0
    3.0210  -47.5611  -19.8356 C   0  0  0  0  0  0  0  0  0  0  0  0
    2.8422  -48.4783  -18.7374 N   0  0  0  0  0  0  0  0  0  0  0  0
    2.9713  -47.8386  -17.4568 C   0  0  0  0  0  0  0  0  0  0  0  0
    3.1850  -48.8380  -16.3507 C   0  0  0  0  0  0  0  0  0  0  0  0
    2.9637  -50.1724  -16.6648 N   0  0  0  0  0  0  0  0  0  0  0  0
    3.5051  -50.6512  -17.8989 C   0  0  0  0  0  0  0  0  0  0  0  0
    3.7664  -49.5733  -18.9106 C   0  0  0  0  0  0  0  0  0  0  0  0
    1.1847  -50.5527  -22.4466 O   0  0  0  0  0  0  0  0  0  0  0  0
    2.4983  -50.1645  -22.4280 C   0  0  0  0  0  0  0  0  0  0  0  0
    3.4675  -51.3574  -22.4074 C   0  0  0  0  0  0  0  0  0  0  0  0
    4.8610  -50.7683  -22.4686 C   0  0  0  0  0  0  0  0  0  0  0  0
    4.8544  -49.3879  -22.2957 O   0  0  0  0  0  0  0  0  0  0  0  0
    4.2381  -48.7275  -23.3499 C   0  0  0  0  0  0  0  0  0  0  0  0
    2.9144  -49.3850  -23.6738 C   0  0  0  0  0  0  0  0  0  0  0  0
 25 26  1  0  0  0
 26 27  1  0  0  0
 27 28  1  0  0  0
 28 29  1  0  0  0
 29 24  1  0  0  0
 24 23  1  0  0  0
 23 22  1  0  0  0
 22 21  1  0  0  0
 21  1  1  0  0  0
  1  2  2  0  0  0
  2  3  1  0  0  0
  3 32  1  0  0  0
 32 33  1  0  0  0
 33 34  1  0  0  0
 34 35  1  0  0  0
 35 36  1  0  0  0
 36 37  1  0  0  0
 37 38  1  0  0  0
  3  4  2  0  0  0
  4  5  1  0  0  0
  5 11  1  0  0  0
 11 13  1  0  0  0
 13 14  2  0  0  0
 14 15  1  0  0  0
 15 16  2  0  0  0
 16 17  1  0  0  0
 16 18  1  0  0  0
 18 19  1  0  0  0
 18 20  2  0  0  0
  5  6  2  0  0  0
  6  7  1  0  0  0
  7  8  2  0  0  0
  8  9  1  0  0  0
  9 10  2  0  0  0
 29 30  1  0  0  0
 30 31  1  0  0  0
 31 26  1  0  0  0
 10  1  1  0  0  0
 38 33  1  0  0  0
  9  4  1  0  0  0
 20 13  1  0  0  0
 11 12  1  0  0  0
M  END
> <minimizedAffinity>
-8.59745

> <CNNscore>
0.9053361416

> <CNNaffinity>
7.9609770775

> <CNN_VS>
7.2073602676

> <CNNaffinity_variance>
0.0853094906

$$$$
[H]c1nc(N([H])c2c([H])c([H])c(F)c(Cl)c2[H])c2c(OC3([H])C([H])([H])C([H])([H])OC([H])([H])C3([H])[H])c([H])c(OC([H])([H])C([H])([H])C([H])([H])N3C([H])([H])C([H])([H])N(C([H])([H])[H])C([H])([H])C3([H])[H])c([H])c2n1


 38 42  0  0  0  0  0  0  0  0999 V2000
   -0.3510  -52.3507  -19.5137 C   0  0  0  0  0  0  0  0  0  0  0  0
    0.2724  -51.4281  -20.3088 C   0  0  0  0  0  0  0  0  0  0  0  0
    0.3705  -51.6368  -21.6801 C   0  0  0  0  0  0  0  0  0  0  0  0
   -0.1646  -52.7888  -22.2701 C   0  0  0  0  0  0  0  0  0  0  0  0
   -0.0648  -53.0181  -23.6104 C   0  0  0  0  0  0  0  0  0  0  0  0
   -0.6123  -54.2008  -24.0654 N   0  0  0  0  0  0  0  0  0  0  0  0
   -1.2064  -55.0821  -23.2864 C   0  0  0  0  0  0  0  0  0  0  0  0
   -1.3139  -54.8707  -21.9748 N   0  0  0  0  0  0  0  0  0  0  0  0
   -0.8006  -53.7280  -21.4346 C   0  0  0  0  0  0  0  0  0  0  0  0
   -0.8890  -53.5124  -20.1020 C   0  0  0  0  0  0  0  0  0  0  0  0
    0.4492  -52.1351  -24.5613 N   0  0  0  0  0  0  0  0  0  0  0  0
    0.9514  -51.2800  -24.3597 H   0  0  0  0  0  0  0  0  0  0  0  0
    0.2724  -52.3501  -25.9767 C   0  0  0  0  0  0  0  0  0  0  0  0
    1.3195  -52.5948  -26.8012 C   0  0  0  0  0  0  0  0  0  0  0  0
    1.0342  -52.8272  -28.1571 C   0  0  0  0  0  0  0  0  0  0  0  0
   -0.2711  -52.8040  -28.6239 C   0  0  0  0  0  0  0  0  0  0  0  0
   -0.5436  -53.0281  -29.9291 F   0  0  0  0  0  0  0  0  0  0  0  0
   -1.3203  -52.5544  -27.7796 C   0  0  0  0  0  0  0  0  0  0  0  0
   -2.9840  -52.5130  -28.3138 Cl  0  0  0  0  0  0  0  0  0  0  0  0
   -1.0460  -52.3283  -26.4600 C   0  0  0  0  0  0  0  0  0  0  0  0
   -0.4923  -52.2194  -18.1784 O   0  0  0  0  0  0  0  0  0  0  0  0
   -0.1085  -51.2250  -17.2993 C   0  0  0  0  0  0  0  0  0  0  0  0
   -0.3211  -51.6306  -15.8793 C   0  0  0  0  0  0  0  0  0  0  0  0
    0.8387  -51.5547  -14.9648 C   0  0  0  0  0  0  0  0  0  0  0  0
    3.0240  -46.9331  -16.3699 C   0  0  0  0  0  0  0  0  0  0  0  0
    2.4207  -48.1664  -15.9294 N   0  0  0  0  0  0  0  0  0  0  0  0
    1.3058  -47.9522  -15.0481 C   0  0  0  0  0  0  0  0  0  0  0  0
    0.9445  -49.2013  -14.2884 C   0  0  0  0  0  0  0  0  0  0  0  0
    1.5255  -50.3853  -14.7230 N   0  0  0  0  0  0  0  0  0  0  0  0
    2.9235  -50.3551  -15.0231 C   0  0  0  0  0  0  0  0  0  0  0  0
    3.4514  -48.9853  -15.3375 C   0  0  0  0  0  0  0  0  0  0  0  0
    0.9949  -50.7282  -22.4849 O   0  0  0  0  0  0  0  0  0  0  0  0
    2.1294  -50.0188  -22.1912 C   0  0  0  0  0  0  0  0  0  0  0  0
    3.1906  -50.1151  -23.2990 C   0  0  0  0  0  0  0  0  0  0  0  0
    4.3349  -49.2241  -22.8640 C   0  0  0  0  0  0  0  0  0  0  0  0
    4.1922  -48.7925  -21.5491 O   0  0  0  0  0  0  0  0  0  0  0  0
    3.1108  -47.9367  -21.3895 C   0  0  0  0  0  0  0  0  0  0  0  0
    1.8840  -48.5172  -22.0582 C   0  0  0  0  0  0  0  0  0  0  0  0
 25 26  1  0  0  0
 26 27  1  0  0  0
 27 28  1  0  0  0
 28 29  1  0  0  0
 29 24  1  0  0  0
 24 23  1  0  0  0
 23 22  1  0  0  0
 22 21  1  0  0  0
 21  1  1  0  0  0
  1  2  2  0  0  0
  2  3  1  0  0  0
  3 32  1  0  0  0
 32 33  1  0  0  0
 33 34  1  0  0  0
 34 35  1  0  0  0
 35 36  1  0  0  0
 36 37  1  0  0  0
 37 38  1  0  0  0
  3  4  2  0  0  0
  4  5  1  0  0  0
  5 11  1  0  0  0
 11 13  1  0  0  0
 13 14  2  0  0  0
 14 15  1  0  0  0
 15 16  2  0  0  0
 16 17  1  0  0  0
 16 18  1  0  0  0
 18 19  1  0  0  0
 18 20  2  0  0  0
  5  6  2  0  0  0
  6  7  1  0  0  0
  7  8  2  0  0  0
  8  9  1  0  0  0
  9 10  2  0  0  0
 29 30  1  0  0  0
 30 31  1  0  0  0
 31 26  1  0  0  0
 10  1  1  0  0  0
 38 33  1  0  0  0
  9  4  1  0  0  0
 20 13  1  0  0  0
 11 12  1  0  0  0
M  END
> <minimizedAffinity>
-8.57815

> <CNNscore>
0.9036060572

> <CNNaffinity>
7.8222427368

> <CNN_VS>
7.0682258606

> <CNNaffinity_variance>
0.0944254398

$$$$
[H]c1nc(N([H])c2c([H])c([H])c(F)c(Cl)c2[H])c2c(OC3([H])C([H])([H])C([H])([H])OC([H])([H])C3([H])[H])c([H])c(OC([H])([H])C([H])([H])C([H])([H])N3C([H])([H])C([H])([H])N(C([H])([H])[H])C([H])([H])C3([H])[H])c([H])c2n1


 38 42  0  0  0  0  0  0  0  0999 V2000
   -0.0777  -52.1511  -19.2430 C   0  0  0  0  0  0  0  0  0  0  0  0
    0.4268  -51.1877  -20.0732 C   0  0  0  0  0  0  0  0  0  0  0  0
    0.4200  -51.3761  -21.4510 C   0  0  0  0  0  0  0  0  0  0  0  0
   -0.1010  -52.5490  -22.0117 C   0  0  0  0  0  0  0  0  0  0  0  0
   -0.1024  -52.7582  -23.3589 C   0  0  0  0  0  0  0  0  0  0  0  0
   -0.6228  -53.9639  -23.7845 N   0  0  0  0  0  0  0  0  0  0  0  0
   -1.1017  -54.8843  -22.9721 C   0  0  0  0  0  0  0  0  0  0  0  0
   -1.1095  -54.6930  -21.6530 N   0  0  0  0  0  0  0  0  0  0  0  0
   -0.6138  -53.5301  -21.1403 C   0  0  0  0  0  0  0  0  0  0  0  0
   -0.6010  -53.3338  -19.8018 C   0  0  0  0  0  0  0  0  0  0  0  0
    0.2823  -51.8387  -24.3359 N   0  0  0  0  0  0  0  0  0  0  0  0
    0.6377  -50.9075  -24.1604 H   0  0  0  0  0  0  0  0  0  0  0  0
    0.1692  -52.1293  -25.7443 C   0  0  0  0  0  0  0  0  0  0  0  0
    1.2558  -52.3780  -26.5147 C   0  0  0  0  0  0  0  0  0  0  0  0
    1.0324  -52.6868  -27.8669 C   0  0  0  0  0  0  0  0  0  0  0  0
   -0.2533  -52.7320  -28.3838 C   0  0  0  0  0  0  0  0  0  0  0  0
   -0.4660  -53.0296  -29.6855 F   0  0  0  0  0  0  0  0  0  0  0  0
   -1.3429  -52.4775  -27.5940 C   0  0  0  0  0  0  0  0  0  0  0  0
   -2.9844  -52.5201  -28.1927 Cl  0  0  0  0  0  0  0  0  0  0  0  0
   -1.1289  -52.1771  -26.2780 C   0  0  0  0  0  0  0  0  0  0  0  0
   -0.1129  -52.0418  -17.8986 O   0  0  0  0  0  0  0  0  0  0  0  0
   -1.1543  -52.0895  -16.9920 C   0  0  0  0  0  0  0  0  0  0  0  0
   -1.1896  -50.8747  -16.1265 C   0  0  0  0  0  0  0  0  0  0  0  0
   -0.1287  -49.8632  -16.3230 C   0  0  0  0  0  0  0  0  0  0  0  0
    3.9019  -52.3572  -13.9472 C   0  0  0  0  0  0  0  0  0  0  0  0
    2.8461  -51.6328  -14.6102 N   0  0  0  0  0  0  0  0  0  0  0  0
    3.2809  -51.0215  -15.8362 C   0  0  0  0  0  0  0  0  0  0  0  0
    2.3203  -49.9601  -16.3040 C   0  0  0  0  0  0  0  0  0  0  0  0
    1.0845  -49.9155  -15.6724 N   0  0  0  0  0  0  0  0  0  0  0  0
    1.0759  -50.0210  -14.2461 C   0  0  0  0  0  0  0  0  0  0  0  0
    2.2976  -50.6803  -13.6748 C   0  0  0  0  0  0  0  0  0  0  0  0
    0.9254  -50.4266  -22.2911 O   0  0  0  0  0  0  0  0  0  0  0  0
    2.0471  -49.6670  -22.0870 C   0  0  0  0  0  0  0  0  0  0  0  0
    2.8766  -49.4809  -23.3676 C   0  0  0  0  0  0  0  0  0  0  0  0
    4.0235  -48.5647  -22.9965 C   0  0  0  0  0  0  0  0  0  0  0  0
    4.1116  -48.3657  -21.6224 O   0  0  0  0  0  0  0  0  0  0  0  0
    3.0288  -47.6555  -21.1220 C   0  0  0  0  0  0  0  0  0  0  0  0
    1.7356  -48.2371  -21.6497 C   0  0  0  0  0  0  0  0  0  0  0  0
 25 26  1  0  0  0
 26 27  1  0  0  0
 27 28  1  0  0  0
 28 29  1  0  0  0
 29 24  1  0  0  0
 24 23  1  0  0  0
 23 22  1  0  0  0
 22 21  1  0  0  0
 21  1  1  0  0  0
  1  2  2  0  0  0
  2  3  1  0  0  0
  3 32  1  0  0  0
 32 33  1  0  0  0
 33 34  1  0  0  0
 34 35  1  0  0  0
 35 36  1  0  0  0
 36 37  1  0  0  0
 37 38  1  0  0  0
  3  4  2  0  0  0
  4  5  1  0  0  0
  5 11  1  0  0  0
 11 13  1  0  0  0
 13 14  2  0  0  0
 14 15  1  0  0  0
 15 16  2  0  0  0
 16 17  1  0  0  0
 16 18  1  0  0  0
 18 19  1  0  0  0
 18 20  2  0  0  0
  5  6  2  0  0  0
  6  7  1  0  0  0
  7  8  2  0  0  0
  8  9  1  0  0  0
  9 10  2  0  0  0
 29 30  1  0  0  0
 30 31  1  0  0  0
 31 26  1  0  0  0
 10  1  1  0  0  0
 38 33  1  0  0  0
  9  4  1  0  0  0
 20 13  1  0  0  0
 11 12  1  0  0  0
M  END
> <minimizedAffinity>
-8.93185

> <CNNscore>
0.8873978853

> <CNNaffinity>
7.7240309715

> <CNN_VS>
6.8542885780

> <CNNaffinity_variance>
0.0322459340

$$$$
[H]c1nc(N([H])c2c([H])c([H])c(F)c(Cl)c2[H])c2c(OC3([H])C([H])([H])C([H])([H])OC([H])([H])C3([H])[H])c([H])c(OC([H])([H])C([H])([H])C([H])([H])N3C([H])([H])C([H])([H])N(C([H])([H])[H])C([H])([H])C3([H])[H])c([H])c2n1


 38 42  0  0  0  0  0  0  0  0999 V2000
    1.7440  -52.0716  -23.3123 C   0  0  0  0  0  0  0  0  0  0  0  0
    2.2108  -51.7591  -22.0647 C   0  0  0  0  0  0  0  0  0  0  0  0
    1.5118  -52.1645  -20.9330 C   0  0  0  0  0  0  0  0  0  0  0  0
    0.3235  -52.8969  -21.0482 C   0  0  0  0  0  0  0  0  0  0  0  0
   -0.3835  -53.2900  -19.9508 C   0  0  0  0  0  0  0  0  0  0  0  0
   -1.5497  -53.9859  -20.1984 N   0  0  0  0  0  0  0  0  0  0  0  0
   -1.9888  -54.2760  -21.4065 C   0  0  0  0  0  0  0  0  0  0  0  0
   -1.3073  -53.9008  -22.4887 N   0  0  0  0  0  0  0  0  0  0  0  0
   -0.1421  -53.2069  -22.3412 C   0  0  0  0  0  0  0  0  0  0  0  0
    0.5479  -52.8062  -23.4338 C   0  0  0  0  0  0  0  0  0  0  0  0
    0.0080  -53.1363  -18.6199 N   0  0  0  0  0  0  0  0  0  0  0  0
    0.8668  -53.4864  -18.2149 H   0  0  0  0  0  0  0  0  0  0  0  0
   -0.8267  -52.4690  -17.6510 C   0  0  0  0  0  0  0  0  0  0  0  0
   -0.4558  -51.3045  -17.0659 C   0  0  0  0  0  0  0  0  0  0  0  0
   -1.3589  -50.7183  -16.1633 C   0  0  0  0  0  0  0  0  0  0  0  0
   -2.5791  -51.3161  -15.8879 C   0  0  0  0  0  0  0  0  0  0  0  0
   -3.4468  -50.7502  -15.0190 F   0  0  0  0  0  0  0  0  0  0  0  0
   -2.9410  -52.4940  -16.4857 C   0  0  0  0  0  0  0  0  0  0  0  0
   -4.4652  -53.2911  -16.1752 Cl  0  0  0  0  0  0  0  0  0  0  0  0
   -2.0649  -53.0666  -17.3645 C   0  0  0  0  0  0  0  0  0  0  0  0
    2.3656  -51.7208  -24.4572 O   0  0  0  0  0  0  0  0  0  0  0  0
    2.1604  -50.6793  -25.3415 C   0  0  0  0  0  0  0  0  0  0  0  0
    3.0156  -49.5010  -25.0155 C   0  0  0  0  0  0  0  0  0  0  0  0
    4.4388  -49.5571  -25.4136 C   0  0  0  0  0  0  0  0  0  0  0  0
    6.6776  -49.4342  -20.6091 C   0  0  0  0  0  0  0  0  0  0  0  0
    6.1039  -49.5187  -21.9293 N   0  0  0  0  0  0  0  0  0  0  0  0
    5.8640  -50.8745  -22.3417 C   0  0  0  0  0  0  0  0  0  0  0  0
    5.6542  -50.9785  -23.8294 C   0  0  0  0  0  0  0  0  0  0  0  0
    5.4582  -49.7876  -24.5161 N   0  0  0  0  0  0  0  0  0  0  0  0
    6.3288  -48.6987  -24.1968 C   0  0  0  0  0  0  0  0  0  0  0  0
    6.9636  -48.8016  -22.8402 C   0  0  0  0  0  0  0  0  0  0  0  0
    1.9621  -51.8549  -19.6822 O   0  0  0  0  0  0  0  0  0  0  0  0
    2.5910  -50.6988  -19.3021 C   0  0  0  0  0  0  0  0  0  0  0  0
    1.6555  -49.4795  -19.3309 C   0  0  0  0  0  0  0  0  0  0  0  0
    2.4700  -48.3121  -18.8147 C   0  0  0  0  0  0  0  0  0  0  0  0
    3.8202  -48.6263  -18.6978 O   0  0  0  0  0  0  0  0  0  0  0  0
    4.0574  -49.5748  -17.7122 C   0  0  0  0  0  0  0  0  0  0  0  0
    3.0939  -50.7319  -17.8603 C   0  0  0  0  0  0  0  0  0  0  0  0
 25 26  1  0  0  0
 26 27  1  0  0  0
 27 28  1  0  0  0
 28 29  1  0  0  0
 29 24  1  0  0  0
 24 23  1  0  0  0
 23 22  1  0  0  0
 22 21  1  0  0  0
 21  1  1  0  0  0
  1  2  2  0  0  0
  2  3  1  0  0  0
  3 32  1  0  0  0
 32 33  1  0  0  0
 33 34  1  0  0  0
 34 35  1  0  0  0
 35 36  1  0  0  0
 36 37  1  0  0  0
 37 38  1  0  0  0
  3  4  2  0  0  0
  4  5  1  0  0  0
  5 11  1  0  0  0
 11 13  1  0  0  0
 13 14  2  0  0  0
 14 15  1  0  0  0
 15 16  2  0  0  0
 16 17  1  0  0  0
 16 18  1  0  0  0
 18 19  1  0  0  0
 18 20  2  0  0  0
  5  6  2  0  0  0
  6  7  1  0  0  0
  7  8  2  0  0  0
  8  9  1  0  0  0
  9 10  2  0  0  0
 29 30  1  0  0  0
 30 31  1  0  0  0
 31 26  1  0  0  0
 10  1  1  0  0  0
 38 33  1  0  0  0
  9  4  1  0  0  0
 20 13  1  0  0  0
 11 12  1  0  0  0
M  END
> <minimizedAffinity>
-6.91095

> <CNNscore>
0.7547479868

> <CNNaffinity>
7.3956003189

> <CNN_VS>
5.5818142891

> <CNNaffinity_variance>
0.0392455086

$$$$
[H]N=C(C(C#N)=C([H])c1c([H])c([H])c(O[H])c([H])c1[H])C([H])(C#N)C#N


 20 20  0  0  0  0  0  0  0  0999 V2000
    0.2847  -52.7982  -23.8879 C   0  0  0  0  0  0  0  0  0  0  0  0
    0.0037  -53.6587  -24.8317 C   0  0  0  0  0  0  0  0  0  0  0  0
   -0.8146  -53.2533  -18.4270 O   0  0  0  0  0  0  0  0  0  0  0  0
   -0.5503  -53.1491  -19.7722 C   0  0  0  0  0  0  0  0  0  0  0  0
   -1.5869  -53.1918  -20.7054 C   0  0  0  0  0  0  0  0  0  0  0  0
   -1.3033  -53.0860  -22.0520 C   0  0  0  0  0  0  0  0  0  0  0  0
    0.0224  -52.9367  -22.4700 C   0  0  0  0  0  0  0  0  0  0  0  0
    1.0301  -52.8952  -21.5486 C   0  0  0  0  0  0  0  0  0  0  0  0
    0.7613  -53.0017  -20.1722 C   0  0  0  0  0  0  0  0  0  0  0  0
   -0.8464  -54.1200  -17.9168 H   0  0  0  0  0  0  0  0  0  0  0  0
    0.3069  -53.4303  -26.2347 C   0  0  0  0  0  0  0  0  0  0  0  0
    1.5086  -53.3660  -26.6529 N   0  0  0  0  0  0  0  0  0  0  0  0
    2.3807  -53.4490  -26.1633 H   0  0  0  0  0  0  0  0  0  0  0  0
   -0.8132  -53.2693  -27.2170 C   0  0  0  0  0  0  0  0  0  0  0  0
   -1.7755  -52.2694  -26.7588 C   0  0  0  0  0  0  0  0  0  0  0  0
   -2.5678  -51.4789  -26.3924 N   0  0  0  0  0  0  0  0  0  0  0  0
   -0.3218  -52.9133  -28.5482 C   0  0  0  0  0  0  0  0  0  0  0  0
    0.0898  -52.6379  -29.6064 N   0  0  0  0  0  0  0  0  0  0  0  0
   -0.6466  -54.8939  -24.4349 C   0  0  0  0  0  0  0  0  0  0  0  0
   -1.1674  -55.9109  -24.1372 N   0  0  0  0  0  0  0  0  0  0  0  0
  3  4  1  0  0  0
  4  5  2  0  0  0
  5  6  1  0  0  0
  6  7  2  0  0  0
  7  1  1  0  0  0
  1  2  2  0  0  0
  2 19  1  0  0  0
 19 20  3  0  0  0
  2 11  1  0  0  0
 11 12  2  0  0  0
 11 14  1  0  0  0
 14 15  1  0  0  0
 15 16  3  0  0  0
 14 17  1  0  0  0
 17 18  3  0  0  0
  7  8  1  0  0  0
  8  9  2  0  0  0
  9  4  1  0  0  0
  3 10  1  0  0  0
 12 13  1  0  0  0
M  END
> <minimizedAffinity>
-5.83915

> <CNNscore>
0.8852465749

> <CNNaffinity>
6.2613682747

> <CNN_VS>
5.5428547859

> <CNNaffinity_variance>
0.0470297672

$$$$
[H]N=C(C(C#N)=C([H])c1c([H])c([H])c(O[H])c([H])c1[H])C([H])(C#N)C#N


 20 20  0  0  0  0  0  0  0  0999 V2000
    0.1012  -51.9746  -24.9296 C   0  0  0  0  0  0  0  0  0  0  0  0
    0.0026  -52.7172  -23.8578 C   0  0  0  0  0  0  0  0  0  0  0  0
   -1.4388  -53.2241  -30.1549 O   0  0  0  0  0  0  0  0  0  0  0  0
   -1.0546  -52.9251  -28.8691 C   0  0  0  0  0  0  0  0  0  0  0  0
    0.2794  -53.0497  -28.4791 C   0  0  0  0  0  0  0  0  0  0  0  0
    0.6474  -52.7456  -27.1841 C   0  0  0  0  0  0  0  0  0  0  0  0
   -0.3214  -52.3147  -26.2728 C   0  0  0  0  0  0  0  0  0  0  0  0
   -1.6246  -52.1952  -26.6646 C   0  0  0  0  0  0  0  0  0  0  0  0
   -2.0192  -52.5007  -27.9796 C   0  0  0  0  0  0  0  0  0  0  0  0
   -1.7376  -54.1335  -30.4648 H   0  0  0  0  0  0  0  0  0  0  0  0
    0.4572  -52.2878  -22.5458 C   0  0  0  0  0  0  0  0  0  0  0  0
    1.6974  -52.1864  -22.2727 N   0  0  0  0  0  0  0  0  0  0  0  0
    2.5109  -52.3597  -22.8344 H   0  0  0  0  0  0  0  0  0  0  0  0
   -0.5490  -51.9523  -21.4873 C   0  0  0  0  0  0  0  0  0  0  0  0
   -1.1952  -53.1584  -20.9741 C   0  0  0  0  0  0  0  0  0  0  0  0
   -1.7024  -54.1430  -20.5740 N   0  0  0  0  0  0  0  0  0  0  0  0
    0.0519  -51.2022  -20.3843 C   0  0  0  0  0  0  0  0  0  0  0  0
    0.5513  -50.6105  -19.5094 N   0  0  0  0  0  0  0  0  0  0  0  0
   -0.5900  -54.0331  -24.0114 C   0  0  0  0  0  0  0  0  0  0  0  0
   -1.0663  -55.1025  -24.1648 N   0  0  0  0  0  0  0  0  0  0  0  0
  3  4  1  0  0  0
  4  5  2  0  0  0
  5  6  1  0  0  0
  6  7  2  0  0  0
  7  1  1  0  0  0
  1  2  2  0  0  0
  2 19  1  0  0  0
 19 20  3  0  0  0
  2 11  1  0  0  0
 11 12  2  0  0  0
 11 14  1  0  0  0
 14 15  1  0  0  0
 15 16  3  0  0  0
 14 17  1  0  0  0
 17 18  3  0  0  0
  7  8  1  0  0  0
  8  9  2  0  0  0
  9  4  1  0  0  0
  3 10  1  0  0  0
 12 13  1  0  0  0
M  END
> <minimizedAffinity>
-6.26379

> <CNNscore>
0.8002467752

> <CNNaffinity>
5.8402595520

> <CNN_VS>
4.6736488342

> <CNNaffinity_variance>
0.1629067957

$$$$
[H]N=C(C(C#N)=C([H])c1c([H])c([H])c(O[H])c([H])c1[H])C([H])(C#N)C#N


 20 20  0  0  0  0  0  0  0  0999 V2000
    0.0422  -51.8765  -24.8759 C   0  0  0  0  0  0  0  0  0  0  0  0
   -0.0810  -52.6336  -23.8167 C   0  0  0  0  0  0  0  0  0  0  0  0
   -1.3697  -53.2603  -30.1035 O   0  0  0  0  0  0  0  0  0  0  0  0
   -1.0281  -52.9117  -28.8182 C   0  0  0  0  0  0  0  0  0  0  0  0
   -2.0032  -52.4905  -27.9132 C   0  0  0  0  0  0  0  0  0  0  0  0
   -1.6423  -52.1440  -26.6269 C   0  0  0  0  0  0  0  0  0  0  0  0
   -0.3005  -52.2181  -26.2412 C   0  0  0  0  0  0  0  0  0  0  0  0
    0.6465  -52.6324  -27.1344 C   0  0  0  0  0  0  0  0  0  0  0  0
    0.2985  -52.9893  -28.4495 C   0  0  0  0  0  0  0  0  0  0  0  0
   -1.3980  -52.6212  -30.8802 H   0  0  0  0  0  0  0  0  0  0  0  0
    0.2919  -52.2013  -22.4801 C   0  0  0  0  0  0  0  0  0  0  0  0
    0.4769  -50.9707  -22.2073 N   0  0  0  0  0  0  0  0  0  0  0  0
    0.4117  -50.1521  -22.7841 H   0  0  0  0  0  0  0  0  0  0  0  0
    0.4611  -53.2192  -21.3935 C   0  0  0  0  0  0  0  0  0  0  0  0
    1.3012  -52.7030  -20.3149 C   0  0  0  0  0  0  0  0  0  0  0  0
    1.9967  -52.2902  -19.4589 N   0  0  0  0  0  0  0  0  0  0  0  0
   -0.8263  -53.6582  -20.8547 C   0  0  0  0  0  0  0  0  0  0  0  0
   -1.8450  -54.0117  -20.4051 N   0  0  0  0  0  0  0  0  0  0  0  0
   -0.6150  -53.9690  -24.0109 C   0  0  0  0  0  0  0  0  0  0  0  0
   -1.0224  -55.0655  -24.1713 N   0  0  0  0  0  0  0  0  0  0  0  0
  3  4  1  0  0  0
  4  5  2  0  0  0
  5  6  1  0  0  0
  6  7  2  0  0  0
  7  1  1  0  0  0
  1  2  2  0  0  0
  2 19  1  0  0  0
 19 20  3  0  0  0
  2 11  1  0  0  0
 11 12  2  0  0  0
 11 14  1  0  0  0
 14 15  1  0  0  0
 15 16  3  0  0  0
 14 17  1  0  0  0
 17 18  3  0  0  0
  7  8  1  0  0  0
  8  9  2  0  0  0
  9  4  1  0  0  0
  3 10  1  0  0  0
 12 13  1  0  0  0
M  END
> <minimizedAffinity>
-6.12189

> <CNNscore>
0.7962906361

> <CNNaffinity>
5.9011449814

> <CNN_VS>
4.6990265846

> <CNNaffinity_variance>
0.1756873131

$$$$
[H]N=C(C(C#N)=C([H])c1c([H])c([H])c(O[H])c([H])c1[H])C([H])(C#N)C#N


 20 20  0  0  0  0  0  0  0  0999 V2000
    0.6637  -52.2356  -23.3805 C   0  0  0  0  0  0  0  0  0  0  0  0
   -0.0556  -53.2471  -23.7924 C   0  0  0  0  0  0  0  0  0  0  0  0
    1.8211  -50.7657  -18.1139 O   0  0  0  0  0  0  0  0  0  0  0  0
    1.5275  -51.1309  -19.4065 C   0  0  0  0  0  0  0  0  0  0  0  0
    0.2753  -50.8535  -19.9563 C   0  0  0  0  0  0  0  0  0  0  0  0
   -0.0023  -51.2276  -21.2555 C   0  0  0  0  0  0  0  0  0  0  0  0
    0.9752  -51.8826  -22.0105 C   0  0  0  0  0  0  0  0  0  0  0  0
    2.1983  -52.1490  -21.4634 C   0  0  0  0  0  0  0  0  0  0  0  0
    2.5000  -51.7760  -20.1414 C   0  0  0  0  0  0  0  0  0  0  0  0
    1.6626  -51.3452  -17.3068 H   0  0  0  0  0  0  0  0  0  0  0  0
   -0.3148  -53.5220  -25.1958 C   0  0  0  0  0  0  0  0  0  0  0  0
   -0.4323  -54.7144  -25.6286 N   0  0  0  0  0  0  0  0  0  0  0  0
   -0.3773  -55.5956  -25.1516 H   0  0  0  0  0  0  0  0  0  0  0  0
   -0.4512  -52.3829  -26.1599 C   0  0  0  0  0  0  0  0  0  0  0  0
    0.6552  -52.3660  -27.1145 C   0  0  0  0  0  0  0  0  0  0  0  0
    1.5612  -52.3476  -27.8667 N   0  0  0  0  0  0  0  0  0  0  0  0
   -1.7259  -52.4270  -26.8765 C   0  0  0  0  0  0  0  0  0  0  0  0
   -2.7456  -52.4407  -27.4465 N   0  0  0  0  0  0  0  0  0  0  0  0
   -0.6157  -54.1225  -22.7793 C   0  0  0  0  0  0  0  0  0  0  0  0
   -1.0526  -54.8237  -21.9358 N   0  0  0  0  0  0  0  0  0  0  0  0
  3  4  1  0  0  0
  4  5  2  0  0  0
  5  6  1  0  0  0
  6  7  2  0  0  0
  7  1  1  0  0  0
  1  2  2  0  0  0
  2 19  1  0  0  0
 19 20  3  0  0  0
  2 11  1  0  0  0
 11 12  2  0  0  0
 11 14  1  0  0  0
 14 15  1  0  0  0
 15 16  3  0  0  0
 14 17  1  0  0  0
 17 18  3  0  0  0
  7  8  1  0  0  0
  8  9  2  0  0  0
  9  4  1  0  0  0
  3 10  1  0  0  0
 12 13  1  0  0  0
M  END
> <minimizedAffinity>
-6.01281

> <CNNscore>
0.7675543427

> <CNNaffinity>
6.1057748795

> <CNN_VS>
4.6865139008

> <CNNaffinity_variance>
0.2246789187

$$$$
[H]N=C(C(C#N)=C([H])c1c([H])c([H])c(O[H])c([H])c1[H])C([H])(C#N)C#N


 20 20  0  0  0  0  0  0  0  0999 V2000
   -0.2437  -52.3099  -23.7032 C   0  0  0  0  0  0  0  0  0  0  0  0
   -0.4763  -53.1195  -24.7035 C   0  0  0  0  0  0  0  0  0  0  0  0
   -0.4183  -53.4907  -18.2431 O   0  0  0  0  0  0  0  0  0  0  0  0
   -0.3808  -53.2084  -19.5882 C   0  0  0  0  0  0  0  0  0  0  0  0
   -1.5400  -53.2799  -20.3618 C   0  0  0  0  0  0  0  0  0  0  0  0
   -1.4839  -52.9934  -21.7107 C   0  0  0  0  0  0  0  0  0  0  0  0
   -0.2641  -52.6336  -22.2914 C   0  0  0  0  0  0  0  0  0  0  0  0
    0.8650  -52.5657  -21.5253 C   0  0  0  0  0  0  0  0  0  0  0  0
    0.8281  -52.8542  -20.1493 C   0  0  0  0  0  0  0  0  0  0  0  0
   -0.2757  -54.4047  -17.8473 H   0  0  0  0  0  0  0  0  0  0  0  0
   -0.4326  -52.7009  -26.0946 C   0  0  0  0  0  0  0  0  0  0  0  0
   -1.1254  -51.7179  -26.5147 N   0  0  0  0  0  0  0  0  0  0  0  0
   -1.7618  -51.1086  -26.0341 H   0  0  0  0  0  0  0  0  0  0  0  0
    0.4468  -53.4349  -27.0608 C   0  0  0  0  0  0  0  0  0  0  0  0
    0.1726  -53.0264  -28.4369 C   0  0  0  0  0  0  0  0  0  0  0  0
   -0.0375  -52.7160  -29.5533 N   0  0  0  0  0  0  0  0  0  0  0  0
    1.8653  -53.2435  -26.7582 C   0  0  0  0  0  0  0  0  0  0  0  0
    2.9929  -53.0734  -26.5046 N   0  0  0  0  0  0  0  0  0  0  0  0
   -0.7959  -54.4986  -24.3838 C   0  0  0  0  0  0  0  0  0  0  0  0
   -1.0486  -55.6282  -24.1507 N   0  0  0  0  0  0  0  0  0  0  0  0
  3  4  1  0  0  0
  4  5  2  0  0  0
  5  6  1  0  0  0
  6  7  2  0  0  0
  7  1  1  0  0  0
  1  2  2  0  0  0
  2 19  1  0  0  0
 19 20  3  0  0  0
  2 11  1  0  0  0
 11 12  2  0  0  0
 11 14  1  0  0  0
 14 15  1  0  0  0
 15 16  3  0  0  0
 14 17  1  0  0  0
 17 18  3  0  0  0
  7  8  1  0  0  0
  8  9  2  0  0  0
  9  4  1  0  0  0
  3 10  1  0  0  0
 12 13  1  0  0  0
M  END
> <minimizedAffinity>
-5.98936

> <CNNscore>
0.6825302243

> <CNNaffinity>
5.8870291710

> <CNN_VS>
4.0180754662

> <CNNaffinity_variance>
0.0760194510

$$$$
[H]N=C(C(C#N)=C([H])c1c([H])c([H])c(O[H])c([H])c1[H])C([H])(C#N)C#N


 20 20  0  0  0  0  0  0  0  0999 V2000
   -0.6410  -53.6516  -24.3169 C   0  0  0  0  0  0  0  0  0  0  0  0
    0.3200  -53.4835  -25.1877 C   0  0  0  0  0  0  0  0  0  0  0  0
   -0.2344  -52.9684  -18.7847 O   0  0  0  0  0  0  0  0  0  0  0  0
   -0.3418  -53.1297  -20.1459 C   0  0  0  0  0  0  0  0  0  0  0  0
   -0.4380  -52.0207  -20.9874 C   0  0  0  0  0  0  0  0  0  0  0  0
   -0.5455  -52.2013  -22.3515 C   0  0  0  0  0  0  0  0  0  0  0  0
   -0.5572  -53.4958  -22.8791 C   0  0  0  0  0  0  0  0  0  0  0  0
   -0.4618  -54.5751  -22.0470 C   0  0  0  0  0  0  0  0  0  0  0  0
   -0.3518  -54.4116  -20.6544 C   0  0  0  0  0  0  0  0  0  0  0  0
   -1.0152  -52.9220  -18.1518 H   0  0  0  0  0  0  0  0  0  0  0  0
    0.1397  -53.6637  -26.6186 C   0  0  0  0  0  0  0  0  0  0  0  0
    0.4228  -54.7665  -27.1903 N   0  0  0  0  0  0  0  0  0  0  0  0
    0.7820  -55.6267  -26.8187 H   0  0  0  0  0  0  0  0  0  0  0  0
   -0.3933  -52.5333  -27.4453 C   0  0  0  0  0  0  0  0  0  0  0  0
   -0.0808  -52.7230  -28.8602 C   0  0  0  0  0  0  0  0  0  0  0  0
    0.1676  -52.8535  -30.0040 N   0  0  0  0  0  0  0  0  0  0  0  0
   -1.8365  -52.3668  -27.2725 C   0  0  0  0  0  0  0  0  0  0  0  0
   -2.9890  -52.2194  -27.1505 N   0  0  0  0  0  0  0  0  0  0  0  0
    1.6235  -53.1022  -24.6760 C   0  0  0  0  0  0  0  0  0  0  0  0
    2.6891  -52.8199  -24.2531 N   0  0  0  0  0  0  0  0  0  0  0  0
  3  4  1  0  0  0
  4  5  2  0  0  0
  5  6  1  0  0  0
  6  7  2  0  0  0
  7  1  1  0  0  0
  1  2  2  0  0  0
  2 19  1  0  0  0
 19 20  3  0  0  0
  2 11  1  0  0  0
 11 12  2  0  0  0
 11 14  1  0  0  0
 14 15  1  0  0  0
 15 16  3  0  0  0
 14 17  1  0  0  0
 17 18  3  0  0  0
  7  8  1  0  0  0
  8  9  2  0  0  0
  9  4  1  0  0  0
  3 10  1  0  0  0
 12 13  1  0  0  0
M  END
> <minimizedAffinity>
-6.37219

> <CNNscore>
0.6171776056

> <CNNaffinity>
5.8821702003

> <CNN_VS>
3.6303436756

> <CNNaffinity_variance>
0.2412408292

$$$$
[H]N=C(C(C#N)=C([H])c1c([H])c([H])c(O[H])c([H])c1[H])C([H])(C#N)C#N


 20 20  0  0  0  0  0  0  0  0999 V2000
    0.8157  -52.5338  -22.8622 C   0  0  0  0  0  0  0  0  0  0  0  0
    0.1883  -53.3410  -22.0467 C   0  0  0  0  0  0  0  0  0  0  0  0
    0.6814  -52.4688  -28.4493 O   0  0  0  0  0  0  0  0  0  0  0  0
    0.7175  -52.4944  -27.0751 C   0  0  0  0  0  0  0  0  0  0  0  0
    1.8114  -53.0412  -26.4030 C   0  0  0  0  0  0  0  0  0  0  0  0
    1.8307  -53.0588  -25.0231 C   0  0  0  0  0  0  0  0  0  0  0  0
    0.7522  -52.5278  -24.3094 C   0  0  0  0  0  0  0  0  0  0  0  0
   -0.3137  -51.9939  -24.9766 C   0  0  0  0  0  0  0  0  0  0  0  0
   -0.3520  -51.9671  -26.3823 C   0  0  0  0  0  0  0  0  0  0  0  0
    0.2978  -53.2001  -29.0241 H   0  0  0  0  0  0  0  0  0  0  0  0
    0.3154  -53.2701  -20.6006 C   0  0  0  0  0  0  0  0  0  0  0  0
    0.0707  -54.2788  -19.8619 N   0  0  0  0  0  0  0  0  0  0  0  0
   -0.2221  -55.2097  -20.0958 H   0  0  0  0  0  0  0  0  0  0  0  0
    0.7461  -51.9869  -19.9577 C   0  0  0  0  0  0  0  0  0  0  0  0
    0.0898  -51.7993  -18.6655 C   0  0  0  0  0  0  0  0  0  0  0  0
   -0.4362  -51.6256  -17.6262 N   0  0  0  0  0  0  0  0  0  0  0  0
    2.1982  -51.9224  -19.7921 C   0  0  0  0  0  0  0  0  0  0  0  0
    3.3598  -51.8892  -19.6715 N   0  0  0  0  0  0  0  0  0  0  0  0
   -0.6684  -54.3521  -22.6383 C   0  0  0  0  0  0  0  0  0  0  0  0
   -1.3424  -55.1854  -23.1336 N   0  0  0  0  0  0  0  0  0  0  0  0
  3  4  1  0  0  0
  4  5  2  0  0  0
  5  6  1  0  0  0
  6  7  2  0  0  0
  7  1  1  0  0  0
  1  2  2  0  0  0
  2 19  1  0  0  0
 19 20  3  0  0  0
  2 11  1  0  0  0
 11 12  2  0  0  0
 11 14  1  0  0  0
 14 15  1  0  0  0
 15 16  3  0  0  0
 14 17  1  0  0  0
 17 18  3  0  0  0
  7  8  1  0  0  0
  8  9  2  0  0  0
  9  4  1  0  0  0
  3 10  1  0  0  0
 12 13  1  0  0  0
M  END
> <minimizedAffinity>
-6.25462

> <CNNscore>
0.6163752675

> <CNNaffinity>
5.6786947250

> <CNN_VS>
3.5002069473

> <CNNaffinity_variance>
0.2808726728

$$$$
[H]N=C(C(C#N)=C([H])c1c([H])c([H])c(O[H])c([H])c1[H])C([H])(C#N)C#N


 20 20  0  0  0  0  0  0  0  0999 V2000
   -0.0657  -52.8172  -23.9449 C   0  0  0  0  0  0  0  0  0  0  0  0
    0.7788  -52.0339  -23.3256 C   0  0  0  0  0  0  0  0  0  0  0  0
   -1.0323  -53.1913  -29.4369 O   0  0  0  0  0  0  0  0  0  0  0  0
   -0.7947  -53.0892  -28.0866 C   0  0  0  0  0  0  0  0  0  0  0  0
   -1.5369  -52.2082  -27.2991 C   0  0  0  0  0  0  0  0  0  0  0  0
   -1.2847  -52.1184  -25.9451 C   0  0  0  0  0  0  0  0  0  0  0  0
   -0.2860  -52.9124  -25.3735 C   0  0  0  0  0  0  0  0  0  0  0  0
    0.4346  -53.7725  -26.1528 C   0  0  0  0  0  0  0  0  0  0  0  0
    0.1926  -53.8779  -27.5342 C   0  0  0  0  0  0  0  0  0  0  0  0
   -0.5741  -52.6371  -30.1408 H   0  0  0  0  0  0  0  0  0  0  0  0
    0.9299  -52.0086  -21.8803 C   0  0  0  0  0  0  0  0  0  0  0  0
    2.0798  -52.0237  -21.3322 N   0  0  0  0  0  0  0  0  0  0  0  0
    2.9993  -52.0524  -21.7333 H   0  0  0  0  0  0  0  0  0  0  0  0
   -0.2887  -51.9605  -21.0097 C   0  0  0  0  0  0  0  0  0  0  0  0
   -0.9386  -53.2676  -20.9412 C   0  0  0  0  0  0  0  0  0  0  0  0
   -1.4455  -54.3283  -20.8722 N   0  0  0  0  0  0  0  0  0  0  0  0
    0.0253  -51.4897  -19.6606 C   0  0  0  0  0  0  0  0  0  0  0  0
    0.2971  -51.1166  -18.5873 N   0  0  0  0  0  0  0  0  0  0  0  0
    1.5918  -51.1522  -24.1429 C   0  0  0  0  0  0  0  0  0  0  0  0
    2.2760  -50.4407  -24.7908 N   0  0  0  0  0  0  0  0  0  0  0  0
  3  4  1  0  0  0
  4  5  2  0  0  0
  5  6  1  0  0  0
  6  7  2  0  0  0
  7  1  1  0  0  0
  1  2  2  0  0  0
  2 19  1  0  0  0
 19 20  3  0  0  0
  2 11  1  0  0  0
 11 12  2  0  0  0
 11 14  1  0  0  0
 14 15  1  0  0  0
 15 16  3  0  0  0
 14 17  1  0  0  0
 17 18  3  0  0  0
  7  8  1  0  0  0
  8  9  2  0  0  0
  9  4  1  0  0  0
  3 10  1  0  0  0
 12 13  1  0  0  0
M  END
> <minimizedAffinity>
-5.82342

> <CNNscore>
0.5618733168

> <CNNaffinity>
5.5384879112

> <CNN_VS>
3.1119284630

> <CNNaffinity_variance>
0.3000862300

$$$$
[H]N=C(C(C#N)=C([H])c1c([H])c([H])c(O[H])c([H])c1[H])C([H])(C#N)C#N


 20 20  0  0  0  0  0  0  0  0999 V2000
   -0.4099  -52.3795  -23.4542 C   0  0  0  0  0  0  0  0  0  0  0  0
    0.5297  -52.0796  -22.5954 C   0  0  0  0  0  0  0  0  0  0  0  0
    0.1503  -53.7435  -28.8452 O   0  0  0  0  0  0  0  0  0  0  0  0
    0.0188  -53.4002  -27.5204 C   0  0  0  0  0  0  0  0  0  0  0  0
   -0.1921  -52.0720  -27.1480 C   0  0  0  0  0  0  0  0  0  0  0  0
   -0.3215  -51.7454  -25.8133 C   0  0  0  0  0  0  0  0  0  0  0  0
   -0.2401  -52.7499  -24.8443 C   0  0  0  0  0  0  0  0  0  0  0  0
   -0.0343  -54.0474  -25.2191 C   0  0  0  0  0  0  0  0  0  0  0  0
    0.1005  -54.4000  -26.5739 C   0  0  0  0  0  0  0  0  0  0  0  0
    1.0237  -53.7708  -29.3440 H   0  0  0  0  0  0  0  0  0  0  0  0
    0.2608  -51.7182  -21.2136 C   0  0  0  0  0  0  0  0  0  0  0  0
    0.1558  -50.5007  -20.8536 N   0  0  0  0  0  0  0  0  0  0  0  0
    0.2276  -49.6502  -21.3816 H   0  0  0  0  0  0  0  0  0  0  0  0
    0.0993  -52.7958  -20.1849 C   0  0  0  0  0  0  0  0  0  0  0  0
   -0.0926  -52.2271  -18.8525 C   0  0  0  0  0  0  0  0  0  0  0  0
   -0.2605  -51.7524  -17.7879 N   0  0  0  0  0  0  0  0  0  0  0  0
   -1.0103  -53.6931  -20.5074 C   0  0  0  0  0  0  0  0  0  0  0  0
   -1.8912  -54.4084  -20.7858 N   0  0  0  0  0  0  0  0  0  0  0  0
    1.9009  -52.1122  -23.0698 C   0  0  0  0  0  0  0  0  0  0  0  0
    3.0202  -52.1119  -23.4454 N   0  0  0  0  0  0  0  0  0  0  0  0
  3  4  1  0  0  0
  4  5  2  0  0  0
  5  6  1  0  0  0
  6  7  2  0  0  0
  7  1  1  0  0  0
  1  2  2  0  0  0
  2 19  1  0  0  0
 19 20  3  0  0  0
  2 11  1  0  0  0
 11 12  2  0  0  0
 11 14  1  0  0  0
 14 15  1  0  0  0
 15 16  3  0  0  0
 14 17  1  0  0  0
 17 18  3  0  0  0
  7  8  1  0  0  0
  8  9  2  0  0  0
  9  4  1  0  0  0
  3 10  1  0  0  0
 12 13  1  0  0  0
M  END
> <minimizedAffinity>
-5.99212

> <CNNscore>
0.5485758185

> <CNNaffinity>
5.3410444260

> <CNN_VS>
2.9299678802

> <CNNaffinity_variance>
0.1182714850

$$$$
[H]C([H])=C([H])C(=O)N([H])c1c(OC([H])([H])C([H])([H])N([H])C(=O)C([H])=C([H])C([H])([H])N(C([H])([H])[H])C([H])([H])[H])c([H])c2nc([H])nc(N([H])c3c([H])c([H])c(Br)c([H])c3F)c2c1[H]


 39 41  0  0  0  0  0  0  0  0999 V2000
    0.0777  -51.9566  -19.2468 C   0  0  0  0  0  0  0  0  0  0  0  0
   -0.5765  -53.1060  -19.6034 C   0  0  0  0  0  0  0  0  0  0  0  0
   -0.6513  -53.5345  -20.9203 C   0  0  0  0  0  0  0  0  0  0  0  0
   -1.2948  -54.6542  -21.2591 N   0  0  0  0  0  0  0  0  0  0  0  0
   -1.3953  -55.1019  -22.5165 C   0  0  0  0  0  0  0  0  0  0  0  0
   -0.8111  -54.3690  -23.4612 N   0  0  0  0  0  0  0  0  0  0  0  0
   -0.1361  -53.2221  -23.2233 C   0  0  0  0  0  0  0  0  0  0  0  0
   -0.0491  -52.7808  -21.8995 C   0  0  0  0  0  0  0  0  0  0  0  0
    0.6085  -51.6211  -21.5230 C   0  0  0  0  0  0  0  0  0  0  0  0
    0.7040  -51.1620  -20.2200 C   0  0  0  0  0  0  0  0  0  0  0  0
    1.3642  -49.9821  -19.8145 N   0  0  0  0  0  0  0  0  0  0  0  0
    2.7191  -49.7612  -19.5370 C   0  0  0  0  0  0  0  0  0  0  0  0
    3.5485  -50.6933  -19.6342 O   0  0  0  0  0  0  0  0  0  0  0  0
    0.7148  -49.1193  -19.7037 H   0  0  0  0  0  0  0  0  0  0  0  0
    3.2304  -48.4502  -19.1260 C   0  0  0  0  0  0  0  0  0  0  0  0
    2.9998  -47.9200  -17.9627 C   0  0  0  0  0  0  0  0  0  0  0  0
    0.4826  -52.4856  -24.2371 N   0  0  0  0  0  0  0  0  0  0  0  0
    1.1395  -51.7068  -23.9099 H   0  0  0  0  0  0  0  0  0  0  0  0
    0.3681  -52.6221  -25.6501 C   0  0  0  0  0  0  0  0  0  0  0  0
    1.3289  -53.1445  -26.4648 C   0  0  0  0  0  0  0  0  0  0  0  0
    1.1222  -53.2517  -27.8384 C   0  0  0  0  0  0  0  0  0  0  0  0
   -0.0400  -52.8453  -28.4412 C   0  0  0  0  0  0  0  0  0  0  0  0
   -0.3281  -52.9889  -30.3174 Br  0  0  0  0  0  0  0  0  0  0  0  0
   -0.9987  -52.3207  -27.6045 C   0  0  0  0  0  0  0  0  0  0  0  0
   -0.8259  -52.2043  -26.2679 C   0  0  0  0  0  0  0  0  0  0  0  0
   -1.8156  -51.6708  -25.4745 F   0  0  0  0  0  0  0  0  0  0  0  0
    0.1475  -51.5367  -17.9298 O   0  0  0  0  0  0  0  0  0  0  0  0
   -0.7852  -52.0366  -16.9931 C   0  0  0  0  0  0  0  0  0  0  0  0
   -0.6310  -51.3565  -15.6471 C   0  0  0  0  0  0  0  0  0  0  0  0
   -1.9436  -49.3435  -14.9781 C   0  0  0  0  0  0  0  0  0  0  0  0
   -2.5883  -50.0952  -14.1773 O   0  0  0  0  0  0  0  0  0  0  0  0
   -0.9314  -49.9447  -15.7520 N   0  0  0  0  0  0  0  0  0  0  0  0
   -0.3858  -49.3709  -16.4127 H   0  0  0  0  0  0  0  0  0  0  0  0
   -1.3318  -47.0077  -14.9499 C   0  0  0  0  0  0  0  0  0  0  0  0
   -2.2411  -47.9367  -15.0846 C   0  0  0  0  0  0  0  0  0  0  0  0
   -1.7115  -45.5551  -15.0739 C   0  0  0  0  0  0  0  0  0  0  0  0
   -0.5340  -44.0913  -13.6677 C   0  0  0  0  0  0  0  0  0  0  0  0
   -0.5625  -44.6828  -14.9909 N   0  0  0  0  0  0  0  0  0  0  0  0
   -0.7366  -43.6140  -15.9526 C   0  0  0  0  0  0  0  0  0  0  0  0
 37 38  1  0  0  0
 38 39  1  0  0  0
 38 36  1  0  0  0
 36 34  1  0  0  0
 34 35  2  0  0  0
 35 30  1  0  0  0
 30 31  2  0  0  0
 30 32  1  0  0  0
 32 29  1  0  0  0
 29 28  1  0  0  0
 28 27  1  0  0  0
 27  1  1  0  0  0
  1  2  2  0  0  0
  2  3  1  0  0  0
  3  4  2  0  0  0
  4  5  1  0  0  0
  5  6  2  0  0  0
  6  7  1  0  0  0
  7 17  1  0  0  0
 17 19  1  0  0  0
 19 20  2  0  0  0
 20 21  1  0  0  0
 21 22  2  0  0  0
 22 23  1  0  0  0
 22 24  1  0  0  0
 24 25  2  0  0  0
 25 26  1  0  0  0
  7  8  2  0  0  0
  8  9  1  0  0  0
  9 10  2  0  0  0
 10 11  1  0  0  0
 11 12  1  0  0  0
 12 13  2  0  0  0
 12 15  1  0  0  0
 15 16  2  0  0  0
 10  1  1  0  0  0
  8  3  1  0  0  0
 25 19  1  0  0  0
 32 33  1  0  0  0
 17 18  1  0  0  0
 11 14  1  0  0  0
M  END
> <minimizedAffinity>
-6.85423

> <CNNscore>
0.8689425588

> <CNNaffinity>
7.4798479080

> <CNN_VS>
6.4995579720

> <CNNaffinity_variance>
0.0686357245

$$$$
[H]C([H])=C([H])C(=O)N([H])c1c(OC([H])([H])C([H])([H])N([H])C(=O)C([H])=C([H])C([H])([H])N(C([H])([H])[H])C([H])([H])[H])c([H])c2nc([H])nc(N([H])c3c([H])c([H])c(Br)c([H])c3F)c2c1[H]


 39 41  0  0  0  0  0  0  0  0999 V2000
   -0.4026  -52.7495  -19.4094 C   0  0  0  0  0  0  0  0  0  0  0  0
   -0.8980  -53.7951  -20.1424 C   0  0  0  0  0  0  0  0  0  0  0  0
   -0.7683  -53.8565  -21.5218 C   0  0  0  0  0  0  0  0  0  0  0  0
   -1.2581  -54.8778  -22.2286 N   0  0  0  0  0  0  0  0  0  0  0  0
   -1.1594  -54.9751  -23.5599 C   0  0  0  0  0  0  0  0  0  0  0  0
   -0.5325  -53.9832  -24.1876 N   0  0  0  0  0  0  0  0  0  0  0  0
   -0.0015  -52.9067  -23.5656 C   0  0  0  0  0  0  0  0  0  0  0  0
   -0.1213  -52.8342  -22.1744 C   0  0  0  0  0  0  0  0  0  0  0  0
    0.3741  -51.7838  -21.4192 C   0  0  0  0  0  0  0  0  0  0  0  0
    0.2637  -51.6882  -20.0421 C   0  0  0  0  0  0  0  0  0  0  0  0
    0.7562  -50.6260  -19.2537 N   0  0  0  0  0  0  0  0  0  0  0  0
    1.9613  -50.5144  -18.5490 C   0  0  0  0  0  0  0  0  0  0  0  0
    2.7929  -51.4496  -18.5588 O   0  0  0  0  0  0  0  0  0  0  0  0
    0.0930  -49.7690  -19.1896 H   0  0  0  0  0  0  0  0  0  0  0  0
    2.3086  -49.3179  -17.7763 C   0  0  0  0  0  0  0  0  0  0  0  0
    3.4668  -49.1326  -17.2181 C   0  0  0  0  0  0  0  0  0  0  0  0
    0.6677  -51.8908  -24.2533 N   0  0  0  0  0  0  0  0  0  0  0  0
    0.0698  -51.3174  -24.9308 H   0  0  0  0  0  0  0  0  0  0  0  0
    2.0362  -51.5029  -24.1825 C   0  0  0  0  0  0  0  0  0  0  0  0
    2.4831  -50.2915  -23.7437 C   0  0  0  0  0  0  0  0  0  0  0  0
    3.8457  -50.0053  -23.6961 C   0  0  0  0  0  0  0  0  0  0  0  0
    4.8011  -50.9099  -24.0810 C   0  0  0  0  0  0  0  0  0  0  0  0
    6.6643  -50.5246  -24.0185 Br  0  0  0  0  0  0  0  0  0  0  0  0
    4.3328  -52.1271  -24.5209 C   0  0  0  0  0  0  0  0  0  0  0  0
    3.0163  -52.4328  -24.5781 C   0  0  0  0  0  0  0  0  0  0  0  0
    2.5991  -53.6647  -25.0277 F   0  0  0  0  0  0  0  0  0  0  0  0
   -0.5365  -52.6966  -18.0328 O   0  0  0  0  0  0  0  0  0  0  0  0
   -1.8140  -52.8705  -17.4540 C   0  0  0  0  0  0  0  0  0  0  0  0
   -1.9608  -52.0487  -16.1886 C   0  0  0  0  0  0  0  0  0  0  0  0
   -0.6703  -51.5072  -14.1236 C   0  0  0  0  0  0  0  0  0  0  0  0
   -1.6616  -50.7982  -13.7537 O   0  0  0  0  0  0  0  0  0  0  0  0
   -0.7775  -52.1669  -15.3640 N   0  0  0  0  0  0  0  0  0  0  0  0
    0.0031  -52.7510  -15.7001 H   0  0  0  0  0  0  0  0  0  0  0  0
    1.5810  -52.2664  -13.6924 C   0  0  0  0  0  0  0  0  0  0  0  0
    0.5099  -51.6264  -13.3039 C   0  0  0  0  0  0  0  0  0  0  0  0
    2.7807  -52.3521  -12.7851 C   0  0  0  0  0  0  0  0  0  0  0  0
    4.0327  -50.3998  -13.1423 C   0  0  0  0  0  0  0  0  0  0  0  0
    3.9730  -51.8238  -13.4074 N   0  0  0  0  0  0  0  0  0  0  0  0
    3.8534  -52.0054  -14.8392 C   0  0  0  0  0  0  0  0  0  0  0  0
 37 38  1  0  0  0
 38 39  1  0  0  0
 38 36  1  0  0  0
 36 34  1  0  0  0
 34 35  2  0  0  0
 35 30  1  0  0  0
 30 31  2  0  0  0
 30 32  1  0  0  0
 32 29  1  0  0  0
 29 28  1  0  0  0
 28 27  1  0  0  0
 27  1  1  0  0  0
  1  2  2  0  0  0
  2  3  1  0  0  0
  3  4  2  0  0  0
  4  5  1  0  0  0
  5  6  2  0  0  0
  6  7  1  0  0  0
  7 17  1  0  0  0
 17 19  1  0  0  0
 19 20  2  0  0  0
 20 21  1  0  0  0
 21 22  2  0  0  0
 22 23  1  0  0  0
 22 24  1  0  0  0
 24 25  2  0  0  0
 25 26  1  0  0  0
  7  8  2  0  0  0
  8  9  1  0  0  0
  9 10  2  0  0  0
 10 11  1  0  0  0
 11 12  1  0  0  0
 12 13  2  0  0  0
 12 15  1  0  0  0
 15 16  2  0  0  0
 10  1  1  0  0  0
  8  3  1  0  0  0
 25 19  1  0  0  0
 32 33  1  0  0  0
 17 18  1  0  0  0
 11 14  1  0  0  0
M  END
> <minimizedAffinity>
-7.42997

> <CNNscore>
0.7323098779

> <CNNaffinity>
7.3093438148

> <CNN_VS>
5.3527045250

> <CNNaffinity_variance>
0.0571819544

$$$$
[H]C([H])=C([H])C(=O)N([H])c1c(OC([H])([H])C([H])([H])N([H])C(=O)C([H])=C([H])C([H])([H])N(C([H])([H])[H])C([H])([H])[H])c([H])c2nc([H])nc(N([H])c3c([H])c([H])c(Br)c([H])c3F)c2c1[H]


 39 41  0  0  0  0  0  0  0  0999 V2000
   -0.4286  -52.7799  -19.3057 C   0  0  0  0  0  0  0  0  0  0  0  0
   -0.9380  -53.8177  -20.0403 C   0  0  0  0  0  0  0  0  0  0  0  0
   -0.8301  -53.8667  -21.4222 C   0  0  0  0  0  0  0  0  0  0  0  0
   -1.3335  -54.8805  -22.1304 N   0  0  0  0  0  0  0  0  0  0  0  0
   -1.2558  -54.9658  -23.4639 C   0  0  0  0  0  0  0  0  0  0  0  0
   -0.6364  -53.9697  -24.0923 N   0  0  0  0  0  0  0  0  0  0  0  0
   -0.0930  -52.9002  -23.4690 C   0  0  0  0  0  0  0  0  0  0  0  0
   -0.1908  -52.8401  -22.0755 C   0  0  0  0  0  0  0  0  0  0  0  0
    0.3190  -51.7978  -21.3186 C   0  0  0  0  0  0  0  0  0  0  0  0
    0.2304  -51.7145  -19.9392 C   0  0  0  0  0  0  0  0  0  0  0  0
    0.7379  -50.6607  -19.1490 N   0  0  0  0  0  0  0  0  0  0  0  0
    1.9875  -50.5221  -18.5320 C   0  0  0  0  0  0  0  0  0  0  0  0
    2.8532  -51.4194  -18.6400 O   0  0  0  0  0  0  0  0  0  0  0  0
    0.0472  -49.8361  -19.0025 H   0  0  0  0  0  0  0  0  0  0  0  0
    2.3436  -49.3400  -17.7416 C   0  0  0  0  0  0  0  0  0  0  0  0
    1.6649  -48.9312  -16.7122 C   0  0  0  0  0  0  0  0  0  0  0  0
    0.5678  -51.8797  -24.1578 N   0  0  0  0  0  0  0  0  0  0  0  0
   -0.0444  -51.2816  -24.8002 H   0  0  0  0  0  0  0  0  0  0  0  0
    1.9443  -51.5153  -24.1283 C   0  0  0  0  0  0  0  0  0  0  0  0
    2.4270  -50.3221  -23.6776 C   0  0  0  0  0  0  0  0  0  0  0  0
    3.7950  -50.0587  -23.6733 C   0  0  0  0  0  0  0  0  0  0  0  0
    4.7206  -50.9686  -24.1145 C   0  0  0  0  0  0  0  0  0  0  0  0
    6.5909  -50.6144  -24.1115 Br  0  0  0  0  0  0  0  0  0  0  0  0
    4.2163  -52.1672  -24.5657 C   0  0  0  0  0  0  0  0  0  0  0  0
    2.8937  -52.4506  -24.5816 C   0  0  0  0  0  0  0  0  0  0  0  0
    2.4399  -53.6644  -25.0448 F   0  0  0  0  0  0  0  0  0  0  0  0
   -0.5407  -52.7393  -17.9268 O   0  0  0  0  0  0  0  0  0  0  0  0
   -1.8246  -52.7122  -17.3368 C   0  0  0  0  0  0  0  0  0  0  0  0
   -1.7659  -52.1867  -15.9161 C   0  0  0  0  0  0  0  0  0  0  0  0
   -2.0828  -49.7725  -15.3742 C   0  0  0  0  0  0  0  0  0  0  0  0
   -3.2297  -50.0806  -14.9142 O   0  0  0  0  0  0  0  0  0  0  0  0
   -1.2968  -50.8179  -15.8980 N   0  0  0  0  0  0  0  0  0  0  0  0
   -0.3617  -50.6106  -16.2803 H   0  0  0  0  0  0  0  0  0  0  0  0
   -2.3588  -47.4074  -14.9728 C   0  0  0  0  0  0  0  0  0  0  0  0
   -1.6131  -48.4093  -15.3574 C   0  0  0  0  0  0  0  0  0  0  0  0
   -1.8043  -46.0066  -14.9795 C   0  0  0  0  0  0  0  0  0  0  0  0
   -2.3067  -44.1561  -13.6268 C   0  0  0  0  0  0  0  0  0  0  0  0
   -1.6805  -45.4634  -13.6462 N   0  0  0  0  0  0  0  0  0  0  0  0
   -0.2720  -45.2866  -13.3596 C   0  0  0  0  0  0  0  0  0  0  0  0
 37 38  1  0  0  0
 38 39  1  0  0  0
 38 36  1  0  0  0
 36 34  1  0  0  0
 34 35  2  0  0  0
 35 30  1  0  0  0
 30 31  2  0  0  0
 30 32  1  0  0  0
 32 29  1  0  0  0
 29 28  1  0  0  0
 28 27  1  0  0  0
 27  1  1  0  0  0
  1  2  2  0  0  0
  2  3  1  0  0  0
  3  4  2  0  0  0
  4  5  1  0  0  0
  5  6  2  0  0  0
  6  7  1  0  0  0
  7 17  1  0  0  0
 17 19  1  0  0  0
 19 20  2  0  0  0
 20 21  1  0  0  0
 21 22  2  0  0  0
 22 23  1  0  0  0
 22 24  1  0  0  0
 24 25  2  0  0  0
 25 26  1  0  0  0
  7  8  2  0  0  0
  8  9  1  0  0  0
  9 10  2  0  0  0
 10 11  1  0  0  0
 11 12  1  0  0  0
 12 13  2  0  0  0
 12 15  1  0  0  0
 15 16  2  0  0  0
 10  1  1  0  0  0
  8  3  1  0  0  0
 25 19  1  0  0  0
 32 33  1  0  0  0
 17 18  1  0  0  0
 11 14  1  0  0  0
M  END
> <minimizedAffinity>
-7.06400

> <CNNscore>
0.7070859075

> <CNNaffinity>
7.2759504318

> <CNN_VS>
5.1447219849

> <CNNaffinity_variance>
0.0426749997

$$$$
[H]C([H])=C([H])C(=O)N([H])c1c(OC([H])([H])C([H])([H])N([H])C(=O)C([H])=C([H])C([H])([H])N(C([H])([H])[H])C([H])([H])[H])c([H])c2nc([H])nc(N([H])c3c([H])c([H])c(Br)c([H])c3F)c2c1[H]


 39 41  0  0  0  0  0  0  0  0999 V2000
    1.8091  -51.1163  -22.2753 C   0  0  0  0  0  0  0  0  0  0  0  0
    0.8731  -51.9630  -22.8074 C   0  0  0  0  0  0  0  0  0  0  0  0
    0.0465  -52.7429  -22.0124 C   0  0  0  0  0  0  0  0  0  0  0  0
   -0.8603  -53.5686  -22.5402 N   0  0  0  0  0  0  0  0  0  0  0  0
   -1.6746  -54.3416  -21.8112 C   0  0  0  0  0  0  0  0  0  0  0  0
   -1.5505  -54.2614  -20.4887 N   0  0  0  0  0  0  0  0  0  0  0  0
   -0.6658  -53.4582  -19.8565 C   0  0  0  0  0  0  0  0  0  0  0  0
    0.1708  -52.6632  -20.6458 C   0  0  0  0  0  0  0  0  0  0  0  0
    1.1220  -51.8023  -20.1229 C   0  0  0  0  0  0  0  0  0  0  0  0
    1.9641  -51.0092  -20.8841 C   0  0  0  0  0  0  0  0  0  0  0  0
    2.9425  -50.1293  -20.3733 N   0  0  0  0  0  0  0  0  0  0  0  0
    3.7747  -50.2633  -19.2549 C   0  0  0  0  0  0  0  0  0  0  0  0
    3.7130  -51.2851  -18.5349 O   0  0  0  0  0  0  0  0  0  0  0  0
    3.0614  -49.2113  -20.9405 H   0  0  0  0  0  0  0  0  0  0  0  0
    4.7462  -49.2337  -18.8740 C   0  0  0  0  0  0  0  0  0  0  0  0
    4.4929  -47.9599  -18.9009 C   0  0  0  0  0  0  0  0  0  0  0  0
   -0.5741  -53.3838  -18.4641 N   0  0  0  0  0  0  0  0  0  0  0  0
    0.2772  -53.8644  -18.0289 H   0  0  0  0  0  0  0  0  0  0  0  0
   -1.4516  -52.7565  -17.5341 C   0  0  0  0  0  0  0  0  0  0  0  0
   -2.7399  -53.1360  -17.2975 C   0  0  0  0  0  0  0  0  0  0  0  0
   -3.5212  -52.4698  -16.3558 C   0  0  0  0  0  0  0  0  0  0  0  0
   -3.0482  -51.4114  -15.6240 C   0  0  0  0  0  0  0  0  0  0  0  0
   -4.1109  -50.4970  -14.3363 Br  0  0  0  0  0  0  0  0  0  0  0  0
   -1.7464  -51.0419  -15.8753 C   0  0  0  0  0  0  0  0  0  0  0  0
   -0.9646  -51.6698  -16.7833 C   0  0  0  0  0  0  0  0  0  0  0  0
    0.3313  -51.2602  -16.9988 F   0  0  0  0  0  0  0  0  0  0  0  0
    2.6298  -50.3414  -23.0763 O   0  0  0  0  0  0  0  0  0  0  0  0
    2.9420  -50.7844  -24.3815 C   0  0  0  0  0  0  0  0  0  0  0  0
    4.2766  -50.2341  -24.8444 C   0  0  0  0  0  0  0  0  0  0  0  0
    3.6948  -49.0091  -26.9380 C   0  0  0  0  0  0  0  0  0  0  0  0
    3.5037  -50.1429  -27.4857 O   0  0  0  0  0  0  0  0  0  0  0  0
    4.0917  -49.0054  -25.5862 N   0  0  0  0  0  0  0  0  0  0  0  0
    4.2567  -48.1081  -25.1055 H   0  0  0  0  0  0  0  0  0  0  0  0
    3.1607  -46.6602  -27.1065 C   0  0  0  0  0  0  0  0  0  0  0  0
    3.5114  -47.7834  -27.6750 C   0  0  0  0  0  0  0  0  0  0  0  0
    2.9870  -45.4151  -27.9367 C   0  0  0  0  0  0  0  0  0  0  0  0
    4.1171  -44.5696  -29.8115 C   0  0  0  0  0  0  0  0  0  0  0  0
    3.2737  -45.6476  -29.3337 N   0  0  0  0  0  0  0  0  0  0  0  0
    2.0253  -45.5940  -30.0659 C   0  0  0  0  0  0  0  0  0  0  0  0
 37 38  1  0  0  0
 38 39  1  0  0  0
 38 36  1  0  0  0
 36 34  1  0  0  0
 34 35  2  0  0  0
 35 30  1  0  0  0
 30 31  2  0  0  0
 30 32  1  0  0  0
 32 29  1  0  0  0
 29 28  1  0  0  0
 28 27  1  0  0  0
 27  1  1  0  0  0
  1  2  2  0  0  0
  2  3  1  0  0  0
  3  4  2  0  0  0
  4  5  1  0  0  0
  5  6  2  0  0  0
  6  7  1  0  0  0
  7 17  1  0  0  0
 17 19  1  0  0  0
 19 20  2  0  0  0
 20 21  1  0  0  0
 21 22  2  0  0  0
 22 23  1  0  0  0
 22 24  1  0  0  0
 24 25  2  0  0  0
 25 26  1  0  0  0
  7  8  2  0  0  0
  8  9  1  0  0  0
  9 10  2  0  0  0
 10 11  1  0  0  0
 11 12  1  0  0  0
 12 13  2  0  0  0
 12 15  1  0  0  0
 15 16  2  0  0  0
 10  1  1  0  0  0
  8  3  1  0  0  0
 25 19  1  0  0  0
 32 33  1  0  0  0
 17 18  1  0  0  0
 11 14  1  0  0  0
M  END
> <minimizedAffinity>
-6.95838

> <CNNscore>
0.6390343904

> <CNNaffinity>
7.2494163513

> <CNN_VS>
4.6326265335

> <CNNaffinity_variance>
0.2550218999

$$$$
[H]C([H])=C([H])C(=O)N([H])c1c(OC([H])([H])C([H])([H])N([H])C(=O)C([H])=C([H])C([H])([H])N(C([H])([H])[H])C([H])([H])[H])c([H])c2nc([H])nc(N([H])c3c([H])c([H])c(Br)c([H])c3F)c2c1[H]


 39 41  0  0  0  0  0  0  0  0999 V2000
    1.5478  -51.0266  -23.1932 C   0  0  0  0  0  0  0  0  0  0  0  0
    0.6606  -52.0008  -23.5673 C   0  0  0  0  0  0  0  0  0  0  0  0
    0.0451  -52.8326  -22.6438 C   0  0  0  0  0  0  0  0  0  0  0  0
   -0.8154  -53.7823  -23.0181 N   0  0  0  0  0  0  0  0  0  0  0  0
   -1.4282  -54.6089  -22.1620 C   0  0  0  0  0  0  0  0  0  0  0  0
   -1.1443  -54.4517  -20.8714 N   0  0  0  0  0  0  0  0  0  0  0  0
   -0.2893  -53.5218  -20.3899 C   0  0  0  0  0  0  0  0  0  0  0  0
    0.3350  -52.6737  -21.3096 C   0  0  0  0  0  0  0  0  0  0  0  0
    1.2342  -51.6840  -20.9472 C   0  0  0  0  0  0  0  0  0  0  0  0
    1.8677  -50.8357  -21.8397 C   0  0  0  0  0  0  0  0  0  0  0  0
    2.7900  -49.8248  -21.4935 N   0  0  0  0  0  0  0  0  0  0  0  0
    2.5640  -48.5328  -21.0025 C   0  0  0  0  0  0  0  0  0  0  0  0
    1.3982  -48.1205  -20.8098 O   0  0  0  0  0  0  0  0  0  0  0  0
    3.8310  -50.0996  -21.6322 H   0  0  0  0  0  0  0  0  0  0  0  0
    3.6602  -47.6102  -20.6922 C   0  0  0  0  0  0  0  0  0  0  0  0
    4.3172  -47.6240  -19.5717 C   0  0  0  0  0  0  0  0  0  0  0  0
   -0.0276  -53.3708  -19.0256 N   0  0  0  0  0  0  0  0  0  0  0  0
    0.9048  -53.7707  -18.6850 H   0  0  0  0  0  0  0  0  0  0  0  0
   -0.8234  -52.7570  -18.0165 C   0  0  0  0  0  0  0  0  0  0  0  0
   -2.0667  -53.1732  -17.6414 C   0  0  0  0  0  0  0  0  0  0  0  0
   -2.7670  -52.5173  -16.6313 C   0  0  0  0  0  0  0  0  0  0  0  0
   -2.2554  -51.4333  -15.9661 C   0  0  0  0  0  0  0  0  0  0  0  0
   -3.2074  -50.5328  -14.5854 Br  0  0  0  0  0  0  0  0  0  0  0  0
   -0.9998  -51.0268  -16.3571 C   0  0  0  0  0  0  0  0  0  0  0  0
   -0.2968  -51.6439  -17.3342 C   0  0  0  0  0  0  0  0  0  0  0  0
    0.9554  -51.1970  -17.6894 F   0  0  0  0  0  0  0  0  0  0  0  0
    2.1574  -50.2007  -24.1217 O   0  0  0  0  0  0  0  0  0  0  0  0
    2.9930  -50.7682  -25.1102 C   0  0  0  0  0  0  0  0  0  0  0  0
    3.0493  -49.8965  -26.3491 C   0  0  0  0  0  0  0  0  0  0  0  0
    4.7121  -48.5570  -27.6389 C   0  0  0  0  0  0  0  0  0  0  0  0
    3.8207  -48.4131  -28.5370 O   0  0  0  0  0  0  0  0  0  0  0  0
    4.3633  -49.3090  -26.4997 N   0  0  0  0  0  0  0  0  0  0  0  0
    5.0565  -49.4492  -25.7491 H   0  0  0  0  0  0  0  0  0  0  0  0
    6.5214  -47.6364  -28.9465 C   0  0  0  0  0  0  0  0  0  0  0  0
    6.0221  -47.9728  -27.7866 C   0  0  0  0  0  0  0  0  0  0  0  0
    7.8978  -47.0294  -29.0293 C   0  0  0  0  0  0  0  0  0  0  0  0
    8.0050  -48.5170  -30.8410 C   0  0  0  0  0  0  0  0  0  0  0  0
    8.7928  -47.8182  -29.8446 N   0  0  0  0  0  0  0  0  0  0  0  0
    9.4197  -48.8107  -28.9965 C   0  0  0  0  0  0  0  0  0  0  0  0
 37 38  1  0  0  0
 38 39  1  0  0  0
 38 36  1  0  0  0
 36 34  1  0  0  0
 34 35  2  0  0  0
 35 30  1  0  0  0
 30 31  2  0  0  0
 30 32  1  0  0  0
 32 29  1  0  0  0
 29 28  1  0  0  0
 28 27  1  0  0  0
 27  1  1  0  0  0
  1  2  2  0  0  0
  2  3  1  0  0  0
  3  4  2  0  0  0
  4  5  1  0  0  0
  5  6  2  0  0  0
  6  7  1  0  0  0
  7 17  1  0  0  0
 17 19  1  0  0  0
 19 20  2  0  0  0
 20 21  1  0  0  0
 21 22  2  0  0  0
 22 23  1  0  0  0
 22 24  1  0  0  0
 24 25  2  0  0  0
 25 26  1  0  0  0
  7  8  2  0  0  0
  8  9  1  0  0  0
  9 10  2  0  0  0
 10 11  1  0  0  0
 11 12  1  0  0  0
 12 13  2  0  0  0
 12 15  1  0  0  0
 15 16  2  0  0  0
 10  1  1  0  0  0
  8  3  1  0  0  0
 25 19  1  0  0  0
 32 33  1  0  0  0
 17 18  1  0  0  0
 11 14  1  0  0  0
M  END
> <minimizedAffinity>
-6.53637

> <CNNscore>
0.6387338042

> <CNNaffinity>
7.0653276443

> <CNN_VS>
4.5128636360

> <CNNaffinity_variance>
0.1690019965

$$$$
[H]C([H])=C([H])C(=O)N([H])c1c(OC([H])([H])C([H])([H])N([H])C(=O)C([H])=C([H])C([H])([H])N(C([H])([H])[H])C([H])([H])[H])c([H])c2nc([H])nc(N([H])c3c([H])c([H])c(Br)c([H])c3F)c2c1[H]


 39 41  0  0  0  0  0  0  0  0999 V2000
    0.1141  -51.4087  -18.5388 C   0  0  0  0  0  0  0  0  0  0  0  0
   -0.5579  -52.5692  -18.8177 C   0  0  0  0  0  0  0  0  0  0  0  0
   -0.6663  -53.0677  -20.1074 C   0  0  0  0  0  0  0  0  0  0  0  0
   -1.3269  -54.1977  -20.3704 N   0  0  0  0  0  0  0  0  0  0  0  0
   -1.4597  -54.7118  -21.5991 C   0  0  0  0  0  0  0  0  0  0  0  0
   -0.8907  -54.0370  -22.5949 N   0  0  0  0  0  0  0  0  0  0  0  0
   -0.2005  -52.8856  -22.4348 C   0  0  0  0  0  0  0  0  0  0  0  0
   -0.0798  -52.3741  -21.1392 C   0  0  0  0  0  0  0  0  0  0  0  0
    0.5962  -51.2022  -20.8410 C   0  0  0  0  0  0  0  0  0  0  0  0
    0.7251  -50.6742  -19.5673 C   0  0  0  0  0  0  0  0  0  0  0  0
    1.4046  -49.4807  -19.2414 N   0  0  0  0  0  0  0  0  0  0  0  0
    2.7411  -49.2796  -18.8744 C   0  0  0  0  0  0  0  0  0  0  0  0
    3.5312  -50.2468  -18.7945 O   0  0  0  0  0  0  0  0  0  0  0  0
    0.7893  -48.5873  -19.2845 H   0  0  0  0  0  0  0  0  0  0  0  0
    3.2780  -47.9497  -18.5706 C   0  0  0  0  0  0  0  0  0  0  0  0
    3.3289  -46.9797  -19.4330 C   0  0  0  0  0  0  0  0  0  0  0  0
    0.4014  -52.2113  -23.5006 N   0  0  0  0  0  0  0  0  0  0  0  0
    1.1513  -51.4963  -23.2330 H   0  0  0  0  0  0  0  0  0  0  0  0
    0.1634  -52.3387  -24.8989 C   0  0  0  0  0  0  0  0  0  0  0  0
   -0.9705  -51.9324  -25.5385 C   0  0  0  0  0  0  0  0  0  0  0  0
   -1.1094  -52.0852  -26.9163 C   0  0  0  0  0  0  0  0  0  0  0  0
   -0.1303  -52.6434  -27.6968 C   0  0  0  0  0  0  0  0  0  0  0  0
   -0.3143  -52.8551  -29.5796 Br  0  0  0  0  0  0  0  0  0  0  0  0
    1.0070  -53.0477  -27.0353 C   0  0  0  0  0  0  0  0  0  0  0  0
    1.1696  -52.9121  -25.6992 C   0  0  0  0  0  0  0  0  0  0  0  0
    2.3263  -53.3343  -25.0849 F   0  0  0  0  0  0  0  0  0  0  0  0
    0.2174  -50.9187  -17.2484 O   0  0  0  0  0  0  0  0  0  0  0  0
   -0.3249  -51.6659  -16.1784 C   0  0  0  0  0  0  0  0  0  0  0  0
    0.5385  -51.5553  -14.9373 C   0  0  0  0  0  0  0  0  0  0  0  0
    2.8152  -50.5478  -15.0933 C   0  0  0  0  0  0  0  0  0  0  0  0
    3.2831  -51.7322  -15.0716 O   0  0  0  0  0  0  0  0  0  0  0  0
    1.4149  -50.4072  -15.0268 N   0  0  0  0  0  0  0  0  0  0  0  0
    0.9956  -49.4651  -15.0417 H   0  0  0  0  0  0  0  0  0  0  0  0
    3.3146  -48.2001  -14.8292 C   0  0  0  0  0  0  0  0  0  0  0  0
    3.6863  -49.4023  -15.1822 C   0  0  0  0  0  0  0  0  0  0  0  0
    4.2765  -47.0466  -14.9475 C   0  0  0  0  0  0  0  0  0  0  0  0
    2.5030  -45.6910  -15.6711 C   0  0  0  0  0  0  0  0  0  0  0  0
    3.6241  -45.7717  -14.7556 N   0  0  0  0  0  0  0  0  0  0  0  0
    4.5628  -44.7266  -15.1080 C   0  0  0  0  0  0  0  0  0  0  0  0
 37 38  1  0  0  0
 38 39  1  0  0  0
 38 36  1  0  0  0
 36 34  1  0  0  0
 34 35  2  0  0  0
 35 30  1  0  0  0
 30 31  2  0  0  0
 30 32  1  0  0  0
 32 29  1  0  0  0
 29 28  1  0  0  0
 28 27  1  0  0  0
 27  1  1  0  0  0
  1  2  2  0  0  0
  2  3  1  0  0  0
  3  4  2  0  0  0
  4  5  1  0  0  0
  5  6  2  0  0  0
  6  7  1  0  0  0
  7 17  1  0  0  0
 17 19  1  0  0  0
 19 20  2  0  0  0
 20 21  1  0  0  0
 21 22  2  0  0  0
 22 23  1  0  0  0
 22 24  1  0  0  0
 24 25  2  0  0  0
 25 26  1  0  0  0
  7  8  2  0  0  0
  8  9  1  0  0  0
  9 10  2  0  0  0
 10 11  1  0  0  0
 11 12  1  0  0  0
 12 13  2  0  0  0
 12 15  1  0  0  0
 15 16  2  0  0  0
 10  1  1  0  0  0
  8  3  1  0  0  0
 25 19  1  0  0  0
 32 33  1  0  0  0
 17 18  1  0  0  0
 11 14  1  0  0  0
M  END
> <minimizedAffinity>
-6.66842

> <CNNscore>
0.5280271173

> <CNNaffinity>
7.0859079361

> <CNN_VS>
3.7415516376

> <CNNaffinity_variance>
0.1777286381

$$$$
[H]C([H])=C([H])C(=O)N([H])c1c(OC([H])([H])C([H])([H])N([H])C(=O)C([H])=C([H])C([H])([H])N(C([H])([H])[H])C([H])([H])[H])c([H])c2nc([H])nc(N([H])c3c([H])c([H])c(Br)c([H])c3F)c2c1[H]


 39 41  0  0  0  0  0  0  0  0999 V2000
    1.9264  -51.1223  -22.4924 C   0  0  0  0  0  0  0  0  0  0  0  0
    0.9891  -51.9865  -22.9934 C   0  0  0  0  0  0  0  0  0  0  0  0
    0.1828  -52.7589  -22.1707 C   0  0  0  0  0  0  0  0  0  0  0  0
   -0.7254  -53.6016  -22.6682 N   0  0  0  0  0  0  0  0  0  0  0  0
   -1.5205  -54.3682  -21.9119 C   0  0  0  0  0  0  0  0  0  0  0  0
   -1.3750  -54.2631  -20.5933 N   0  0  0  0  0  0  0  0  0  0  0  0
   -0.4869  -53.4411  -19.9906 C   0  0  0  0  0  0  0  0  0  0  0  0
    0.3293  -52.6534  -20.8080 C   0  0  0  0  0  0  0  0  0  0  0  0
    1.2815  -51.7752  -20.3168 C   0  0  0  0  0  0  0  0  0  0  0  0
    2.1037  -50.9888  -21.1062 C   0  0  0  0  0  0  0  0  0  0  0  0
    3.0828  -50.0916  -20.6278 N   0  0  0  0  0  0  0  0  0  0  0  0
    2.9521  -48.7652  -20.1980 C   0  0  0  0  0  0  0  0  0  0  0  0
    1.8346  -48.2018  -20.2039 O   0  0  0  0  0  0  0  0  0  0  0  0
    4.0876  -50.5010  -20.5908 H   0  0  0  0  0  0  0  0  0  0  0  0
    4.0956  -47.9790  -19.7254 C   0  0  0  0  0  0  0  0  0  0  0  0
    5.2591  -48.4905  -19.4569 C   0  0  0  0  0  0  0  0  0  0  0  0
   -0.3727  -53.3408  -18.6015 N   0  0  0  0  0  0  0  0  0  0  0  0
    0.5052  -53.7800  -18.1753 H   0  0  0  0  0  0  0  0  0  0  0  0
   -1.2573  -52.7342  -17.6646 C   0  0  0  0  0  0  0  0  0  0  0  0
   -2.5322  -53.1480  -17.4131 C   0  0  0  0  0  0  0  0  0  0  0  0
   -3.3217  -52.4998  -16.4657 C   0  0  0  0  0  0  0  0  0  0  0  0
   -2.8704  -51.4260  -15.7427 C   0  0  0  0  0  0  0  0  0  0  0  0
   -3.9443  -50.5361  -14.4472 Br  0  0  0  0  0  0  0  0  0  0  0  0
   -1.5819  -51.0219  -16.0090 C   0  0  0  0  0  0  0  0  0  0  0  0
   -0.7927  -51.6316  -16.9228 C   0  0  0  0  0  0  0  0  0  0  0  0
    0.4893  -51.1875  -17.1534 F   0  0  0  0  0  0  0  0  0  0  0  0
    2.7267  -50.3551  -23.3209 O   0  0  0  0  0  0  0  0  0  0  0  0
    3.6191  -50.9963  -24.2096 C   0  0  0  0  0  0  0  0  0  0  0  0
    4.6983  -50.0447  -24.6869 C   0  0  0  0  0  0  0  0  0  0  0  0
    3.9001  -48.4156  -26.3990 C   0  0  0  0  0  0  0  0  0  0  0  0
    3.5968  -47.6357  -25.4388 O   0  0  0  0  0  0  0  0  0  0  0  0
    4.4672  -49.6608  -26.0629 N   0  0  0  0  0  0  0  0  0  0  0  0
    4.7271  -50.3214  -26.8109 H   0  0  0  0  0  0  0  0  0  0  0  0
    4.3593  -47.1018  -28.3723 C   0  0  0  0  0  0  0  0  0  0  0  0
    3.6706  -48.0354  -27.7708 C   0  0  0  0  0  0  0  0  0  0  0  0
    4.0676  -46.7545  -29.8089 C   0  0  0  0  0  0  0  0  0  0  0  0
    5.5772  -48.2730  -30.7691 C   0  0  0  0  0  0  0  0  0  0  0  0
    4.1786  -47.9020  -30.6800 N   0  0  0  0  0  0  0  0  0  0  0  0
    3.7372  -47.5095  -32.0023 C   0  0  0  0  0  0  0  0  0  0  0  0
 37 38  1  0  0  0
 38 39  1  0  0  0
 38 36  1  0  0  0
 36 34  1  0  0  0
 34 35  2  0  0  0
 35 30  1  0  0  0
 30 31  2  0  0  0
 30 32  1  0  0  0
 32 29  1  0  0  0
 29 28  1  0  0  0
 28 27  1  0  0  0
 27  1  1  0  0  0
  1  2  2  0  0  0
  2  3  1  0  0  0
  3  4  2  0  0  0
  4  5  1  0  0  0
  5  6  2  0  0  0
  6  7  1  0  0  0
  7 17  1  0  0  0
 17 19  1  0  0  0
 19 20  2  0  0  0
 20 21  1  0  0  0
 21 22  2  0  0  0
 22 23  1  0  0  0
 22 24  1  0  0  0
 24 25  2  0  0  0
 25 26  1  0  0  0
  7  8  2  0  0  0
  8  9  1  0  0  0
  9 10  2  0  0  0
 10 11  1  0  0  0
 11 12  1  0  0  0
 12 13  2  0  0  0
 12 15  1  0  0  0
 15 16  2  0  0  0
 10  1  1  0  0  0
  8  3  1  0  0  0
 25 19  1  0  0  0
 32 33  1  0  0  0
 17 18  1  0  0  0
 11 14  1  0  0  0
M  END
> <minimizedAffinity>
-6.83088

> <CNNscore>
0.5191773772

> <CNNaffinity>
7.0556159019

> <CNN_VS>
3.6631162167

> <CNNaffinity_variance>
0.2314760983

$$$$
[H]C([H])=C([H])C(=O)N([H])c1c(OC([H])([H])C([H])([H])N([H])C(=O)C([H])=C([H])C([H])([H])N(C([H])([H])[H])C([H])([H])[H])c([H])c2nc([H])nc(N([H])c3c([H])c([H])c(Br)c([H])c3F)c2c1[H]


 39 41  0  0  0  0  0  0  0  0999 V2000
    0.0052  -51.7718  -18.8754 C   0  0  0  0  0  0  0  0  0  0  0  0
   -0.5559  -52.9242  -19.3586 C   0  0  0  0  0  0  0  0  0  0  0  0
   -0.5584  -53.2334  -20.7105 C   0  0  0  0  0  0  0  0  0  0  0  0
   -1.1114  -54.3572  -21.1729 N   0  0  0  0  0  0  0  0  0  0  0  0
   -1.1400  -54.6927  -22.4684 C   0  0  0  0  0  0  0  0  0  0  0  0
   -0.5779  -53.8389  -23.3203 N   0  0  0  0  0  0  0  0  0  0  0  0
    0.0079  -52.6766  -22.9547 C   0  0  0  0  0  0  0  0  0  0  0  0
    0.0214  -52.3545  -21.5942 C   0  0  0  0  0  0  0  0  0  0  0  0
    0.5846  -51.1935  -21.0901 C   0  0  0  0  0  0  0  0  0  0  0  0
    0.6060  -50.8512  -19.7484 C   0  0  0  0  0  0  0  0  0  0  0  0
    1.1694  -49.6727  -19.2136 N   0  0  0  0  0  0  0  0  0  0  0  0
    2.4664  -49.4301  -18.7444 C   0  0  0  0  0  0  0  0  0  0  0  0
    3.3286  -50.3371  -18.7600 O   0  0  0  0  0  0  0  0  0  0  0  0
    0.4857  -48.8310  -19.1622 H   0  0  0  0  0  0  0  0  0  0  0  0
    2.8778  -48.1244  -18.2198 C   0  0  0  0  0  0  0  0  0  0  0  0
    3.2983  -47.1485  -18.9670 C   0  0  0  0  0  0  0  0  0  0  0  0
    0.6064  -51.8106  -23.8737 N   0  0  0  0  0  0  0  0  0  0  0  0
   -0.0465  -51.3955  -24.6131 H   0  0  0  0  0  0  0  0  0  0  0  0
    1.9652  -51.3952  -23.9696 C   0  0  0  0  0  0  0  0  0  0  0  0
    2.4213  -50.1426  -23.6818 C   0  0  0  0  0  0  0  0  0  0  0  0
    3.7747  -49.8305  -23.7914 C   0  0  0  0  0  0  0  0  0  0  0  0
    4.7115  -50.7493  -24.1882 C   0  0  0  0  0  0  0  0  0  0  0  0
    6.5619  -50.3289  -24.3401 Br  0  0  0  0  0  0  0  0  0  0  0  0
    4.2341  -52.0081  -24.4745 C   0  0  0  0  0  0  0  0  0  0  0  0
    2.9263  -52.3397  -24.3772 C   0  0  0  0  0  0  0  0  0  0  0  0
    2.4992  -53.6131  -24.6768 F   0  0  0  0  0  0  0  0  0  0  0  0
    0.0033  -51.4714  -17.5243 O   0  0  0  0  0  0  0  0  0  0  0  0
   -0.9091  -52.1304  -16.6696 C   0  0  0  0  0  0  0  0  0  0  0  0
   -0.6129  -51.8309  -15.2133 C   0  0  0  0  0  0  0  0  0  0  0  0
   -0.8085  -49.5011  -14.3435 C   0  0  0  0  0  0  0  0  0  0  0  0
   -1.9207  -49.8439  -13.8263 O   0  0  0  0  0  0  0  0  0  0  0  0
   -0.1024  -50.4851  -15.0633 N   0  0  0  0  0  0  0  0  0  0  0  0
    0.8025  -50.2483  -15.4977 H   0  0  0  0  0  0  0  0  0  0  0  0
    0.6113  -47.6573  -14.9881 C   0  0  0  0  0  0  0  0  0  0  0  0
   -0.2977  -48.1608  -14.1957 C   0  0  0  0  0  0  0  0  0  0  0  0
    1.1007  -46.2482  -14.7775 C   0  0  0  0  0  0  0  0  0  0  0  0
    3.4473  -46.2388  -14.7622 C   0  0  0  0  0  0  0  0  0  0  0  0
    2.2751  -45.9557  -15.5669 N   0  0  0  0  0  0  0  0  0  0  0  0
    2.2745  -44.5395  -15.8697 C   0  0  0  0  0  0  0  0  0  0  0  0
 37 38  1  0  0  0
 38 39  1  0  0  0
 38 36  1  0  0  0
 36 34  1  0  0  0
 34 35  2  0  0  0
 35 30  1  0  0  0
 30 31  2  0  0  0
 30 32  1  0  0  0
 32 29  1  0  0  0
 29 28  1  0  0  0
 28 27  1  0  0  0
 27  1  1  0  0  0
  1  2  2  0  0  0
  2  3  1  0  0  0
  3  4  2  0  0  0
  4  5  1  0  0  0
  5  6  2  0  0  0
  6  7  1  0  0  0
  7 17  1  0  0  0
 17 19  1  0  0  0
 19 20  2  0  0  0
 20 21  1  0  0  0
 21 22  2  0  0  0
 22 23  1  0  0  0
 22 24  1  0  0  0
 24 25  2  0  0  0
 25 26  1  0  0  0
  7  8  2  0  0  0
  8  9  1  0  0  0
  9 10  2  0  0  0
 10 11  1  0  0  0
 11 12  1  0  0  0
 12 13  2  0  0  0
 12 15  1  0  0  0
 15 16  2  0  0  0
 10  1  1  0  0  0
  8  3  1  0  0  0
 25 19  1  0  0  0
 32 33  1  0  0  0
 17 18  1  0  0  0
 11 14  1  0  0  0
M  END
> <minimizedAffinity>
-6.25273

> <CNNscore>
0.5125635266

> <CNNaffinity>
7.0646576881

> <CNN_VS>
3.6210858822

> <CNNaffinity_variance>
0.1350795329

$$$$
[H]C([H])=C([H])C(=O)N([H])c1c(OC([H])([H])C([H])([H])N([H])C(=O)C([H])=C([H])C([H])([H])N(C([H])([H])[H])C([H])([H])[H])c([H])c2nc([H])nc(N([H])c3c([H])c([H])c(Br)c([H])c3F)c2c1[H]


 39 41  0  0  0  0  0  0  0  0999 V2000
    2.1363  -51.5847  -22.7991 C   0  0  0  0  0  0  0  0  0  0  0  0
    1.0938  -52.3760  -23.2030 C   0  0  0  0  0  0  0  0  0  0  0  0
    0.2508  -53.0046  -22.2987 C   0  0  0  0  0  0  0  0  0  0  0  0
   -0.7605  -53.7776  -22.7016 N   0  0  0  0  0  0  0  0  0  0  0  0
   -1.5948  -54.4058  -21.8643 C   0  0  0  0  0  0  0  0  0  0  0  0
   -1.3798  -54.2315  -20.5627 N   0  0  0  0  0  0  0  0  0  0  0  0
   -0.3859  -53.4702  -20.0526 C   0  0  0  0  0  0  0  0  0  0  0  0
    0.4689  -52.8272  -20.9532 C   0  0  0  0  0  0  0  0  0  0  0  0
    1.5271  -52.0240  -20.5606 C   0  0  0  0  0  0  0  0  0  0  0  0
    2.3889  -51.3811  -21.4333 C   0  0  0  0  0  0  0  0  0  0  0  0
    3.4754  -50.5628  -21.0559 N   0  0  0  0  0  0  0  0  0  0  0  0
    3.5402  -49.1729  -20.8974 C   0  0  0  0  0  0  0  0  0  0  0  0
    2.5307  -48.4617  -21.1007 O   0  0  0  0  0  0  0  0  0  0  0  0
    4.3972  -51.1019  -20.8605 H   0  0  0  0  0  0  0  0  0  0  0  0
    4.7710  -48.4877  -20.4912 C   0  0  0  0  0  0  0  0  0  0  0  0
    5.1788  -48.4098  -19.2603 C   0  0  0  0  0  0  0  0  0  0  0  0
   -0.1992  -53.2929  -18.6792 N   0  0  0  0  0  0  0  0  0  0  0  0
    0.7101  -53.6912  -18.2793 H   0  0  0  0  0  0  0  0  0  0  0  0
   -1.0454  -52.6540  -17.7284 C   0  0  0  0  0  0  0  0  0  0  0  0
   -2.2944  -53.0796  -17.3840 C   0  0  0  0  0  0  0  0  0  0  0  0
   -3.0460  -52.3966  -16.4303 C   0  0  0  0  0  0  0  0  0  0  0  0
   -2.5815  -51.2754  -15.7927 C   0  0  0  0  0  0  0  0  0  0  0  0
   -3.6038  -50.3378  -14.4891 Br  0  0  0  0  0  0  0  0  0  0  0  0
   -1.3195  -50.8599  -16.1521 C   0  0  0  0  0  0  0  0  0  0  0  0
   -0.5672  -51.5027  -17.0744 C   0  0  0  0  0  0  0  0  0  0  0  0
    0.6893  -51.0454  -17.3999 F   0  0  0  0  0  0  0  0  0  0  0  0
    2.9726  -50.9610  -23.7087 O   0  0  0  0  0  0  0  0  0  0  0  0
    2.6348  -50.9726  -25.0810 C   0  0  0  0  0  0  0  0  0  0  0  0
    3.3955  -49.9058  -25.8435 C   0  0  0  0  0  0  0  0  0  0  0  0
    3.2695  -47.4205  -25.6701 C   0  0  0  0  0  0  0  0  0  0  0  0
    3.0257  -47.3985  -26.9200 O   0  0  0  0  0  0  0  0  0  0  0  0
    3.4661  -48.6820  -25.0743 N   0  0  0  0  0  0  0  0  0  0  0  0
    3.6658  -48.7436  -24.0645 H   0  0  0  0  0  0  0  0  0  0  0  0
    3.5633  -46.1889  -23.6140 C   0  0  0  0  0  0  0  0  0  0  0  0
    3.3405  -46.2026  -24.9016 C   0  0  0  0  0  0  0  0  0  0  0  0
    3.6256  -44.8794  -22.8718 C   0  0  0  0  0  0  0  0  0  0  0  0
    4.1321  -44.7949  -20.5820 C   0  0  0  0  0  0  0  0  0  0  0  0
    4.7057  -44.8480  -21.9123 N   0  0  0  0  0  0  0  0  0  0  0  0
    5.4596  -43.6292  -22.1210 C   0  0  0  0  0  0  0  0  0  0  0  0
 37 38  1  0  0  0
 38 39  1  0  0  0
 38 36  1  0  0  0
 36 34  1  0  0  0
 34 35  2  0  0  0
 35 30  1  0  0  0
 30 31  2  0  0  0
 30 32  1  0  0  0
 32 29  1  0  0  0
 29 28  1  0  0  0
 28 27  1  0  0  0
 27  1  1  0  0  0
  1  2  2  0  0  0
  2  3  1  0  0  0
  3  4  2  0  0  0
  4  5  1  0  0  0
  5  6  2  0  0  0
  6  7  1  0  0  0
  7 17  1  0  0  0
 17 19  1  0  0  0
 19 20  2  0  0  0
 20 21  1  0  0  0
 21 22  2  0  0  0
 22 23  1  0  0  0
 22 24  1  0  0  0
 24 25  2  0  0  0
 25 26  1  0  0  0
  7  8  2  0  0  0
  8  9  1  0  0  0
  9 10  2  0  0  0
 10 11  1  0  0  0
 11 12  1  0  0  0
 12 13  2  0  0  0
 12 15  1  0  0  0
 15 16  2  0  0  0
 10  1  1  0  0  0
  8  3  1  0  0  0
 25 19  1  0  0  0
 32 33  1  0  0  0
 17 18  1  0  0  0
 11 14  1  0  0  0
M  END
> <minimizedAffinity>
-6.24458

> <CNNscore>
0.4848757386

> <CNNaffinity>
7.1274290085

> <CNN_VS>
3.4559173584

> <CNNaffinity_variance>
0.2211294472

$$$$
[H]C#Cc1c([H])c([H])c([H])c(N([H])c2nc([H])nc3c([H])c(OC([H])([H])C([H])([H])OC([H])([H])[H])c(N([H])C(=O)/C([H])=C(\[H])C([H])([H])N(C([H])([H])[H])C([H])([H])[H])c([H])c23)c1[H]


 35 37  0  0  0  0  0  0  0  0999 V2000
   -0.4845  -52.7988  -18.9275 C   0  0  0  0  0  0  0  0  0  0  0  0
   -1.1079  -53.7566  -19.6799 C   0  0  0  0  0  0  0  0  0  0  0  0
   -0.9556  -53.8861  -21.0547 C   0  0  0  0  0  0  0  0  0  0  0  0
   -1.5882  -54.8348  -21.7449 N   0  0  0  0  0  0  0  0  0  0  0  0
   -1.4515  -54.9698  -23.0747 C   0  0  0  0  0  0  0  0  0  0  0  0
   -0.6606  -54.1302  -23.7202 N   0  0  0  0  0  0  0  0  0  0  0  0
    0.0123  -53.1422  -23.0779 C   0  0  0  0  0  0  0  0  0  0  0  0
   -0.1274  -53.0037  -21.7149 C   0  0  0  0  0  0  0  0  0  0  0  0
    0.5162  -52.0229  -20.9612 C   0  0  0  0  0  0  0  0  0  0  0  0
    0.3683  -51.8893  -19.6011 C   0  0  0  0  0  0  0  0  0  0  0  0
    0.9898  -50.8993  -18.8193 N   0  0  0  0  0  0  0  0  0  0  0  0
    2.3465  -50.7836  -18.4590 C   0  0  0  0  0  0  0  0  0  0  0  0
    3.2588  -51.6066  -18.8022 O   0  0  0  0  0  0  0  0  0  0  0  0
    0.3701  -50.1168  -18.4342 H   0  0  0  0  0  0  0  0  0  0  0  0
    2.8570  -49.6732  -17.6318 C   0  0  0  0  0  0  0  0  0  0  0  0
    3.1284  -49.7491  -16.3537 C   0  0  0  0  0  0  0  0  0  0  0  0
    3.6338  -48.6576  -15.5260 C   0  0  0  0  0  0  0  0  0  0  0  0
    3.4345  -48.6783  -14.1504 N   0  0  0  0  0  0  0  0  0  0  0  0
    2.2161  -49.2404  -13.6561 C   0  0  0  0  0  0  0  0  0  0  0  0
    4.5686  -48.8742  -13.3039 C   0  0  0  0  0  0  0  0  0  0  0  0
    0.8259  -52.2425  -23.8040 N   0  0  0  0  0  0  0  0  0  0  0  0
    1.1212  -51.3316  -23.3601 H   0  0  0  0  0  0  0  0  0  0  0  0
    1.3187  -52.4297  -25.1201 C   0  0  0  0  0  0  0  0  0  0  0  0
    2.7039  -52.5932  -25.2704 C   0  0  0  0  0  0  0  0  0  0  0  0
    3.1936  -52.7973  -26.5323 C   0  0  0  0  0  0  0  0  0  0  0  0
    2.3687  -52.8445  -27.6351 C   0  0  0  0  0  0  0  0  0  0  0  0
    1.0059  -52.6892  -27.5250 C   0  0  0  0  0  0  0  0  0  0  0  0
    0.5146  -52.4804  -26.2224 C   0  0  0  0  0  0  0  0  0  0  0  0
    0.1182  -52.7304  -28.6591 C   0  0  0  0  0  0  0  0  0  0  0  0
   -0.6216  -52.7460  -29.6240 C   0  0  0  0  0  0  0  0  0  0  0  0
   -0.6402  -52.6814  -17.5647 O   0  0  0  0  0  0  0  0  0  0  0  0
   -1.7166  -52.1414  -16.8805 C   0  0  0  0  0  0  0  0  0  0  0  0
   -1.3708  -51.0897  -15.8776 C   0  0  0  0  0  0  0  0  0  0  0  0
   -0.8042  -48.9229  -15.8202 C   0  0  0  0  0  0  0  0  0  0  0  0
   -0.4999  -50.1400  -16.4364 O   0  0  0  0  0  0  0  0  0  0  0  0
 34 35  1  0  0  0
 35 33  1  0  0  0
 33 32  1  0  0  0
 32 31  1  0  0  0
 31  1  1  0  0  0
  1  2  2  0  0  0
  2  3  1  0  0  0
  3  4  2  0  0  0
  4  5  1  0  0  0
  5  6  2  0  0  0
  6  7  1  0  0  0
  7 21  1  0  0  0
 21 23  1  0  0  0
 23 24  2  0  0  0
 24 25  1  0  0  0
 25 26  2  0  0  0
 26 27  1  0  0  0
 27 28  2  0  0  0
 27 29  1  0  0  0
 29 30  3  0  0  0
  7  8  2  0  0  0
  8  9  1  0  0  0
  9 10  2  0  0  0
 10 11  1  0  0  0
 11 12  1  0  0  0
 12 13  2  0  0  0
 12 15  1  0  0  0
 15 16  2  0  0  0
 16 17  1  0  0  0
 17 18  1  0  0  0
 18 19  1  0  0  0
 18 20  1  0  0  0
 10  1  1  0  0  0
  8  3  1  0  0  0
 28 23  1  0  0  0
 21 22  1  0  0  0
 11 14  1  0  0  0
M  END
> <minimizedAffinity>
-7.35108

> <CNNscore>
0.8724596500

> <CNNaffinity>
7.1793165207

> <CNN_VS>
6.2636637688

> <CNNaffinity_variance>
0.0379548371

$$$$
[H]C#Cc1c([H])c([H])c([H])c(N([H])c2nc([H])nc3c([H])c(OC([H])([H])C([H])([H])OC([H])([H])[H])c(N([H])C(=O)/C([H])=C(\[H])C([H])([H])N(C([H])([H])[H])C([H])([H])[H])c([H])c23)c1[H]


 35 37  0  0  0  0  0  0  0  0999 V2000
   -0.4914  -52.6913  -18.8625 C   0  0  0  0  0  0  0  0  0  0  0  0
   -1.1119  -53.6621  -19.6004 C   0  0  0  0  0  0  0  0  0  0  0  0
   -0.9729  -53.8011  -20.9758 C   0  0  0  0  0  0  0  0  0  0  0  0
   -1.6021  -54.7625  -21.6514 N   0  0  0  0  0  0  0  0  0  0  0  0
   -1.4783  -54.9067  -22.9815 C   0  0  0  0  0  0  0  0  0  0  0  0
   -0.7039  -54.0635  -23.6422 N   0  0  0  0  0  0  0  0  0  0  0  0
   -0.0354  -53.0628  -23.0152 C   0  0  0  0  0  0  0  0  0  0  0  0
   -0.1620  -52.9148  -21.6519 C   0  0  0  0  0  0  0  0  0  0  0  0
    0.4785  -51.9207  -20.9131 C   0  0  0  0  0  0  0  0  0  0  0  0
    0.3438  -51.7777  -19.5526 C   0  0  0  0  0  0  0  0  0  0  0  0
    0.9624  -50.7746  -18.7855 N   0  0  0  0  0  0  0  0  0  0  0  0
    2.3045  -50.6863  -18.3675 C   0  0  0  0  0  0  0  0  0  0  0  0
    3.2030  -51.5524  -18.6322 O   0  0  0  0  0  0  0  0  0  0  0  0
    0.3527  -49.9564  -18.4635 H   0  0  0  0  0  0  0  0  0  0  0  0
    2.8144  -49.5574  -17.5654 C   0  0  0  0  0  0  0  0  0  0  0  0
    2.8922  -48.3168  -17.9751 C   0  0  0  0  0  0  0  0  0  0  0  0
    3.3945  -47.1927  -17.1903 C   0  0  0  0  0  0  0  0  0  0  0  0
    3.4803  -45.9286  -17.7624 N   0  0  0  0  0  0  0  0  0  0  0  0
    4.1003  -44.8877  -17.0029 C   0  0  0  0  0  0  0  0  0  0  0  0
    3.6774  -45.8354  -19.1744 C   0  0  0  0  0  0  0  0  0  0  0  0
    0.7601  -52.1599  -23.7573 N   0  0  0  0  0  0  0  0  0  0  0  0
    1.0180  -51.2260  -23.3384 H   0  0  0  0  0  0  0  0  0  0  0  0
    1.2804  -52.3722  -25.0588 C   0  0  0  0  0  0  0  0  0  0  0  0
    2.6680  -52.5423  -25.1764 C   0  0  0  0  0  0  0  0  0  0  0  0
    3.1840  -52.7705  -26.4236 C   0  0  0  0  0  0  0  0  0  0  0  0
    2.3828  -52.8352  -27.5429 C   0  0  0  0  0  0  0  0  0  0  0  0
    1.0184  -52.6740  -27.4649 C   0  0  0  0  0  0  0  0  0  0  0  0
    0.5000  -52.4404  -26.1772 C   0  0  0  0  0  0  0  0  0  0  0  0
    0.1552  -52.7332  -28.6170 C   0  0  0  0  0  0  0  0  0  0  0  0
   -0.5855  -52.7660  -29.5806 C   0  0  0  0  0  0  0  0  0  0  0  0
   -0.6337  -52.5646  -17.4991 O   0  0  0  0  0  0  0  0  0  0  0  0
   -1.7445  -52.1168  -16.8034 C   0  0  0  0  0  0  0  0  0  0  0  0
   -1.4560  -51.1683  -15.6860 C   0  0  0  0  0  0  0  0  0  0  0  0
   -0.5816  -49.1253  -15.9711 C   0  0  0  0  0  0  0  0  0  0  0  0
   -0.2522  -50.4826  -15.9169 O   0  0  0  0  0  0  0  0  0  0  0  0
 34 35  1  0  0  0
 35 33  1  0  0  0
 33 32  1  0  0  0
 32 31  1  0  0  0
 31  1  1  0  0  0
  1  2  2  0  0  0
  2  3  1  0  0  0
  3  4  2  0  0  0
  4  5  1  0  0  0
  5  6  2  0  0  0
  6  7  1  0  0  0
  7 21  1  0  0  0
 21 23  1  0  0  0
 23 24  2  0  0  0
 24 25  1  0  0  0
 25 26  2  0  0  0
 26 27  1  0  0  0
 27 28  2  0  0  0
 27 29  1  0  0  0
 29 30  3  0  0  0
  7  8  2  0  0  0
  8  9  1  0  0  0
  9 10  2  0  0  0
 10 11  1  0  0  0
 11 12  1  0  0  0
 12 13  2  0  0  0
 12 15  1  0  0  0
 15 16  2  0  0  0
 16 17  1  0  0  0
 17 18  1  0  0  0
 18 19  1  0  0  0
 18 20  1  0  0  0
 10  1  1  0  0  0
  8  3  1  0  0  0
 28 23  1  0  0  0
 21 22  1  0  0  0
 11 14  1  0  0  0
M  END
> <minimizedAffinity>
-7.23858

> <CNNscore>
0.8647177815

> <CNNaffinity>
7.2462129593

> <CNN_VS>
6.2659292221

> <CNNaffinity_variance>
0.1127406955

$$$$
[H]C#Cc1c([H])c([H])c([H])c(N([H])c2nc([H])nc3c([H])c(OC([H])([H])C([H])([H])OC([H])([H])[H])c(N([H])C(=O)/C([H])=C(\[H])C([H])([H])N(C([H])([H])[H])C([H])([H])[H])c([H])c23)c1[H]


 35 37  0  0  0  0  0  0  0  0999 V2000
   -0.7083  -52.8766  -18.9846 C   0  0  0  0  0  0  0  0  0  0  0  0
   -1.2548  -53.8383  -19.7900 C   0  0  0  0  0  0  0  0  0  0  0  0
   -1.0524  -53.9096  -21.1626 C   0  0  0  0  0  0  0  0  0  0  0  0
   -1.6105  -54.8650  -21.9058 N   0  0  0  0  0  0  0  0  0  0  0  0
   -1.4248  -54.9442  -23.2341 C   0  0  0  0  0  0  0  0  0  0  0  0
   -0.6606  -54.0410  -23.8235 N   0  0  0  0  0  0  0  0  0  0  0  0
   -0.0630  -53.0426  -23.1254 C   0  0  0  0  0  0  0  0  0  0  0  0
   -0.2529  -52.9611  -21.7639 C   0  0  0  0  0  0  0  0  0  0  0  0
    0.3124  -51.9755  -20.9557 C   0  0  0  0  0  0  0  0  0  0  0  0
    0.1147  -51.8993  -19.5975 C   0  0  0  0  0  0  0  0  0  0  0  0
    0.6566  -50.9067  -18.7617 N   0  0  0  0  0  0  0  0  0  0  0  0
    1.9886  -50.7465  -18.3326 C   0  0  0  0  0  0  0  0  0  0  0  0
    2.9494  -51.5227  -18.6511 O   0  0  0  0  0  0  0  0  0  0  0  0
   -0.0127  -50.1602  -18.3879 H   0  0  0  0  0  0  0  0  0  0  0  0
    2.4126  -49.6393  -17.4539 C   0  0  0  0  0  0  0  0  0  0  0  0
    3.0723  -49.7783  -16.3321 C   0  0  0  0  0  0  0  0  0  0  0  0
    3.4967  -48.6904  -15.4555 C   0  0  0  0  0  0  0  0  0  0  0  0
    3.4466  -48.8498  -14.0755 N   0  0  0  0  0  0  0  0  0  0  0  0
    2.2997  -48.3509  -13.3824 C   0  0  0  0  0  0  0  0  0  0  0  0
    4.0209  -50.0284  -13.5077 C   0  0  0  0  0  0  0  0  0  0  0  0
    0.7231  -52.0752  -23.7925 N   0  0  0  0  0  0  0  0  0  0  0  0
    0.2622  -51.2138  -24.1921 H   0  0  0  0  0  0  0  0  0  0  0  0
    2.1254  -52.1259  -23.9947 C   0  0  0  0  0  0  0  0  0  0  0  0
    2.5818  -52.6999  -25.1907 C   0  0  0  0  0  0  0  0  0  0  0  0
    3.9324  -52.7365  -25.4114 C   0  0  0  0  0  0  0  0  0  0  0  0
    4.8335  -52.2306  -24.4998 C   0  0  0  0  0  0  0  0  0  0  0  0
    4.4217  -51.6600  -23.3173 C   0  0  0  0  0  0  0  0  0  0  0  0
    3.0309  -51.6279  -23.1023 C   0  0  0  0  0  0  0  0  0  0  0  0
    5.3394  -51.1256  -22.3437 C   0  0  0  0  0  0  0  0  0  0  0  0
    6.1079  -50.6911  -21.5075 C   0  0  0  0  0  0  0  0  0  0  0  0
   -0.9131  -52.8170  -17.6245 O   0  0  0  0  0  0  0  0  0  0  0  0
   -2.0932  -52.5288  -16.9594 C   0  0  0  0  0  0  0  0  0  0  0  0
   -2.0116  -51.4088  -15.9742 C   0  0  0  0  0  0  0  0  0  0  0  0
   -1.0691  -49.4207  -15.5511 C   0  0  0  0  0  0  0  0  0  0  0  0
   -0.8510  -50.6466  -16.1861 O   0  0  0  0  0  0  0  0  0  0  0  0
 34 35  1  0  0  0
 35 33  1  0  0  0
 33 32  1  0  0  0
 32 31  1  0  0  0
 31  1  1  0  0  0
  1  2  2  0  0  0
  2  3  1  0  0  0
  3  4  2  0  0  0
  4  5  1  0  0  0
  5  6  2  0  0  0
  6  7  1  0  0  0
  7 21  1  0  0  0
 21 23  1  0  0  0
 23 24  2  0  0  0
 24 25  1  0  0  0
 25 26  2  0  0  0
 26 27  1  0  0  0
 27 28  2  0  0  0
 27 29  1  0  0  0
 29 30  3  0  0  0
  7  8  2  0  0  0
  8  9  1  0  0  0
  9 10  2  0  0  0
 10 11  1  0  0  0
 11 12  1  0  0  0
 12 13  2  0  0  0
 12 15  1  0  0  0
 15 16  2  0  0  0
 16 17  1  0  0  0
 17 18  1  0  0  0
 18 19  1  0  0  0
 18 20  1  0  0  0
 10  1  1  0  0  0
  8  3  1  0  0  0
 28 23  1  0  0  0
 21 22  1  0  0  0
 11 14  1  0  0  0
M  END
> <minimizedAffinity>
-6.70360

> <CNNscore>
0.8387370110

> <CNNaffinity>
7.0566763878

> <CNN_VS>
5.9186954498

> <CNNaffinity_variance>
0.0935120061

$$$$
[H]C#Cc1c([H])c([H])c([H])c(N([H])c2nc([H])nc3c([H])c(OC([H])([H])C([H])([H])OC([H])([H])[H])c(N([H])C(=O)/C([H])=C(\[H])C([H])([H])N(C([H])([H])[H])C([H])([H])[H])c([H])c23)c1[H]


 35 37  0  0  0  0  0  0  0  0999 V2000
   -0.3300  -52.3343  -19.6500 C   0  0  0  0  0  0  0  0  0  0  0  0
   -0.8674  -53.5058  -20.1092 C   0  0  0  0  0  0  0  0  0  0  0  0
   -0.9586  -53.8449  -21.4535 C   0  0  0  0  0  0  0  0  0  0  0  0
   -1.4948  -54.9984  -21.8517 N   0  0  0  0  0  0  0  0  0  0  0  0
   -1.5911  -55.3377  -23.1482 C   0  0  0  0  0  0  0  0  0  0  0  0
   -1.1371  -54.4956  -24.0603 N   0  0  0  0  0  0  0  0  0  0  0  0
   -0.5800  -53.3053  -23.7225 C   0  0  0  0  0  0  0  0  0  0  0  0
   -0.4809  -52.9573  -22.3938 C   0  0  0  0  0  0  0  0  0  0  0  0
    0.0712  -51.7596  -21.9409 C   0  0  0  0  0  0  0  0  0  0  0  0
    0.1629  -51.4184  -20.6125 C   0  0  0  0  0  0  0  0  0  0  0  0
    0.6973  -50.2109  -20.1288 N   0  0  0  0  0  0  0  0  0  0  0  0
    2.0356  -49.9016  -19.8171 C   0  0  0  0  0  0  0  0  0  0  0  0
    3.0110  -50.7163  -19.9279 O   0  0  0  0  0  0  0  0  0  0  0  0
    0.0158  -49.4020  -19.9674 H   0  0  0  0  0  0  0  0  0  0  0  0
    2.4498  -48.5746  -19.3218 C   0  0  0  0  0  0  0  0  0  0  0  0
    3.2102  -47.7314  -19.9726 C   0  0  0  0  0  0  0  0  0  0  0  0
    3.6257  -46.4166  -19.4924 C   0  0  0  0  0  0  0  0  0  0  0  0
    4.9771  -46.1002  -19.4140 N   0  0  0  0  0  0  0  0  0  0  0  0
    5.5590  -45.3646  -20.4933 C   0  0  0  0  0  0  0  0  0  0  0  0
    5.5332  -45.8150  -18.1292 C   0  0  0  0  0  0  0  0  0  0  0  0
   -0.1327  -52.4151  -24.7257 N   0  0  0  0  0  0  0  0  0  0  0  0
   -0.7450  -51.6056  -25.0155 H   0  0  0  0  0  0  0  0  0  0  0  0
    1.1019  -52.4823  -25.4192 C   0  0  0  0  0  0  0  0  0  0  0  0
    1.0487  -52.6119  -26.8151 C   0  0  0  0  0  0  0  0  0  0  0  0
    2.2321  -52.6558  -27.5019 C   0  0  0  0  0  0  0  0  0  0  0  0
    3.4496  -52.5766  -26.8613 C   0  0  0  0  0  0  0  0  0  0  0  0
    3.5396  -52.4482  -25.4942 C   0  0  0  0  0  0  0  0  0  0  0  0
    2.3160  -52.4038  -24.7995 C   0  0  0  0  0  0  0  0  0  0  0  0
    4.7971  -52.3661  -24.7959 C   0  0  0  0  0  0  0  0  0  0  0  0
    5.8526  -52.2762  -24.1990 C   0  0  0  0  0  0  0  0  0  0  0  0
   -0.2418  -52.0097  -18.3151 O   0  0  0  0  0  0  0  0  0  0  0  0
   -1.0560  -52.4468  -17.2835 C   0  0  0  0  0  0  0  0  0  0  0  0
   -1.3324  -51.4361  -16.2187 C   0  0  0  0  0  0  0  0  0  0  0  0
   -1.1010  -49.3145  -15.5371 C   0  0  0  0  0  0  0  0  0  0  0  0
   -0.6488  -50.2382  -16.4837 O   0  0  0  0  0  0  0  0  0  0  0  0
 34 35  1  0  0  0
 35 33  1  0  0  0
 33 32  1  0  0  0
 32 31  1  0  0  0
 31  1  1  0  0  0
  1  2  2  0  0  0
  2  3  1  0  0  0
  3  4  2  0  0  0
  4  5  1  0  0  0
  5  6  2  0  0  0
  6  7  1  0  0  0
  7 21  1  0  0  0
 21 23  1  0  0  0
 23 24  2  0  0  0
 24 25  1  0  0  0
 25 26  2  0  0  0
 26 27  1  0  0  0
 27 28  2  0  0  0
 27 29  1  0  0  0
 29 30  3  0  0  0
  7  8  2  0  0  0
  8  9  1  0  0  0
  9 10  2  0  0  0
 10 11  1  0  0  0
 11 12  1  0  0  0
 12 13  2  0  0  0
 12 15  1  0  0  0
 15 16  2  0  0  0
 16 17  1  0  0  0
 17 18  1  0  0  0
 18 19  1  0  0  0
 18 20  1  0  0  0
 10  1  1  0  0  0
  8  3  1  0  0  0
 28 23  1  0  0  0
 21 22  1  0  0  0
 11 14  1  0  0  0
M  END
> <minimizedAffinity>
-6.67696

> <CNNscore>
0.8057627678

> <CNNaffinity>
7.1017456055

> <CNN_VS>
5.7223219872

> <CNNaffinity_variance>
0.0632023662

$$$$
[H]C#Cc1c([H])c([H])c([H])c(N([H])c2nc([H])nc3c([H])c(OC([H])([H])C([H])([H])OC([H])([H])[H])c(N([H])C(=O)/C([H])=C(\[H])C([H])([H])N(C([H])([H])[H])C([H])([H])[H])c([H])c23)c1[H]


 35 37  0  0  0  0  0  0  0  0999 V2000
    0.2641  -51.6611  -19.1426 C   0  0  0  0  0  0  0  0  0  0  0  0
   -0.2356  -52.8923  -19.4688 C   0  0  0  0  0  0  0  0  0  0  0  0
   -0.4895  -53.3084  -20.7698 C   0  0  0  0  0  0  0  0  0  0  0  0
   -0.9807  -54.5184  -21.0367 N   0  0  0  0  0  0  0  0  0  0  0  0
   -1.2329  -54.9325  -22.2897 C   0  0  0  0  0  0  0  0  0  0  0  0
   -0.9841  -54.1085  -23.2929 N   0  0  0  0  0  0  0  0  0  0  0  0
   -0.4839  -52.8635  -23.0904 C   0  0  0  0  0  0  0  0  0  0  0  0
   -0.2251  -52.4388  -21.8063 C   0  0  0  0  0  0  0  0  0  0  0  0
    0.2860  -51.1807  -21.4895 C   0  0  0  0  0  0  0  0  0  0  0  0
    0.5380  -50.7633  -20.2043 C   0  0  0  0  0  0  0  0  0  0  0  0
    1.0353  -49.4952  -19.8550 N   0  0  0  0  0  0  0  0  0  0  0  0
    2.3602  -49.0209  -19.9145 C   0  0  0  0  0  0  0  0  0  0  0  0
    3.3582  -49.7104  -20.3095 O   0  0  0  0  0  0  0  0  0  0  0  0
    0.3322  -48.7748  -19.4922 H   0  0  0  0  0  0  0  0  0  0  0  0
    2.7316  -47.6488  -19.5179 C   0  0  0  0  0  0  0  0  0  0  0  0
    3.8663  -47.0630  -19.8046 C   0  0  0  0  0  0  0  0  0  0  0  0
    4.2439  -45.7066  -19.4177 C   0  0  0  0  0  0  0  0  0  0  0  0
    5.5863  -45.3658  -19.2988 N   0  0  0  0  0  0  0  0  0  0  0  0
    6.1691  -45.3750  -17.9931 C   0  0  0  0  0  0  0  0  0  0  0  0
    6.4765  -45.7391  -20.3522 C   0  0  0  0  0  0  0  0  0  0  0  0
   -0.2587  -51.9969  -24.1846 N   0  0  0  0  0  0  0  0  0  0  0  0
    0.0988  -51.0192  -24.0106 H   0  0  0  0  0  0  0  0  0  0  0  0
   -0.4625  -52.3019  -25.5539 C   0  0  0  0  0  0  0  0  0  0  0  0
   -1.7097  -51.9742  -26.1066 C   0  0  0  0  0  0  0  0  0  0  0  0
   -1.9149  -52.2419  -27.4333 C   0  0  0  0  0  0  0  0  0  0  0  0
   -0.9397  -52.8152  -28.2202 C   0  0  0  0  0  0  0  0  0  0  0  0
    0.2948  -53.1488  -27.7122 C   0  0  0  0  0  0  0  0  0  0  0  0
    0.4937  -52.8683  -26.3471 C   0  0  0  0  0  0  0  0  0  0  0  0
    1.3331  -53.7518  -28.5086 C   0  0  0  0  0  0  0  0  0  0  0  0
    2.1959  -54.2789  -29.1841 C   0  0  0  0  0  0  0  0  0  0  0  0
    0.5150  -51.2601  -17.8497 O   0  0  0  0  0  0  0  0  0  0  0  0
   -0.3960  -50.7874  -16.9197 C   0  0  0  0  0  0  0  0  0  0  0  0
   -1.2139  -51.8363  -16.2396 C   0  0  0  0  0  0  0  0  0  0  0  0
   -3.4090  -52.2802  -16.1736 C   0  0  0  0  0  0  0  0  0  0  0  0
   -2.4551  -51.3144  -15.8400 O   0  0  0  0  0  0  0  0  0  0  0  0
 34 35  1  0  0  0
 35 33  1  0  0  0
 33 32  1  0  0  0
 32 31  1  0  0  0
 31  1  1  0  0  0
  1  2  2  0  0  0
  2  3  1  0  0  0
  3  4  2  0  0  0
  4  5  1  0  0  0
  5  6  2  0  0  0
  6  7  1  0  0  0
  7 21  1  0  0  0
 21 23  1  0  0  0
 23 24  2  0  0  0
 24 25  1  0  0  0
 25 26  2  0  0  0
 26 27  1  0  0  0
 27 28  2  0  0  0
 27 29  1  0  0  0
 29 30  3  0  0  0
  7  8  2  0  0  0
  8  9  1  0  0  0
  9 10  2  0  0  0
 10 11  1  0  0  0
 11 12  1  0  0  0
 12 13  2  0  0  0
 12 15  1  0  0  0
 15 16  2  0  0  0
 16 17  1  0  0  0
 17 18  1  0  0  0
 18 19  1  0  0  0
 18 20  1  0  0  0
 10  1  1  0  0  0
  8  3  1  0  0  0
 28 23  1  0  0  0
 21 22  1  0  0  0
 11 14  1  0  0  0
M  END
> <minimizedAffinity>
-6.57495

> <CNNscore>
0.7812640071

> <CNNaffinity>
7.2900595665

> <CNN_VS>
5.6954612732

> <CNNaffinity_variance>
0.3205978274

$$$$
[H]C#Cc1c([H])c([H])c([H])c(N([H])c2nc([H])nc3c([H])c(OC([H])([H])C([H])([H])OC([H])([H])[H])c(N([H])C(=O)/C([H])=C(\[H])C([H])([H])N(C([H])([H])[H])C([H])([H])[H])c([H])c23)c1[H]


 35 37  0  0  0  0  0  0  0  0999 V2000
   -0.0293  -51.5475  -20.2867 C   0  0  0  0  0  0  0  0  0  0  0  0
   -0.5687  -52.8008  -20.3879 C   0  0  0  0  0  0  0  0  0  0  0  0
   -0.7725  -53.4645  -21.5914 C   0  0  0  0  0  0  0  0  0  0  0  0
   -1.3055  -54.6853  -21.6384 N   0  0  0  0  0  0  0  0  0  0  0  0
   -1.5101  -55.3372  -22.7952 C   0  0  0  0  0  0  0  0  0  0  0  0
   -1.1697  -54.7449  -23.9267 N   0  0  0  0  0  0  0  0  0  0  0  0
   -0.6226  -53.5033  -23.9491 C   0  0  0  0  0  0  0  0  0  0  0  0
   -0.4126  -52.8348  -22.7637 C   0  0  0  0  0  0  0  0  0  0  0  0
    0.1399  -51.5575  -22.6764 C   0  0  0  0  0  0  0  0  0  0  0  0
    0.3427  -50.8957  -21.4888 C   0  0  0  0  0  0  0  0  0  0  0  0
    0.8801  -49.6014  -21.3726 N   0  0  0  0  0  0  0  0  0  0  0  0
    1.9149  -49.0063  -22.1202 C   0  0  0  0  0  0  0  0  0  0  0  0
    2.5550  -49.5865  -23.0589 O   0  0  0  0  0  0  0  0  0  0  0  0
    0.4639  -48.9623  -20.6222 H   0  0  0  0  0  0  0  0  0  0  0  0
    2.3692  -47.6218  -21.8864 C   0  0  0  0  0  0  0  0  0  0  0  0
    3.5557  -47.1577  -22.1859 C   0  0  0  0  0  0  0  0  0  0  0  0
    4.0153  -45.7904  -21.9592 C   0  0  0  0  0  0  0  0  0  0  0  0
    4.9368  -45.2141  -22.8259 N   0  0  0  0  0  0  0  0  0  0  0  0
    6.2818  -45.0539  -22.3677 C   0  0  0  0  0  0  0  0  0  0  0  0
    4.8104  -45.4793  -24.2242 C   0  0  0  0  0  0  0  0  0  0  0  0
   -0.2989  -52.8869  -25.1796 N   0  0  0  0  0  0  0  0  0  0  0  0
   -1.0523  -52.3936  -25.7302 H   0  0  0  0  0  0  0  0  0  0  0  0
    0.9805  -52.8482  -25.7891 C   0  0  0  0  0  0  0  0  0  0  0  0
    1.0309  -52.9695  -27.1859 C   0  0  0  0  0  0  0  0  0  0  0  0
    2.2570  -52.9117  -27.7920 C   0  0  0  0  0  0  0  0  0  0  0  0
    3.4188  -52.7400  -27.0711 C   0  0  0  0  0  0  0  0  0  0  0  0
    3.4070  -52.6166  -25.7007 C   0  0  0  0  0  0  0  0  0  0  0  0
    2.1404  -52.6772  -25.0893 C   0  0  0  0  0  0  0  0  0  0  0  0
    4.6045  -52.4394  -24.9195 C   0  0  0  0  0  0  0  0  0  0  0  0
    5.6225  -52.3101  -24.2671 C   0  0  0  0  0  0  0  0  0  0  0  0
    0.1712  -50.9001  -19.0884 O   0  0  0  0  0  0  0  0  0  0  0  0
    1.0766  -51.2268  -18.0926 C   0  0  0  0  0  0  0  0  0  0  0  0
    2.4913  -50.8307  -18.3636 C   0  0  0  0  0  0  0  0  0  0  0  0
    3.8862  -51.1827  -20.0811 C   0  0  0  0  0  0  0  0  0  0  0  0
    3.1578  -51.8361  -19.0830 O   0  0  0  0  0  0  0  0  0  0  0  0
 34 35  1  0  0  0
 35 33  1  0  0  0
 33 32  1  0  0  0
 32 31  1  0  0  0
 31  1  1  0  0  0
  1  2  2  0  0  0
  2  3  1  0  0  0
  3  4  2  0  0  0
  4  5  1  0  0  0
  5  6  2  0  0  0
  6  7  1  0  0  0
  7 21  1  0  0  0
 21 23  1  0  0  0
 23 24  2  0  0  0
 24 25  1  0  0  0
 25 26  2  0  0  0
 26 27  1  0  0  0
 27 28  2  0  0  0
 27 29  1  0  0  0
 29 30  3  0  0  0
  7  8  2  0  0  0
  8  9  1  0  0  0
  9 10  2  0  0  0
 10 11  1  0  0  0
 11 12  1  0  0  0
 12 13  2  0  0  0
 12 15  1  0  0  0
 15 16  2  0  0  0
 16 17  1  0  0  0
 17 18  1  0  0  0
 18 19  1  0  0  0
 18 20  1  0  0  0
 10  1  1  0  0  0
  8  3  1  0  0  0
 28 23  1  0  0  0
 21 22  1  0  0  0
 11 14  1  0  0  0
M  END
> <minimizedAffinity>
-6.79634

> <CNNscore>
0.6786849499

> <CNNaffinity>
6.9214034081

> <CNN_VS>
4.6974525452

> <CNNaffinity_variance>
0.1049203426

$$$$
[H]C#Cc1c([H])c([H])c([H])c(N([H])c2nc([H])nc3c([H])c(OC([H])([H])C([H])([H])OC([H])([H])[H])c(N([H])C(=O)/C([H])=C(\[H])C([H])([H])N(C([H])([H])[H])C([H])([H])[H])c([H])c23)c1[H]


 35 37  0  0  0  0  0  0  0  0999 V2000
    1.2587  -51.3282  -23.8066 C   0  0  0  0  0  0  0  0  0  0  0  0
    0.3299  -52.3214  -23.9581 C   0  0  0  0  0  0  0  0  0  0  0  0
   -0.1892  -53.0671  -22.9071 C   0  0  0  0  0  0  0  0  0  0  0  0
   -1.0910  -54.0282  -23.1063 N   0  0  0  0  0  0  0  0  0  0  0  0
   -1.5993  -54.7581  -22.0994 C   0  0  0  0  0  0  0  0  0  0  0  0
   -1.1891  -54.5127  -20.8671 N   0  0  0  0  0  0  0  0  0  0  0  0
   -0.2735  -53.5487  -20.5954 C   0  0  0  0  0  0  0  0  0  0  0  0
    0.2476  -52.8002  -21.6271 C   0  0  0  0  0  0  0  0  0  0  0  0
    1.1930  -51.7895  -21.4567 C   0  0  0  0  0  0  0  0  0  0  0  0
    1.7109  -51.0494  -22.4928 C   0  0  0  0  0  0  0  0  0  0  0  0
    2.6778  -50.0381  -22.3523 N   0  0  0  0  0  0  0  0  0  0  0  0
    2.4996  -48.6962  -21.9632 C   0  0  0  0  0  0  0  0  0  0  0  0
    1.3742  -48.1711  -21.6712 O   0  0  0  0  0  0  0  0  0  0  0  0
    3.6942  -50.2975  -22.5634 H   0  0  0  0  0  0  0  0  0  0  0  0
    3.6226  -47.7453  -21.8517 C   0  0  0  0  0  0  0  0  0  0  0  0
    4.5794  -47.6029  -22.7333 C   0  0  0  0  0  0  0  0  0  0  0  0
    5.6946  -46.6657  -22.6331 C   0  0  0  0  0  0  0  0  0  0  0  0
    5.9368  -45.7610  -23.6604 N   0  0  0  0  0  0  0  0  0  0  0  0
    6.6998  -46.2082  -24.7840 C   0  0  0  0  0  0  0  0  0  0  0  0
    4.9257  -44.8002  -23.9701 C   0  0  0  0  0  0  0  0  0  0  0  0
    0.1659  -53.3337  -19.2689 N   0  0  0  0  0  0  0  0  0  0  0  0
    1.1072  -53.7019  -18.9651 H   0  0  0  0  0  0  0  0  0  0  0  0
   -0.5409  -52.6458  -18.2505 C   0  0  0  0  0  0  0  0  0  0  0  0
   -1.7349  -53.2239  -17.7940 C   0  0  0  0  0  0  0  0  0  0  0  0
   -2.4181  -52.5836  -16.7954 C   0  0  0  0  0  0  0  0  0  0  0  0
   -1.9645  -51.4063  -16.2413 C   0  0  0  0  0  0  0  0  0  0  0  0
   -0.7977  -50.8116  -16.6635 C   0  0  0  0  0  0  0  0  0  0  0  0
   -0.1043  -51.4797  -17.6904 C   0  0  0  0  0  0  0  0  0  0  0  0
   -0.2996  -49.5799  -16.1061 C   0  0  0  0  0  0  0  0  0  0  0  0
    0.1012  -48.5378  -15.6245 C   0  0  0  0  0  0  0  0  0  0  0  0
    1.7642  -50.5931  -24.8551 O   0  0  0  0  0  0  0  0  0  0  0  0
    2.7349  -50.9767  -25.7655 C   0  0  0  0  0  0  0  0  0  0  0  0
    3.7246  -51.9742  -25.2586 C   0  0  0  0  0  0  0  0  0  0  0  0
    5.6871  -52.3023  -24.2286 C   0  0  0  0  0  0  0  0  0  0  0  0
    4.6910  -51.3480  -24.4543 O   0  0  0  0  0  0  0  0  0  0  0  0
 34 35  1  0  0  0
 35 33  1  0  0  0
 33 32  1  0  0  0
 32 31  1  0  0  0
 31  1  1  0  0  0
  1  2  2  0  0  0
  2  3  1  0  0  0
  3  4  2  0  0  0
  4  5  1  0  0  0
  5  6  2  0  0  0
  6  7  1  0  0  0
  7 21  1  0  0  0
 21 23  1  0  0  0
 23 24  2  0  0  0
 24 25  1  0  0  0
 25 26  2  0  0  0
 26 27  1  0  0  0
 27 28  2  0  0  0
 27 29  1  0  0  0
 29 30  3  0  0  0
  7  8  2  0  0  0
  8  9  1  0  0  0
  9 10  2  0  0  0
 10 11  1  0  0  0
 11 12  1  0  0  0
 12 13  2  0  0  0
 12 15  1  0  0  0
 15 16  2  0  0  0
 16 17  1  0  0  0
 17 18  1  0  0  0
 18 19  1  0  0  0
 18 20  1  0  0  0
 10  1  1  0  0  0
  8  3  1  0  0  0
 28 23  1  0  0  0
 21 22  1  0  0  0
 11 14  1  0  0  0
M  END
> <minimizedAffinity>
-6.06712

> <CNNscore>
0.6602625251

> <CNNaffinity>
6.9254570007

> <CNN_VS>
4.5726199150

> <CNNaffinity_variance>
0.1702263206

$$$$
[H]C#Cc1c([H])c([H])c([H])c(N([H])c2nc([H])nc3c([H])c(OC([H])([H])C([H])([H])OC([H])([H])[H])c(N([H])C(=O)/C([H])=C(\[H])C([H])([H])N(C([H])([H])[H])C([H])([H])[H])c([H])c23)c1[H]


 35 37  0  0  0  0  0  0  0  0999 V2000
    0.4502  -51.6410  -20.1477 C   0  0  0  0  0  0  0  0  0  0  0  0
   -0.0185  -52.9064  -20.3738 C   0  0  0  0  0  0  0  0  0  0  0  0
   -0.4560  -53.3637  -21.6106 C   0  0  0  0  0  0  0  0  0  0  0  0
   -0.9080  -54.6062  -21.7799 N   0  0  0  0  0  0  0  0  0  0  0  0
   -1.3361  -55.0605  -22.9697 C   0  0  0  0  0  0  0  0  0  0  0  0
   -1.3073  -54.2441  -24.0088 N   0  0  0  0  0  0  0  0  0  0  0  0
   -0.8592  -52.9674  -23.9048 C   0  0  0  0  0  0  0  0  0  0  0  0
   -0.4202  -52.5015  -22.6856 C   0  0  0  0  0  0  0  0  0  0  0  0
    0.0565  -51.2089  -22.4709 C   0  0  0  0  0  0  0  0  0  0  0  0
    0.4895  -50.7506  -21.2494 C   0  0  0  0  0  0  0  0  0  0  0  0
    0.9573  -49.4481  -21.0004 N   0  0  0  0  0  0  0  0  0  0  0  0
    1.8904  -48.6911  -21.7354 C   0  0  0  0  0  0  0  0  0  0  0  0
    2.4846  -49.0994  -22.7877 O   0  0  0  0  0  0  0  0  0  0  0  0
    0.5668  -48.9416  -20.1426 H   0  0  0  0  0  0  0  0  0  0  0  0
    2.2797  -47.3202  -21.3519 C   0  0  0  0  0  0  0  0  0  0  0  0
    3.4670  -46.7978  -21.5262 C   0  0  0  0  0  0  0  0  0  0  0  0
    3.8628  -45.4433  -21.1510 C   0  0  0  0  0  0  0  0  0  0  0  0
    4.8762  -44.7967  -21.8490 N   0  0  0  0  0  0  0  0  0  0  0  0
    6.1965  -44.8290  -21.3009 C   0  0  0  0  0  0  0  0  0  0  0  0
    4.8227  -44.7965  -23.2768 C   0  0  0  0  0  0  0  0  0  0  0  0
   -0.8712  -52.1118  -25.0303 N   0  0  0  0  0  0  0  0  0  0  0  0
   -0.9250  -51.0670  -24.8906 H   0  0  0  0  0  0  0  0  0  0  0  0
   -0.8130  -52.5103  -26.3895 C   0  0  0  0  0  0  0  0  0  0  0  0
   -1.9569  -52.2937  -27.1723 C   0  0  0  0  0  0  0  0  0  0  0  0
   -1.9094  -52.6526  -28.4925 C   0  0  0  0  0  0  0  0  0  0  0  0
   -0.7825  -53.2108  -29.0557 C   0  0  0  0  0  0  0  0  0  0  0  0
    0.3573  -53.4367  -28.3186 C   0  0  0  0  0  0  0  0  0  0  0  0
    0.2961  -53.0632  -26.9627 C   0  0  0  0  0  0  0  0  0  0  0  0
    1.5494  -54.0213  -28.8781 C   0  0  0  0  0  0  0  0  0  0  0  0
    2.5438  -54.5336  -29.3548 C   0  0  0  0  0  0  0  0  0  0  0  0
    0.8843  -51.1990  -18.9182 O   0  0  0  0  0  0  0  0  0  0  0  0
    2.0627  -51.5288  -18.2696 C   0  0  0  0  0  0  0  0  0  0  0  0
    3.3114  -51.0508  -18.9358 C   0  0  0  0  0  0  0  0  0  0  0  0
    4.3080  -51.2657  -20.9309 C   0  0  0  0  0  0  0  0  0  0  0  0
    3.7679  -51.9963  -19.8687 O   0  0  0  0  0  0  0  0  0  0  0  0
 34 35  1  0  0  0
 35 33  1  0  0  0
 33 32  1  0  0  0
 32 31  1  0  0  0
 31  1  1  0  0  0
  1  2  2  0  0  0
  2  3  1  0  0  0
  3  4  2  0  0  0
  4  5  1  0  0  0
  5  6  2  0  0  0
  6  7  1  0  0  0
  7 21  1  0  0  0
 21 23  1  0  0  0
 23 24  2  0  0  0
 24 25  1  0  0  0
 25 26  2  0  0  0
 26 27  1  0  0  0
 27 28  2  0  0  0
 27 29  1  0  0  0
 29 30  3  0  0  0
  7  8  2  0  0  0
  8  9  1  0  0  0
  9 10  2  0  0  0
 10 11  1  0  0  0
 11 12  1  0  0  0
 12 13  2  0  0  0
 12 15  1  0  0  0
 15 16  2  0  0  0
 16 17  1  0  0  0
 17 18  1  0  0  0
 18 19  1  0  0  0
 18 20  1  0  0  0
 10  1  1  0  0  0
  8  3  1  0  0  0
 28 23  1  0  0  0
 21 22  1  0  0  0
 11 14  1  0  0  0
M  END
> <minimizedAffinity>
-5.78414

> <CNNscore>
0.6379681826

> <CNNaffinity>
6.9272756577

> <CNN_VS>
4.4193816185

> <CNNaffinity_variance>
0.2366099805

$$$$
[H]C#Cc1c([H])c([H])c([H])c(N([H])c2nc([H])nc3c([H])c(OC([H])([H])C([H])([H])OC([H])([H])[H])c(N([H])C(=O)/C([H])=C(\[H])C([H])([H])N(C([H])([H])[H])C([H])([H])[H])c([H])c23)c1[H]


 35 37  0  0  0  0  0  0  0  0999 V2000
    1.1140  -51.7625  -23.5863 C   0  0  0  0  0  0  0  0  0  0  0  0
    0.2927  -52.6794  -22.9889 C   0  0  0  0  0  0  0  0  0  0  0  0
   -0.0713  -52.6402  -21.6487 C   0  0  0  0  0  0  0  0  0  0  0  0
   -0.8724  -53.5601  -21.1115 N   0  0  0  0  0  0  0  0  0  0  0  0
   -1.2303  -53.5352  -19.8168 C   0  0  0  0  0  0  0  0  0  0  0  0
   -0.7702  -52.5623  -19.0494 N   0  0  0  0  0  0  0  0  0  0  0  0
    0.0489  -51.5946  -19.5332 C   0  0  0  0  0  0  0  0  0  0  0  0
    0.4158  -51.6197  -20.8602 C   0  0  0  0  0  0  0  0  0  0  0  0
    1.2529  -50.6766  -21.4554 C   0  0  0  0  0  0  0  0  0  0  0  0
    1.6173  -50.7111  -22.7804 C   0  0  0  0  0  0  0  0  0  0  0  0
    2.4736  -49.7850  -23.4020 N   0  0  0  0  0  0  0  0  0  0  0  0
    2.6851  -48.4291  -23.0844 C   0  0  0  0  0  0  0  0  0  0  0  0
    2.0954  -47.8070  -22.1397 O   0  0  0  0  0  0  0  0  0  0  0  0
    3.0543  -50.1324  -24.2308 H   0  0  0  0  0  0  0  0  0  0  0  0
    3.6319  -47.5769  -23.8295 C   0  0  0  0  0  0  0  0  0  0  0  0
    4.9360  -47.6469  -23.7443 C   0  0  0  0  0  0  0  0  0  0  0  0
    5.8816  -46.8092  -24.4766 C   0  0  0  0  0  0  0  0  0  0  0  0
    6.5801  -47.3320  -25.5588 N   0  0  0  0  0  0  0  0  0  0  0  0
    6.8261  -48.7404  -25.5832 C   0  0  0  0  0  0  0  0  0  0  0  0
    6.3834  -46.7383  -26.8435 C   0  0  0  0  0  0  0  0  0  0  0  0
    0.5474  -50.5861  -18.6769 N   0  0  0  0  0  0  0  0  0  0  0  0
    0.2421  -49.5854  -18.8165 H   0  0  0  0  0  0  0  0  0  0  0  0
    1.4495  -50.7693  -17.5987 C   0  0  0  0  0  0  0  0  0  0  0  0
    2.8202  -50.7457  -17.8965 C   0  0  0  0  0  0  0  0  0  0  0  0
    3.7050  -50.8989  -16.8632 C   0  0  0  0  0  0  0  0  0  0  0  0
    3.2834  -51.0722  -15.5627 C   0  0  0  0  0  0  0  0  0  0  0  0
    1.9475  -51.0995  -15.2340 C   0  0  0  0  0  0  0  0  0  0  0  0
    1.0479  -50.9406  -16.3050 C   0  0  0  0  0  0  0  0  0  0  0  0
    1.4761  -51.2820  -13.8848 C   0  0  0  0  0  0  0  0  0  0  0  0
    1.0962  -51.4244  -12.7385 C   0  0  0  0  0  0  0  0  0  0  0  0
    1.4658  -51.8092  -24.9165 O   0  0  0  0  0  0  0  0  0  0  0  0
    2.0590  -52.8593  -25.5973 C   0  0  0  0  0  0  0  0  0  0  0  0
    3.4947  -52.6553  -25.9563 C   0  0  0  0  0  0  0  0  0  0  0  0
    5.0180  -52.2440  -24.3657 C   0  0  0  0  0  0  0  0  0  0  0  0
    4.0590  -51.6317  -25.1776 O   0  0  0  0  0  0  0  0  0  0  0  0
 34 35  1  0  0  0
 35 33  1  0  0  0
 33 32  1  0  0  0
 32 31  1  0  0  0
 31  1  1  0  0  0
  1  2  2  0  0  0
  2  3  1  0  0  0
  3  4  2  0  0  0
  4  5  1  0  0  0
  5  6  2  0  0  0
  6  7  1  0  0  0
  7 21  1  0  0  0
 21 23  1  0  0  0
 23 24  2  0  0  0
 24 25  1  0  0  0
 25 26  2  0  0  0
 26 27  1  0  0  0
 27 28  2  0  0  0
 27 29  1  0  0  0
 29 30  3  0  0  0
  7  8  2  0  0  0
  8  9  1  0  0  0
  9 10  2  0  0  0
 10 11  1  0  0  0
 11 12  1  0  0  0
 12 13  2  0  0  0
 12 15  1  0  0  0
 15 16  2  0  0  0
 16 17  1  0  0  0
 17 18  1  0  0  0
 18 19  1  0  0  0
 18 20  1  0  0  0
 10  1  1  0  0  0
  8  3  1  0  0  0
 28 23  1  0  0  0
 21 22  1  0  0  0
 11 14  1  0  0  0
M  END
> <minimizedAffinity>
-5.36565

> <CNNscore>
0.3542310297

> <CNNaffinity>
6.4857230186

> <CNN_VS>
2.2974443436

> <CNNaffinity_variance>
0.2568029165

$$$$
[H]OC([H])([H])C1([H])N(C([H])([H])/C([H])=C(\[H])C(=O)N([H])c2c(OC([H])([H])[C@@]3([H])OC([H])([H])C([H])([H])OC3([H])[H])c([H])c3nc([H])nc(N([H])c4c([H])c([H])c(F)c(Cl)c4[H])c3c2[H])C([H])([H])C1([H])[H]


 42 46  0  0  0  0  0  0  0  0999 V2000
    0.4971  -51.6554  -20.3651 C   0  0  0  0  0  0  0  0  0  0  0  0
    0.5195  -51.9497  -21.7096 C   0  0  0  0  0  0  0  0  0  0  0  0
   -0.1759  -53.0427  -22.2140 C   0  0  0  0  0  0  0  0  0  0  0  0
   -0.1691  -53.3602  -23.5764 C   0  0  0  0  0  0  0  0  0  0  0  0
   -0.8757  -54.4433  -23.9863 N   0  0  0  0  0  0  0  0  0  0  0  0
   -1.5748  -55.2209  -23.1658 C   0  0  0  0  0  0  0  0  0  0  0  0
   -1.5694  -54.9019  -21.8661 N   0  0  0  0  0  0  0  0  0  0  0  0
   -0.8911  -53.8399  -21.3797 C   0  0  0  0  0  0  0  0  0  0  0  0
   -0.9047  -53.5335  -20.0324 C   0  0  0  0  0  0  0  0  0  0  0  0
   -0.2451  -52.4709  -19.4545 C   0  0  0  0  0  0  0  0  0  0  0  0
    2.4326  -50.5757  -19.1245 C   0  0  0  0  0  0  0  0  0  0  0  0
    3.1372  -51.5684  -18.9129 O   0  0  0  0  0  0  0  0  0  0  0  0
    1.1843  -50.5587  -19.8010 N   0  0  0  0  0  0  0  0  0  0  0  0
    0.6923  -49.5993  -19.9026 H   0  0  0  0  0  0  0  0  0  0  0  0
    4.2004  -48.9941  -18.5507 C   0  0  0  0  0  0  0  0  0  0  0  0
    2.9060  -49.2406  -18.6358 C   0  0  0  0  0  0  0  0  0  0  0  0
    4.7330  -47.6914  -18.0741 C   0  0  0  0  0  0  0  0  0  0  0  0
    4.8892  -46.7942  -15.8802 C   0  0  0  0  0  0  0  0  0  0  0  0
    4.4656  -45.3623  -16.0160 C   0  0  0  0  0  0  0  0  0  0  0  0
    3.5220  -45.8210  -17.0893 C   0  0  0  0  0  0  0  0  0  0  0  0
    3.9812  -47.1890  -16.9400 N   0  0  0  0  0  0  0  0  0  0  0  0
    4.5127  -48.8221  -14.6401 O   0  0  0  0  0  0  0  0  0  0  0  0
    4.5522  -47.4409  -14.5547 C   0  0  0  0  0  0  0  0  0  0  0  0
    4.2333  -49.1570  -13.7508 H   0  0  0  0  0  0  0  0  0  0  0  0
    0.5741  -52.6117  -24.4923 N   0  0  0  0  0  0  0  0  0  0  0  0
    1.3034  -51.9109  -24.2016 H   0  0  0  0  0  0  0  0  0  0  0  0
    0.4194  -52.7256  -25.8927 C   0  0  0  0  0  0  0  0  0  0  0  0
    1.4249  -52.9237  -26.7963 C   0  0  0  0  0  0  0  0  0  0  0  0
    1.1621  -52.9881  -28.1728 C   0  0  0  0  0  0  0  0  0  0  0  0
   -0.1078  -52.8566  -28.6638 C   0  0  0  0  0  0  0  0  0  0  0  0
   -0.3520  -52.9203  -29.9971 F   0  0  0  0  0  0  0  0  0  0  0  0
   -1.1283  -52.6590  -27.7780 C   0  0  0  0  0  0  0  0  0  0  0  0
   -2.7484  -52.4939  -28.4296 Cl  0  0  0  0  0  0  0  0  0  0  0  0
   -0.8713  -52.5970  -26.4535 C   0  0  0  0  0  0  0  0  0  0  0  0
   -0.2488  -52.1670  -18.1507 O   0  0  0  0  0  0  0  0  0  0  0  0
   -1.0177  -52.2352  -17.0498 C   0  0  0  0  0  0  0  0  0  0  0  0
   -0.4336  -51.9512  -15.7023 C   0  0  0  0  0  0  0  0  0  0  0  0
   -1.3509  -50.8752  -15.0821 C   0  0  0  0  0  0  0  0  0  0  0  0
   -1.3333  -49.8240  -15.9973 O   0  0  0  0  0  0  0  0  0  0  0  0
   -0.0852  -49.2493  -15.9928 C   0  0  0  0  0  0  0  0  0  0  0  0
    0.9971  -50.1267  -15.4537 C   0  0  0  0  0  0  0  0  0  0  0  0
    0.8238  -51.4713  -15.6247 O   0  0  0  0  0  0  0  0  0  0  0  0
 22 23  1  0  0  0
 23 18  1  0  0  0
 18 19  1  0  0  0
 19 20  1  0  0  0
 20 21  1  0  0  0
 21 17  1  0  0  0
 17 15  1  0  0  0
 15 16  2  0  0  0
 16 11  1  0  0  0
 11 12  2  0  0  0
 11 13  1  0  0  0
 13  1  1  0  0  0
  1  2  2  0  0  0
  2  3  1  0  0  0
  3  4  2  0  0  0
  4 25  1  0  0  0
 25 27  1  0  0  0
 27 28  2  0  0  0
 28 29  1  0  0  0
 29 30  2  0  0  0
 30 31  1  0  0  0
 30 32  1  0  0  0
 32 33  1  0  0  0
 32 34  2  0  0  0
  4  5  1  0  0  0
  5  6  2  0  0  0
  6  7  1  0  0  0
  7  8  2  0  0  0
  8  9  1  0  0  0
  9 10  2  0  0  0
 10 35  1  0  0  0
 35 36  1  0  0  0
 36 37  1  0  0  0
 37 38  1  0  0  0
 38 39  1  0  0  0
 39 40  1  0  0  0
 40 41  1  0  0  0
 41 42  1  0  0  0
 21 18  1  0  0  0
 10  1  1  0  0  0
 42 37  1  0  0  0
  8  3  1  0  0  0
 34 27  1  0  0  0
 22 24  1  0  0  0
 13 14  1  0  0  0
 25 26  1  0  0  0
M  END
> <minimizedAffinity>
-8.46148

> <CNNscore>
0.9717202783

> <CNNaffinity>
7.6901674271

> <CNN_VS>
7.4726915359

> <CNNaffinity_variance>
0.0166848041

$$$$
[H]OC([H])([H])C1([H])N(C([H])([H])/C([H])=C(\[H])C(=O)N([H])c2c(OC([H])([H])[C@@]3([H])OC([H])([H])C([H])([H])OC3([H])[H])c([H])c3nc([H])nc(N([H])c4c([H])c([H])c(F)c(Cl)c4[H])c3c2[H])C([H])([H])C1([H])[H]


 42 46  0  0  0  0  0  0  0  0999 V2000
    0.7497  -51.7894  -20.6516 C   0  0  0  0  0  0  0  0  0  0  0  0
    0.7293  -52.1740  -21.9732 C   0  0  0  0  0  0  0  0  0  0  0  0
   -0.0702  -53.2288  -22.3986 C   0  0  0  0  0  0  0  0  0  0  0  0
   -0.1085  -53.6361  -23.7364 C   0  0  0  0  0  0  0  0  0  0  0  0
   -0.9170  -54.6737  -24.0682 N   0  0  0  0  0  0  0  0  0  0  0  0
   -1.6756  -55.3260  -23.1932 C   0  0  0  0  0  0  0  0  0  0  0  0
   -1.6257  -54.9225  -21.9181 N   0  0  0  0  0  0  0  0  0  0  0  0
   -0.8464  -53.8981  -21.5084 C   0  0  0  0  0  0  0  0  0  0  0  0
   -0.8160  -53.5022  -20.1849 C   0  0  0  0  0  0  0  0  0  0  0  0
   -0.0542  -52.4694  -19.6839 C   0  0  0  0  0  0  0  0  0  0  0  0
    2.7831  -50.8147  -19.4828 C   0  0  0  0  0  0  0  0  0  0  0  0
    3.3869  -51.8531  -19.1928 O   0  0  0  0  0  0  0  0  0  0  0  0
    1.5419  -50.7262  -20.1667 N   0  0  0  0  0  0  0  0  0  0  0  0
    1.1467  -49.7335  -20.3432 H   0  0  0  0  0  0  0  0  0  0  0  0
    4.6817  -49.2991  -19.2494 C   0  0  0  0  0  0  0  0  0  0  0  0
    3.3861  -49.4996  -19.0923 C   0  0  0  0  0  0  0  0  0  0  0  0
    5.3393  -48.0184  -18.8819 C   0  0  0  0  0  0  0  0  0  0  0  0
    6.4774  -48.4523  -20.9213 C   0  0  0  0  0  0  0  0  0  0  0  0
    6.5708  -47.1206  -21.6039 C   0  0  0  0  0  0  0  0  0  0  0  0
    6.6919  -46.5122  -20.2371 C   0  0  0  0  0  0  0  0  0  0  0  0
    6.5721  -47.8194  -19.6197 N   0  0  0  0  0  0  0  0  0  0  0  0
    7.2001  -50.6945  -21.4135 O   0  0  0  0  0  0  0  0  0  0  0  0
    7.6278  -49.3962  -21.1941 C   0  0  0  0  0  0  0  0  0  0  0  0
    8.0127  -51.2493  -21.5273 H   0  0  0  0  0  0  0  0  0  0  0  0
    0.6902  -53.0232  -24.7048 N   0  0  0  0  0  0  0  0  0  0  0  0
    1.5710  -52.4966  -24.4715 H   0  0  0  0  0  0  0  0  0  0  0  0
    0.3935  -53.0537  -26.0865 C   0  0  0  0  0  0  0  0  0  0  0  0
    1.2824  -53.3130  -27.0912 C   0  0  0  0  0  0  0  0  0  0  0  0
    0.8864  -53.2842  -28.4367 C   0  0  0  0  0  0  0  0  0  0  0  0
   -0.4021  -52.9973  -28.7954 C   0  0  0  0  0  0  0  0  0  0  0  0
   -0.7756  -52.9718  -30.0996 F   0  0  0  0  0  0  0  0  0  0  0  0
   -1.3076  -52.7361  -27.8069 C   0  0  0  0  0  0  0  0  0  0  0  0
   -2.9539  -52.3715  -28.2896 Cl  0  0  0  0  0  0  0  0  0  0  0  0
   -0.9223  -52.7642  -26.5126 C   0  0  0  0  0  0  0  0  0  0  0  0
   -0.0147  -52.0797  -18.4037 O   0  0  0  0  0  0  0  0  0  0  0  0
   -0.8117  -51.7824  -17.3624 C   0  0  0  0  0  0  0  0  0  0  0  0
   -0.2399  -51.1613  -16.1275 C   0  0  0  0  0  0  0  0  0  0  0  0
   -1.0063  -51.8115  -14.9553 C   0  0  0  0  0  0  0  0  0  0  0  0
   -2.3488  -51.5430  -15.2173 O   0  0  0  0  0  0  0  0  0  0  0  0
   -2.5728  -50.1961  -15.0635 C   0  0  0  0  0  0  0  0  0  0  0  0
   -1.3447  -49.3507  -15.1588 C   0  0  0  0  0  0  0  0  0  0  0  0
   -0.3454  -49.8280  -15.9593 O   0  0  0  0  0  0  0  0  0  0  0  0
 22 23  1  0  0  0
 23 18  1  0  0  0
 18 19  1  0  0  0
 19 20  1  0  0  0
 20 21  1  0  0  0
 21 17  1  0  0  0
 17 15  1  0  0  0
 15 16  2  0  0  0
 16 11  1  0  0  0
 11 12  2  0  0  0
 11 13  1  0  0  0
 13  1  1  0  0  0
  1  2  2  0  0  0
  2  3  1  0  0  0
  3  4  2  0  0  0
  4 25  1  0  0  0
 25 27  1  0  0  0
 27 28  2  0  0  0
 28 29  1  0  0  0
 29 30  2  0  0  0
 30 31  1  0  0  0
 30 32  1  0  0  0
 32 33  1  0  0  0
 32 34  2  0  0  0
  4  5  1  0  0  0
  5  6  2  0  0  0
  6  7  1  0  0  0
  7  8  2  0  0  0
  8  9  1  0  0  0
  9 10  2  0  0  0
 10 35  1  0  0  0
 35 36  1  0  0  0
 36 37  1  0  0  0
 37 38  1  0  0  0
 38 39  1  0  0  0
 39 40  1  0  0  0
 40 41  1  0  0  0
 41 42  1  0  0  0
 21 18  1  0  0  0
 10  1  1  0  0  0
 42 37  1  0  0  0
  8  3  1  0  0  0
 34 27  1  0  0  0
 22 24  1  0  0  0
 13 14  1  0  0  0
 25 26  1  0  0  0
M  END
> <minimizedAffinity>
-8.57543

> <CNNscore>
0.9489894509

> <CNNaffinity>
7.7337250710

> <CNN_VS>
7.3392233849

> <CNNaffinity_variance>
0.0229714494

$$$$
[H]OC([H])([H])C1([H])N(C([H])([H])/C([H])=C(\[H])C(=O)N([H])c2c(OC([H])([H])[C@@]3([H])OC([H])([H])C([H])([H])OC3([H])[H])c([H])c3nc([H])nc(N([H])c4c([H])c([H])c(F)c(Cl)c4[H])c3c2[H])C([H])([H])C1([H])[H]


 42 46  0  0  0  0  0  0  0  0999 V2000
    0.9688  -51.2265  -20.3301 C   0  0  0  0  0  0  0  0  0  0  0  0
    0.8771  -51.6100  -21.6490 C   0  0  0  0  0  0  0  0  0  0  0  0
    0.1339  -52.7251  -22.0193 C   0  0  0  0  0  0  0  0  0  0  0  0
    0.0250  -53.1327  -23.3531 C   0  0  0  0  0  0  0  0  0  0  0  0
   -0.7213  -54.2314  -23.6293 N   0  0  0  0  0  0  0  0  0  0  0  0
   -1.3555  -54.9434  -22.7033 C   0  0  0  0  0  0  0  0  0  0  0  0
   -1.2397  -54.5385  -21.4330 N   0  0  0  0  0  0  0  0  0  0  0  0
   -0.5154  -53.4554  -21.0770 C   0  0  0  0  0  0  0  0  0  0  0  0
   -0.4145  -53.0597  -19.7569 C   0  0  0  0  0  0  0  0  0  0  0  0
    0.2988  -51.9697  -19.3084 C   0  0  0  0  0  0  0  0  0  0  0  0
    1.6197  -48.7721  -20.3848 C   0  0  0  0  0  0  0  0  0  0  0  0
    0.8684  -48.3668  -21.2782 O   0  0  0  0  0  0  0  0  0  0  0  0
    1.7086  -50.1037  -19.8999 N   0  0  0  0  0  0  0  0  0  0  0  0
    2.4230  -50.2928  -19.1083 H   0  0  0  0  0  0  0  0  0  0  0  0
    3.2405  -46.9491  -20.4588 C   0  0  0  0  0  0  0  0  0  0  0  0
    2.5425  -47.7944  -19.7229 C   0  0  0  0  0  0  0  0  0  0  0  0
    4.1718  -45.9562  -19.8632 C   0  0  0  0  0  0  0  0  0  0  0  0
    6.3196  -46.8545  -19.3912 C   0  0  0  0  0  0  0  0  0  0  0  0
    6.9613  -45.8610  -18.4696 C   0  0  0  0  0  0  0  0  0  0  0  0
    5.5907  -45.6027  -17.9148 C   0  0  0  0  0  0  0  0  0  0  0  0
    5.0107  -46.5550  -18.8427 N   0  0  0  0  0  0  0  0  0  0  0  0
    5.6885  -49.0636  -18.6744 O   0  0  0  0  0  0  0  0  0  0  0  0
    6.7279  -48.2942  -19.1687 C   0  0  0  0  0  0  0  0  0  0  0  0
    6.0551  -49.9684  -18.5075 H   0  0  0  0  0  0  0  0  0  0  0  0
    0.6950  -52.4567  -24.3756 N   0  0  0  0  0  0  0  0  0  0  0  0
    1.4532  -51.7497  -24.1941 H   0  0  0  0  0  0  0  0  0  0  0  0
    0.4208  -52.6588  -25.7474 C   0  0  0  0  0  0  0  0  0  0  0  0
    1.3348  -52.9934  -26.7063 C   0  0  0  0  0  0  0  0  0  0  0  0
    0.9584  -53.1367  -28.0501 C   0  0  0  0  0  0  0  0  0  0  0  0
   -0.3354  -52.9488  -28.4527 C   0  0  0  0  0  0  0  0  0  0  0  0
   -0.6898  -53.0897  -29.7549 F   0  0  0  0  0  0  0  0  0  0  0  0
   -1.2658  -52.6149  -27.5104 C   0  0  0  0  0  0  0  0  0  0  0  0
   -2.9183  -52.3796  -28.0489 Cl  0  0  0  0  0  0  0  0  0  0  0  0
   -0.8993  -52.4772  -26.2177 C   0  0  0  0  0  0  0  0  0  0  0  0
    0.4059  -51.5795  -18.0323 O   0  0  0  0  0  0  0  0  0  0  0  0
   -0.2315  -50.8686  -17.0855 C   0  0  0  0  0  0  0  0  0  0  0  0
    0.3750  -50.7056  -15.7278 C   0  0  0  0  0  0  0  0  0  0  0  0
    0.7382  -49.2086  -15.6238 C   0  0  0  0  0  0  0  0  0  0  0  0
    1.5802  -48.9719  -16.7092 O   0  0  0  0  0  0  0  0  0  0  0  0
    2.7709  -49.6251  -16.5009 C   0  0  0  0  0  0  0  0  0  0  0  0
    2.6968  -50.7460  -15.5161 C   0  0  0  0  0  0  0  0  0  0  0  0
    1.4959  -51.3918  -15.4276 O   0  0  0  0  0  0  0  0  0  0  0  0
 22 23  1  0  0  0
 23 18  1  0  0  0
 18 19  1  0  0  0
 19 20  1  0  0  0
 20 21  1  0  0  0
 21 17  1  0  0  0
 17 15  1  0  0  0
 15 16  2  0  0  0
 16 11  1  0  0  0
 11 12  2  0  0  0
 11 13  1  0  0  0
 13  1  1  0  0  0
  1  2  2  0  0  0
  2  3  1  0  0  0
  3  4  2  0  0  0
  4 25  1  0  0  0
 25 27  1  0  0  0
 27 28  2  0  0  0
 28 29  1  0  0  0
 29 30  2  0  0  0
 30 31  1  0  0  0
 30 32  1  0  0  0
 32 33  1  0  0  0
 32 34  2  0  0  0
  4  5  1  0  0  0
  5  6  2  0  0  0
  6  7  1  0  0  0
  7  8  2  0  0  0
  8  9  1  0  0  0
  9 10  2  0  0  0
 10 35  1  0  0  0
 35 36  1  0  0  0
 36 37  1  0  0  0
 37 38  1  0  0  0
 38 39  1  0  0  0
 39 40  1  0  0  0
 40 41  1  0  0  0
 41 42  1  0  0  0
 21 18  1  0  0  0
 10  1  1  0  0  0
 42 37  1  0  0  0
  8  3  1  0  0  0
 34 27  1  0  0  0
 22 24  1  0  0  0
 13 14  1  0  0  0
 25 26  1  0  0  0
M  END
> <minimizedAffinity>
-8.03152

> <CNNscore>
0.9250004888

> <CNNaffinity>
7.5062828064

> <CNN_VS>
6.9433150291

> <CNNaffinity_variance>
0.0457290821

$$$$
[H]OC([H])([H])C1([H])N(C([H])([H])/C([H])=C(\[H])C(=O)N([H])c2c(OC([H])([H])[C@@]3([H])OC([H])([H])C([H])([H])OC3([H])[H])c([H])c3nc([H])nc(N([H])c4c([H])c([H])c(F)c(Cl)c4[H])c3c2[H])C([H])([H])C1([H])[H]


 42 46  0  0  0  0  0  0  0  0999 V2000
    0.9202  -51.4306  -20.1292 C   0  0  0  0  0  0  0  0  0  0  0  0
    0.8544  -51.8321  -21.4443 C   0  0  0  0  0  0  0  0  0  0  0  0
    0.0320  -52.8845  -21.8302 C   0  0  0  0  0  0  0  0  0  0  0  0
   -0.0524  -53.3088  -23.1606 C   0  0  0  0  0  0  0  0  0  0  0  0
   -0.8807  -54.3427  -23.4529 N   0  0  0  0  0  0  0  0  0  0  0  0
   -1.6172  -54.9761  -22.5458 C   0  0  0  0  0  0  0  0  0  0  0  0
   -1.5233  -54.5566  -21.2785 N   0  0  0  0  0  0  0  0  0  0  0  0
   -0.7219  -53.5346  -20.9072 C   0  0  0  0  0  0  0  0  0  0  0  0
   -0.6459  -53.1218  -19.5907 C   0  0  0  0  0  0  0  0  0  0  0  0
    0.1410  -52.0901  -19.1277 C   0  0  0  0  0  0  0  0  0  0  0  0
    3.0404  -50.4558  -19.1265 C   0  0  0  0  0  0  0  0  0  0  0  0
    3.6873  -51.4910  -18.9350 O   0  0  0  0  0  0  0  0  0  0  0  0
    1.7372  -50.3689  -19.6838 N   0  0  0  0  0  0  0  0  0  0  0  0
    1.3096  -49.3791  -19.7842 H   0  0  0  0  0  0  0  0  0  0  0  0
    2.9059  -48.0573  -18.6963 C   0  0  0  0  0  0  0  0  0  0  0  0
    3.6555  -49.1430  -18.7473 C   0  0  0  0  0  0  0  0  0  0  0  0
    3.4555  -46.7270  -18.3274 C   0  0  0  0  0  0  0  0  0  0  0  0
    4.3237  -46.8375  -16.1191 C   0  0  0  0  0  0  0  0  0  0  0  0
    4.6289  -45.4163  -15.7511 C   0  0  0  0  0  0  0  0  0  0  0  0
    3.4441  -45.0244  -16.5851 C   0  0  0  0  0  0  0  0  0  0  0  0
    3.2025  -46.4114  -16.9345 N   0  0  0  0  0  0  0  0  0  0  0  0
    4.1167  -49.0648  -15.2315 O   0  0  0  0  0  0  0  0  0  0  0  0
    3.9019  -47.7230  -14.9673 C   0  0  0  0  0  0  0  0  0  0  0  0
    3.7648  -49.5703  -14.4557 H   0  0  0  0  0  0  0  0  0  0  0  0
    0.7208  -52.7163  -24.1618 N   0  0  0  0  0  0  0  0  0  0  0  0
    1.6356  -52.2331  -23.9687 H   0  0  0  0  0  0  0  0  0  0  0  0
    0.3505  -52.7113  -25.5259 C   0  0  0  0  0  0  0  0  0  0  0  0
   -0.8033  -52.1915  -26.0409 C   0  0  0  0  0  0  0  0  0  0  0  0
   -1.0869  -52.2709  -27.4126 C   0  0  0  0  0  0  0  0  0  0  0  0
   -0.2215  -52.8693  -28.2867 C   0  0  0  0  0  0  0  0  0  0  0  0
   -0.5047  -52.9412  -29.6119 F   0  0  0  0  0  0  0  0  0  0  0  0
    0.9386  -53.3947  -27.7934 C   0  0  0  0  0  0  0  0  0  0  0  0
    2.0336  -54.1564  -28.9322 Cl  0  0  0  0  0  0  0  0  0  0  0  0
    1.2078  -53.3167  -26.4721 C   0  0  0  0  0  0  0  0  0  0  0  0
    0.2247  -51.6842  -17.8547 O   0  0  0  0  0  0  0  0  0  0  0  0
   -0.5181  -51.5129  -16.7470 C   0  0  0  0  0  0  0  0  0  0  0  0
   -0.7832  -50.1378  -16.2213 C   0  0  0  0  0  0  0  0  0  0  0  0
    0.5963  -49.4451  -16.1857 C   0  0  0  0  0  0  0  0  0  0  0  0
    1.3866  -50.2702  -15.3871 O   0  0  0  0  0  0  0  0  0  0  0  0
    0.9378  -50.1992  -14.0905 C   0  0  0  0  0  0  0  0  0  0  0  0
   -0.4694  -49.7177  -13.9492 C   0  0  0  0  0  0  0  0  0  0  0  0
   -1.3104  -50.0015  -14.9881 O   0  0  0  0  0  0  0  0  0  0  0  0
 22 23  1  0  0  0
 23 18  1  0  0  0
 18 19  1  0  0  0
 19 20  1  0  0  0
 20 21  1  0  0  0
 21 17  1  0  0  0
 17 15  1  0  0  0
 15 16  2  0  0  0
 16 11  1  0  0  0
 11 12  2  0  0  0
 11 13  1  0  0  0
 13  1  1  0  0  0
  1  2  2  0  0  0
  2  3  1  0  0  0
  3  4  2  0  0  0
  4 25  1  0  0  0
 25 27  1  0  0  0
 27 28  2  0  0  0
 28 29  1  0  0  0
 29 30  2  0  0  0
 30 31  1  0  0  0
 30 32  1  0  0  0
 32 33  1  0  0  0
 32 34  2  0  0  0
  4  5  1  0  0  0
  5  6  2  0  0  0
  6  7  1  0  0  0
  7  8  2  0  0  0
  8  9  1  0  0  0
  9 10  2  0  0  0
 10 35  1  0  0  0
 35 36  1  0  0  0
 36 37  1  0  0  0
 37 38  1  0  0  0
 38 39  1  0  0  0
 39 40  1  0  0  0
 40 41  1  0  0  0
 41 42  1  0  0  0
 21 18  1  0  0  0
 10  1  1  0  0  0
 42 37  1  0  0  0
  8  3  1  0  0  0
 34 27  1  0  0  0
 22 24  1  0  0  0
 13 14  1  0  0  0
 25 26  1  0  0  0
M  END
> <minimizedAffinity>
-7.77241

> <CNNscore>
0.7945588827

> <CNNaffinity>
7.3013381958

> <CNN_VS>
5.8013429642

> <CNNaffinity_variance>
0.1208684295

$$$$
[H]OC([H])([H])C1([H])N(C([H])([H])/C([H])=C(\[H])C(=O)N([H])c2c(OC([H])([H])[C@@]3([H])OC([H])([H])C([H])([H])OC3([H])[H])c([H])c3nc([H])nc(N([H])c4c([H])c([H])c(F)c(Cl)c4[H])c3c2[H])C([H])([H])C1([H])[H]


 42 46  0  0  0  0  0  0  0  0999 V2000
    0.8274  -51.4397  -20.1162 C   0  0  0  0  0  0  0  0  0  0  0  0
    0.7703  -51.8288  -21.4353 C   0  0  0  0  0  0  0  0  0  0  0  0
   -0.0313  -52.8930  -21.8328 C   0  0  0  0  0  0  0  0  0  0  0  0
   -0.1065  -53.3052  -23.1675 C   0  0  0  0  0  0  0  0  0  0  0  0
   -0.9144  -54.3519  -23.4711 N   0  0  0  0  0  0  0  0  0  0  0  0
   -1.6392  -55.0087  -22.5713 C   0  0  0  0  0  0  0  0  0  0  0  0
   -1.5543  -54.6005  -21.2996 N   0  0  0  0  0  0  0  0  0  0  0  0
   -0.7731  -53.5670  -20.9171 C   0  0  0  0  0  0  0  0  0  0  0  0
   -0.7060  -53.1663  -19.5964 C   0  0  0  0  0  0  0  0  0  0  0  0
    0.0604  -52.1243  -19.1222 C   0  0  0  0  0  0  0  0  0  0  0  0
    2.9288  -50.4340  -19.1046 C   0  0  0  0  0  0  0  0  0  0  0  0
    3.5969  -51.4580  -18.9262 O   0  0  0  0  0  0  0  0  0  0  0  0
    1.6234  -50.3670  -19.6592 N   0  0  0  0  0  0  0  0  0  0  0  0
    1.1756  -49.3849  -19.7472 H   0  0  0  0  0  0  0  0  0  0  0  0
    2.8376  -48.0019  -18.9230 C   0  0  0  0  0  0  0  0  0  0  0  0
    3.5178  -49.1135  -18.7106 C   0  0  0  0  0  0  0  0  0  0  0  0
    3.3661  -46.6628  -18.5553 C   0  0  0  0  0  0  0  0  0  0  0  0
    3.9511  -45.9760  -20.7527 C   0  0  0  0  0  0  0  0  0  0  0  0
    4.3382  -44.5337  -20.6178 C   0  0  0  0  0  0  0  0  0  0  0  0
    4.8715  -44.8812  -19.2585 C   0  0  0  0  0  0  0  0  0  0  0  0
    4.4565  -46.2614  -19.4235 N   0  0  0  0  0  0  0  0  0  0  0  0
    3.9962  -47.8692  -22.2379 O   0  0  0  0  0  0  0  0  0  0  0  0
    4.6869  -46.7405  -21.8311 C   0  0  0  0  0  0  0  0  0  0  0  0
    4.5695  -48.3344  -22.8981 H   0  0  0  0  0  0  0  0  0  0  0  0
    0.6558  -52.6876  -24.1618 N   0  0  0  0  0  0  0  0  0  0  0  0
    1.5488  -52.1686  -23.9597 H   0  0  0  0  0  0  0  0  0  0  0  0
    0.3028  -52.7028  -25.5305 C   0  0  0  0  0  0  0  0  0  0  0  0
   -0.8510  -52.2038  -26.0658 C   0  0  0  0  0  0  0  0  0  0  0  0
   -1.1161  -52.3025  -27.4399 C   0  0  0  0  0  0  0  0  0  0  0  0
   -0.2321  -52.8994  -28.2963 C   0  0  0  0  0  0  0  0  0  0  0  0
   -0.4976  -52.9900  -29.6239 F   0  0  0  0  0  0  0  0  0  0  0  0
    0.9282  -53.4041  -27.7825 C   0  0  0  0  0  0  0  0  0  0  0  0
    2.0473  -54.1643  -28.8987 Cl  0  0  0  0  0  0  0  0  0  0  0  0
    1.1797  -53.3077  -26.4589 C   0  0  0  0  0  0  0  0  0  0  0  0
    0.1352  -51.7300  -17.8450 O   0  0  0  0  0  0  0  0  0  0  0  0
   -0.5488  -51.0574  -16.9027 C   0  0  0  0  0  0  0  0  0  0  0  0
   -0.1421  -49.6695  -16.5211 C   0  0  0  0  0  0  0  0  0  0  0  0
    1.1810  -49.8349  -15.7426 C   0  0  0  0  0  0  0  0  0  0  0  0
    0.8692  -50.6980  -14.6933 O   0  0  0  0  0  0  0  0  0  0  0  0
    0.0369  -50.0487  -13.8137 C   0  0  0  0  0  0  0  0  0  0  0  0
   -0.6851  -48.8777  -14.3961 C   0  0  0  0  0  0  0  0  0  0  0  0
   -0.9602  -48.9436  -15.7330 O   0  0  0  0  0  0  0  0  0  0  0  0
 22 23  1  0  0  0
 23 18  1  0  0  0
 18 19  1  0  0  0
 19 20  1  0  0  0
 20 21  1  0  0  0
 21 17  1  0  0  0
 17 15  1  0  0  0
 15 16  2  0  0  0
 16 11  1  0  0  0
 11 12  2  0  0  0
 11 13  1  0  0  0
 13  1  1  0  0  0
  1  2  2  0  0  0
  2  3  1  0  0  0
  3  4  2  0  0  0
  4 25  1  0  0  0
 25 27  1  0  0  0
 27 28  2  0  0  0
 28 29  1  0  0  0
 29 30  2  0  0  0
 30 31  1  0  0  0
 30 32  1  0  0  0
 32 33  1  0  0  0
 32 34  2  0  0  0
  4  5  1  0  0  0
  5  6  2  0  0  0
  6  7  1  0  0  0
  7  8  2  0  0  0
  8  9  1  0  0  0
  9 10  2  0  0  0
 10 35  1  0  0  0
 35 36  1  0  0  0
 36 37  1  0  0  0
 37 38  1  0  0  0
 38 39  1  0  0  0
 39 40  1  0  0  0
 40 41  1  0  0  0
 41 42  1  0  0  0
 21 18  1  0  0  0
 10  1  1  0  0  0
 42 37  1  0  0  0
  8  3  1  0  0  0
 34 27  1  0  0  0
 22 24  1  0  0  0
 13 14  1  0  0  0
 25 26  1  0  0  0
M  END
> <minimizedAffinity>
-7.75906

> <CNNscore>
0.7551914454

> <CNNaffinity>
7.4772086143

> <CNN_VS>
5.6467237473

> <CNNaffinity_variance>
0.2313634902

$$$$
[H]OC([H])([H])C1([H])N(C([H])([H])/C([H])=C(\[H])C(=O)N([H])c2c(OC([H])([H])[C@@]3([H])OC([H])([H])C([H])([H])OC3([H])[H])c([H])c3nc([H])nc(N([H])c4c([H])c([H])c(F)c(Cl)c4[H])c3c2[H])C([H])([H])C1([H])[H]


 42 46  0  0  0  0  0  0  0  0999 V2000
    0.4812  -51.2642  -19.3111 C   0  0  0  0  0  0  0  0  0  0  0  0
    0.4612  -51.4815  -20.6702 C   0  0  0  0  0  0  0  0  0  0  0  0
   -0.2111  -52.5721  -21.2100 C   0  0  0  0  0  0  0  0  0  0  0  0
   -0.2465  -52.8123  -22.5878 C   0  0  0  0  0  0  0  0  0  0  0  0
   -0.9265  -53.8988  -23.0323 N   0  0  0  0  0  0  0  0  0  0  0  0
   -1.5616  -54.7489  -22.2321 C   0  0  0  0  0  0  0  0  0  0  0  0
   -1.5166  -54.5033  -20.9173 N   0  0  0  0  0  0  0  0  0  0  0  0
   -0.8610  -53.4433  -20.3965 C   0  0  0  0  0  0  0  0  0  0  0  0
   -0.8324  -53.2136  -19.0343 C   0  0  0  0  0  0  0  0  0  0  0  0
   -0.1918  -52.1590  -18.4216 C   0  0  0  0  0  0  0  0  0  0  0  0
    2.4608  -50.1532  -18.1718 C   0  0  0  0  0  0  0  0  0  0  0  0
    3.2526  -51.1012  -18.1365 O   0  0  0  0  0  0  0  0  0  0  0  0
    1.1475  -50.1736  -18.7111 N   0  0  0  0  0  0  0  0  0  0  0  0
    0.5810  -49.2519  -18.6629 H   0  0  0  0  0  0  0  0  0  0  0  0
    3.5188  -48.7982  -16.4396 C   0  0  0  0  0  0  0  0  0  0  0  0
    2.8901  -48.8363  -17.6001 C   0  0  0  0  0  0  0  0  0  0  0  0
    3.9698  -47.5252  -15.8200 C   0  0  0  0  0  0  0  0  0  0  0  0
    2.8132  -45.5553  -15.1686 C   0  0  0  0  0  0  0  0  0  0  0  0
    3.6386  -44.4253  -15.7070 C   0  0  0  0  0  0  0  0  0  0  0  0
    3.9795  -45.3227  -16.8609 C   0  0  0  0  0  0  0  0  0  0  0  0
    3.1891  -46.3963  -16.2889 N   0  0  0  0  0  0  0  0  0  0  0  0
    0.5818  -46.4528  -15.2565 O   0  0  0  0  0  0  0  0  0  0  0  0
    1.3242  -45.2932  -15.1121 C   0  0  0  0  0  0  0  0  0  0  0  0
   -0.3716  -46.1844  -15.2633 H   0  0  0  0  0  0  0  0  0  0  0  0
    0.4299  -51.9839  -23.4864 N   0  0  0  0  0  0  0  0  0  0  0  0
    1.0775  -51.2134  -23.1792 H   0  0  0  0  0  0  0  0  0  0  0  0
    0.3110  -52.1028  -24.8899 C   0  0  0  0  0  0  0  0  0  0  0  0
   -0.8473  -52.0004  -25.6073 C   0  0  0  0  0  0  0  0  0  0  0  0
   -0.8564  -52.1697  -27.0000 C   0  0  0  0  0  0  0  0  0  0  0  0
    0.2909  -52.4423  -27.6932 C   0  0  0  0  0  0  0  0  0  0  0  0
    0.2719  -52.6044  -29.0403 F   0  0  0  0  0  0  0  0  0  0  0  0
    1.4604  -52.5479  -26.9959 C   0  0  0  0  0  0  0  0  0  0  0  0
    2.9190  -52.8970  -27.9052 Cl  0  0  0  0  0  0  0  0  0  0  0  0
    1.4650  -52.3847  -25.6551 C   0  0  0  0  0  0  0  0  0  0  0  0
   -0.1551  -51.9289  -17.1032 O   0  0  0  0  0  0  0  0  0  0  0  0
   -0.9433  -51.8771  -16.0151 C   0  0  0  0  0  0  0  0  0  0  0  0
   -2.3506  -51.3822  -16.1255 C   0  0  0  0  0  0  0  0  0  0  0  0
   -2.5009  -50.3352  -15.0008 C   0  0  0  0  0  0  0  0  0  0  0  0
   -2.1773  -51.0219  -13.8317 O   0  0  0  0  0  0  0  0  0  0  0  0
   -3.1608  -51.9449  -13.5696 C   0  0  0  0  0  0  0  0  0  0  0  0
   -3.9880  -52.3201  -14.7556 C   0  0  0  0  0  0  0  0  0  0  0  0
   -3.3638  -52.2577  -15.9696 O   0  0  0  0  0  0  0  0  0  0  0  0
 22 23  1  0  0  0
 23 18  1  0  0  0
 18 19  1  0  0  0
 19 20  1  0  0  0
 20 21  1  0  0  0
 21 17  1  0  0  0
 17 15  1  0  0  0
 15 16  2  0  0  0
 16 11  1  0  0  0
 11 12  2  0  0  0
 11 13  1  0  0  0
 13  1  1  0  0  0
  1  2  2  0  0  0
  2  3  1  0  0  0
  3  4  2  0  0  0
  4 25  1  0  0  0
 25 27  1  0  0  0
 27 28  2  0  0  0
 28 29  1  0  0  0
 29 30  2  0  0  0
 30 31  1  0  0  0
 30 32  1  0  0  0
 32 33  1  0  0  0
 32 34  2  0  0  0
  4  5  1  0  0  0
  5  6  2  0  0  0
  6  7  1  0  0  0
  7  8  2  0  0  0
  8  9  1  0  0  0
  9 10  2  0  0  0
 10 35  1  0  0  0
 35 36  1  0  0  0
 36 37  1  0  0  0
 37 38  1  0  0  0
 38 39  1  0  0  0
 39 40  1  0  0  0
 40 41  1  0  0  0
 41 42  1  0  0  0
 21 18  1  0  0  0
 10  1  1  0  0  0
 42 37  1  0  0  0
  8  3  1  0  0  0
 34 27  1  0  0  0
 22 24  1  0  0  0
 13 14  1  0  0  0
 25 26  1  0  0  0
M  END
> <minimizedAffinity>
-7.62199

> <CNNscore>
0.6977684498

> <CNNaffinity>
7.1821188927

> <CNN_VS>
5.0114560127

> <CNNaffinity_variance>
0.1196362227

$$$$
[H]OC([H])([H])C1([H])N(C([H])([H])/C([H])=C(\[H])C(=O)N([H])c2c(OC([H])([H])[C@@]3([H])OC([H])([H])C([H])([H])OC3([H])[H])c([H])c3nc([H])nc(N([H])c4c([H])c([H])c(F)c(Cl)c4[H])c3c2[H])C([H])([H])C1([H])[H]


 42 46  0  0  0  0  0  0  0  0999 V2000
    0.1708  -51.4860  -20.4509 C   0  0  0  0  0  0  0  0  0  0  0  0
    0.1750  -51.7167  -21.8079 C   0  0  0  0  0  0  0  0  0  0  0  0
   -0.3508  -52.8907  -22.3352 C   0  0  0  0  0  0  0  0  0  0  0  0
   -0.3590  -53.1462  -23.7106 C   0  0  0  0  0  0  0  0  0  0  0  0
   -0.8927  -54.3162  -24.1426 N   0  0  0  0  0  0  0  0  0  0  0  0
   -1.4087  -55.2346  -23.3322 C   0  0  0  0  0  0  0  0  0  0  0  0
   -1.3920  -54.9730  -22.0198 N   0  0  0  0  0  0  0  0  0  0  0  0
   -0.8788  -53.8317  -21.5113 C   0  0  0  0  0  0  0  0  0  0  0  0
   -0.8761  -53.5877  -20.1512 C   0  0  0  0  0  0  0  0  0  0  0  0
   -0.3768  -52.4528  -19.5506 C   0  0  0  0  0  0  0  0  0  0  0  0
    2.0495  -50.0196  -19.5729 C   0  0  0  0  0  0  0  0  0  0  0  0
    3.0191  -50.7545  -19.7887 O   0  0  0  0  0  0  0  0  0  0  0  0
    0.6908  -50.3122  -19.8634 N   0  0  0  0  0  0  0  0  0  0  0  0
   -0.0410  -49.5553  -19.6099 H   0  0  0  0  0  0  0  0  0  0  0  0
    3.4930  -48.3673  -18.5041 C   0  0  0  0  0  0  0  0  0  0  0  0
    2.2882  -48.6802  -18.9446 C   0  0  0  0  0  0  0  0  0  0  0  0
    3.7939  -47.0566  -17.8721 C   0  0  0  0  0  0  0  0  0  0  0  0
    5.5779  -47.1373  -19.4384 C   0  0  0  0  0  0  0  0  0  0  0  0
    5.6792  -45.7437  -19.9825 C   0  0  0  0  0  0  0  0  0  0  0  0
    5.2608  -45.2627  -18.6236 C   0  0  0  0  0  0  0  0  0  0  0  0
    5.1521  -46.6290  -18.1484 N   0  0  0  0  0  0  0  0  0  0  0  0
    7.4465  -47.8462  -18.0976 O   0  0  0  0  0  0  0  0  0  0  0  0
    6.8858  -47.8939  -19.3624 C   0  0  0  0  0  0  0  0  0  0  0  0
    8.3176  -48.3145  -18.1517 H   0  0  0  0  0  0  0  0  0  0  0  0
    0.2006  -52.2450  -24.6194 N   0  0  0  0  0  0  0  0  0  0  0  0
   -0.3725  -51.7067  -25.3190 H   0  0  0  0  0  0  0  0  0  0  0  0
    1.5854  -51.9694  -24.6844 C   0  0  0  0  0  0  0  0  0  0  0  0
    2.5919  -52.8773  -24.5131 C   0  0  0  0  0  0  0  0  0  0  0  0
    3.9385  -52.4873  -24.5650 C   0  0  0  0  0  0  0  0  0  0  0  0
    4.2965  -51.1863  -24.7897 C   0  0  0  0  0  0  0  0  0  0  0  0
    5.6018  -50.8188  -24.8382 F   0  0  0  0  0  0  0  0  0  0  0  0
    3.3063  -50.2622  -24.9648 C   0  0  0  0  0  0  0  0  0  0  0  0
    3.7882  -48.6005  -25.2523 Cl  0  0  0  0  0  0  0  0  0  0  0  0
    2.0110  -50.6415  -24.9136 C   0  0  0  0  0  0  0  0  0  0  0  0
   -0.3662  -52.2077  -18.2345 O   0  0  0  0  0  0  0  0  0  0  0  0
   -1.0655  -52.4369  -17.1091 C   0  0  0  0  0  0  0  0  0  0  0  0
   -0.4751  -52.1109  -15.7740 C   0  0  0  0  0  0  0  0  0  0  0  0
   -1.4836  -51.1489  -15.1094 C   0  0  0  0  0  0  0  0  0  0  0  0
   -1.6062  -50.0889  -16.0063 O   0  0  0  0  0  0  0  0  0  0  0  0
   -0.4275  -49.3833  -16.0272 C   0  0  0  0  0  0  0  0  0  0  0  0
    0.7584  -50.1466  -15.5342 C   0  0  0  0  0  0  0  0  0  0  0  0
    0.7253  -51.4994  -15.7236 O   0  0  0  0  0  0  0  0  0  0  0  0
 22 23  1  0  0  0
 23 18  1  0  0  0
 18 19  1  0  0  0
 19 20  1  0  0  0
 20 21  1  0  0  0
 21 17  1  0  0  0
 17 15  1  0  0  0
 15 16  2  0  0  0
 16 11  1  0  0  0
 11 12  2  0  0  0
 11 13  1  0  0  0
 13  1  1  0  0  0
  1  2  2  0  0  0
  2  3  1  0  0  0
  3  4  2  0  0  0
  4 25  1  0  0  0
 25 27  1  0  0  0
 27 28  2  0  0  0
 28 29  1  0  0  0
 29 30  2  0  0  0
 30 31  1  0  0  0
 30 32  1  0  0  0
 32 33  1  0  0  0
 32 34  2  0  0  0
  4  5  1  0  0  0
  5  6  2  0  0  0
  6  7  1  0  0  0
  7  8  2  0  0  0
  8  9  1  0  0  0
  9 10  2  0  0  0
 10 35  1  0  0  0
 35 36  1  0  0  0
 36 37  1  0  0  0
 37 38  1  0  0  0
 38 39  1  0  0  0
 39 40  1  0  0  0
 40 41  1  0  0  0
 41 42  1  0  0  0
 21 18  1  0  0  0
 10  1  1  0  0  0
 42 37  1  0  0  0
  8  3  1  0  0  0
 34 27  1  0  0  0
 22 24  1  0  0  0
 13 14  1  0  0  0
 25 26  1  0  0  0
M  END
> <minimizedAffinity>
-7.27369

> <CNNscore>
0.6614996195

> <CNNaffinity>
7.1483559608

> <CNN_VS>
4.7286348343

> <CNNaffinity_variance>
0.0563244112

$$$$
[H]OC([H])([H])C1([H])N(C([H])([H])/C([H])=C(\[H])C(=O)N([H])c2c(OC([H])([H])[C@@]3([H])OC([H])([H])C([H])([H])OC3([H])[H])c([H])c3nc([H])nc(N([H])c4c([H])c([H])c(F)c(Cl)c4[H])c3c2[H])C([H])([H])C1([H])[H]


 42 46  0  0  0  0  0  0  0  0999 V2000
    0.1052  -51.4684  -19.9702 C   0  0  0  0  0  0  0  0  0  0  0  0
   -0.0101  -51.5888  -21.3366 C   0  0  0  0  0  0  0  0  0  0  0  0
   -0.5064  -52.7528  -21.9124 C   0  0  0  0  0  0  0  0  0  0  0  0
   -0.6341  -52.8973  -23.2980 C   0  0  0  0  0  0  0  0  0  0  0  0
   -1.1292  -54.0655  -23.7783 N   0  0  0  0  0  0  0  0  0  0  0  0
   -1.5000  -55.0817  -23.0061 C   0  0  0  0  0  0  0  0  0  0  0  0
   -1.3705  -54.9254  -21.6833 N   0  0  0  0  0  0  0  0  0  0  0  0
   -0.8862  -53.7934  -21.1276 C   0  0  0  0  0  0  0  0  0  0  0  0
   -0.7648  -53.6594  -19.7578 C   0  0  0  0  0  0  0  0  0  0  0  0
   -0.2848  -52.5422  -19.1101 C   0  0  0  0  0  0  0  0  0  0  0  0
    1.9415  -50.0433  -18.9464 C   0  0  0  0  0  0  0  0  0  0  0  0
    2.9119  -50.7921  -19.1029 O   0  0  0  0  0  0  0  0  0  0  0  0
    0.6018  -50.3099  -19.3342 N   0  0  0  0  0  0  0  0  0  0  0  0
   -0.1336  -49.5435  -19.1232 H   0  0  0  0  0  0  0  0  0  0  0  0
    2.5207  -48.6631  -17.0189 C   0  0  0  0  0  0  0  0  0  0  0  0
    2.1574  -48.7150  -18.2872 C   0  0  0  0  0  0  0  0  0  0  0  0
    2.7503  -47.3783  -16.3085 C   0  0  0  0  0  0  0  0  0  0  0  0
    1.9897  -46.0046  -14.5261 C   0  0  0  0  0  0  0  0  0  0  0  0
    0.4941  -46.1002  -14.5741 C   0  0  0  0  0  0  0  0  0  0  0  0
    0.6741  -47.5152  -15.0415 C   0  0  0  0  0  0  0  0  0  0  0  0
    2.1168  -47.3682  -15.0037 N   0  0  0  0  0  0  0  0  0  0  0  0
    3.7004  -45.0058  -13.1594 O   0  0  0  0  0  0  0  0  0  0  0  0
    2.5773  -45.8151  -13.1449 C   0  0  0  0  0  0  0  0  0  0  0  0
    4.0487  -44.9812  -12.2325 H   0  0  0  0  0  0  0  0  0  0  0  0
   -0.2288  -51.8870  -24.1734 N   0  0  0  0  0  0  0  0  0  0  0  0
   -0.5616  -50.8918  -24.0933 H   0  0  0  0  0  0  0  0  0  0  0  0
    0.6662  -52.1040  -25.2458 C   0  0  0  0  0  0  0  0  0  0  0  0
    0.3271  -52.1957  -26.5662 C   0  0  0  0  0  0  0  0  0  0  0  0
    1.2960  -52.4477  -27.5490 C   0  0  0  0  0  0  0  0  0  0  0  0
    2.6151  -52.6102  -27.2257 C   0  0  0  0  0  0  0  0  0  0  0  0
    3.5449  -52.8536  -28.1835 F   0  0  0  0  0  0  0  0  0  0  0  0
    2.9764  -52.5213  -25.9116 C   0  0  0  0  0  0  0  0  0  0  0  0
    4.6730  -52.7321  -25.5200 Cl  0  0  0  0  0  0  0  0  0  0  0  0
    2.0406  -52.2791  -24.9682 C   0  0  0  0  0  0  0  0  0  0  0  0
   -0.1599  -52.4031  -17.7844 O   0  0  0  0  0  0  0  0  0  0  0  0
   -0.8678  -52.1112  -16.6791 C   0  0  0  0  0  0  0  0  0  0  0  0
   -0.5006  -50.9301  -15.8378 C   0  0  0  0  0  0  0  0  0  0  0  0
    0.8471  -51.3028  -15.1830 C   0  0  0  0  0  0  0  0  0  0  0  0
    0.5931  -52.4919  -14.5014 O   0  0  0  0  0  0  0  0  0  0  0  0
   -0.2386  -52.2290  -13.4398 C   0  0  0  0  0  0  0  0  0  0  0  0
   -1.0164  -50.9595  -13.5639 C   0  0  0  0  0  0  0  0  0  0  0  0
   -1.3233  -50.5628  -14.8350 O   0  0  0  0  0  0  0  0  0  0  0  0
 22 23  1  0  0  0
 23 18  1  0  0  0
 18 19  1  0  0  0
 19 20  1  0  0  0
 20 21  1  0  0  0
 21 17  1  0  0  0
 17 15  1  0  0  0
 15 16  2  0  0  0
 16 11  1  0  0  0
 11 12  2  0  0  0
 11 13  1  0  0  0
 13  1  1  0  0  0
  1  2  2  0  0  0
  2  3  1  0  0  0
  3  4  2  0  0  0
  4 25  1  0  0  0
 25 27  1  0  0  0
 27 28  2  0  0  0
 28 29  1  0  0  0
 29 30  2  0  0  0
 30 31  1  0  0  0
 30 32  1  0  0  0
 32 33  1  0  0  0
 32 34  2  0  0  0
  4  5  1  0  0  0
  5  6  2  0  0  0
  6  7  1  0  0  0
  7  8  2  0  0  0
  8  9  1  0  0  0
  9 10  2  0  0  0
 10 35  1  0  0  0
 35 36  1  0  0  0
 36 37  1  0  0  0
 37 38  1  0  0  0
 38 39  1  0  0  0
 39 40  1  0  0  0
 40 41  1  0  0  0
 41 42  1  0  0  0
 21 18  1  0  0  0
 10  1  1  0  0  0
 42 37  1  0  0  0
  8  3  1  0  0  0
 34 27  1  0  0  0
 22 24  1  0  0  0
 13 14  1  0  0  0
 25 26  1  0  0  0
M  END
> <minimizedAffinity>
-6.67481

> <CNNscore>
0.6292335391

> <CNNaffinity>
7.0170989037

> <CNN_VS>
4.4153938293

> <CNNaffinity_variance>
0.0512121096

$$$$
[H]OC([H])([H])C1([H])N(C([H])([H])/C([H])=C(\[H])C(=O)N([H])c2c(OC([H])([H])[C@@]3([H])OC([H])([H])C([H])([H])OC3([H])[H])c([H])c3nc([H])nc(N([H])c4c([H])c([H])c(F)c(Cl)c4[H])c3c2[H])C([H])([H])C1([H])[H]


 42 46  0  0  0  0  0  0  0  0999 V2000
    0.5823  -51.2349  -19.2422 C   0  0  0  0  0  0  0  0  0  0  0  0
    0.5896  -51.4039  -20.6083 C   0  0  0  0  0  0  0  0  0  0  0  0
   -0.0947  -52.4584  -21.2020 C   0  0  0  0  0  0  0  0  0  0  0  0
   -0.1028  -52.6491  -22.5879 C   0  0  0  0  0  0  0  0  0  0  0  0
   -0.7971  -53.7026  -23.0865 N   0  0  0  0  0  0  0  0  0  0  0  0
   -1.4705  -54.5649  -22.3319 C   0  0  0  0  0  0  0  0  0  0  0  0
   -1.4512  -54.3668  -21.0085 N   0  0  0  0  0  0  0  0  0  0  0  0
   -0.7838  -53.3418  -20.4353 C   0  0  0  0  0  0  0  0  0  0  0  0
   -0.7824  -53.1609  -19.0654 C   0  0  0  0  0  0  0  0  0  0  0  0
   -0.1323  -52.1441  -18.4009 C   0  0  0  0  0  0  0  0  0  0  0  0
    1.6685  -48.9412  -19.1435 C   0  0  0  0  0  0  0  0  0  0  0  0
    1.4984  -48.5687  -20.3094 O   0  0  0  0  0  0  0  0  0  0  0  0
    1.2591  -50.1824  -18.5886 N   0  0  0  0  0  0  0  0  0  0  0  0
    1.4865  -50.3535  -17.5437 H   0  0  0  0  0  0  0  0  0  0  0  0
    2.7969  -48.4830  -17.0286 C   0  0  0  0  0  0  0  0  0  0  0  0
    2.3710  -48.0225  -18.1905 C   0  0  0  0  0  0  0  0  0  0  0  0
    3.4997  -47.6236  -16.0411 C   0  0  0  0  0  0  0  0  0  0  0  0
    2.6211  -49.3487  -14.6646 C   0  0  0  0  0  0  0  0  0  0  0  0
    3.8015  -49.8793  -13.9073 C   0  0  0  0  0  0  0  0  0  0  0  0
    4.3462  -48.4807  -13.9236 C   0  0  0  0  0  0  0  0  0  0  0  0
    3.1971  -48.0176  -14.6784 N   0  0  0  0  0  0  0  0  0  0  0  0
    1.0581  -50.6563  -13.3844 O   0  0  0  0  0  0  0  0  0  0  0  0
    1.3039  -49.4048  -13.9226 C   0  0  0  0  0  0  0  0  0  0  0  0
    0.1597  -50.6190  -12.9690 H   0  0  0  0  0  0  0  0  0  0  0  0
    0.6137  -51.8061  -23.4406 N   0  0  0  0  0  0  0  0  0  0  0  0
    0.2037  -50.9322  -23.8597 H   0  0  0  0  0  0  0  0  0  0  0  0
    1.9546  -52.0447  -23.8190 C   0  0  0  0  0  0  0  0  0  0  0  0
    2.3644  -52.7450  -24.9183 C   0  0  0  0  0  0  0  0  0  0  0  0
    3.7268  -52.9514  -25.1817 C   0  0  0  0  0  0  0  0  0  0  0  0
    4.6966  -52.4602  -24.3514 C   0  0  0  0  0  0  0  0  0  0  0  0
    6.0119  -52.6650  -24.6147 F   0  0  0  0  0  0  0  0  0  0  0  0
    4.3092  -51.7561  -23.2472 C   0  0  0  0  0  0  0  0  0  0  0  0
    5.5694  -51.1350  -22.1971 Cl  0  0  0  0  0  0  0  0  0  0  0  0
    2.9965  -51.5600  -22.9966 C   0  0  0  0  0  0  0  0  0  0  0  0
   -0.1216  -51.9614  -17.0746 O   0  0  0  0  0  0  0  0  0  0  0  0
   -0.9083  -52.0481  -15.9876 C   0  0  0  0  0  0  0  0  0  0  0  0
   -2.2788  -51.4489  -15.9981 C   0  0  0  0  0  0  0  0  0  0  0  0
   -2.2436  -50.3390  -14.9253 C   0  0  0  0  0  0  0  0  0  0  0  0
   -1.8631  -50.9907  -13.7533 O   0  0  0  0  0  0  0  0  0  0  0  0
   -2.8835  -51.8186  -13.3516 C   0  0  0  0  0  0  0  0  0  0  0  0
   -3.8448  -52.1849  -14.4349 C   0  0  0  0  0  0  0  0  0  0  0  0
   -3.3352  -52.2323  -15.7019 O   0  0  0  0  0  0  0  0  0  0  0  0
 22 23  1  0  0  0
 23 18  1  0  0  0
 18 19  1  0  0  0
 19 20  1  0  0  0
 20 21  1  0  0  0
 21 17  1  0  0  0
 17 15  1  0  0  0
 15 16  2  0  0  0
 16 11  1  0  0  0
 11 12  2  0  0  0
 11 13  1  0  0  0
 13  1  1  0  0  0
  1  2  2  0  0  0
  2  3  1  0  0  0
  3  4  2  0  0  0
  4 25  1  0  0  0
 25 27  1  0  0  0
 27 28  2  0  0  0
 28 29  1  0  0  0
 29 30  2  0  0  0
 30 31  1  0  0  0
 30 32  1  0  0  0
 32 33  1  0  0  0
 32 34  2  0  0  0
  4  5  1  0  0  0
  5  6  2  0  0  0
  6  7  1  0  0  0
  7  8  2  0  0  0
  8  9  1  0  0  0
  9 10  2  0  0  0
 10 35  1  0  0  0
 35 36  1  0  0  0
 36 37  1  0  0  0
 37 38  1  0  0  0
 38 39  1  0  0  0
 39 40  1  0  0  0
 40 41  1  0  0  0
 41 42  1  0  0  0
 21 18  1  0  0  0
 10  1  1  0  0  0
 42 37  1  0  0  0
  8  3  1  0  0  0
 34 27  1  0  0  0
 22 24  1  0  0  0
 13 14  1  0  0  0
 25 26  1  0  0  0
M  END
> <minimizedAffinity>
-7.01260

> <CNNscore>
0.5790303946

> <CNNaffinity>
7.0715942383

> <CNN_VS>
4.0946679115

> <CNNaffinity_variance>
0.0593063831

$$$$
[H]OC(C([H])([H])[H])(C([H])([H])[H])C([H])([H])Oc1c([H])c([H])c([H])c(N([H])c2nc([H])c(F)c(N([H])c3c([H])c([H])c([H])c(N([H])C(=O)C([H])=C([H])[H])c3[H])n2)c1[H]


 36 38  0  0  0  0  0  0  0  0999 V2000
   -0.3898  -53.5986  -21.9697 C   0  0  0  0  0  0  0  0  0  0  0  0
   -1.2282  -54.2655  -21.1643 N   0  0  0  0  0  0  0  0  0  0  0  0
   -1.4451  -53.8873  -19.9071 C   0  0  0  0  0  0  0  0  0  0  0  0
   -0.8193  -52.7930  -19.3724 C   0  0  0  0  0  0  0  0  0  0  0  0
   -1.0384  -52.3979  -18.0780 F   0  0  0  0  0  0  0  0  0  0  0  0
    0.0616  -52.0774  -20.1902 C   0  0  0  0  0  0  0  0  0  0  0  0
    0.2127  -52.5289  -21.4240 N   0  0  0  0  0  0  0  0  0  0  0  0
   -0.1076  -53.9326  -23.3050 N   0  0  0  0  0  0  0  0  0  0  0  0
    0.1028  -54.9777  -23.4705 H   0  0  0  0  0  0  0  0  0  0  0  0
    1.3031  -51.5366  -25.7328 C   0  0  0  0  0  0  0  0  0  0  0  0
    0.2545  -51.4165  -26.6276 C   0  0  0  0  0  0  0  0  0  0  0  0
   -0.9213  -52.1005  -26.4566 C   0  0  0  0  0  0  0  0  0  0  0  0
   -1.0684  -52.9463  -25.3446 C   0  0  0  0  0  0  0  0  0  0  0  0
   -0.0595  -53.0980  -24.4323 C   0  0  0  0  0  0  0  0  0  0  0  0
    1.1184  -52.3678  -24.6678 C   0  0  0  0  0  0  0  0  0  0  0  0
    2.4695  -50.8233  -25.9517 O   0  0  0  0  0  0  0  0  0  0  0  0
    3.1481  -50.1121  -24.9574 C   0  0  0  0  0  0  0  0  0  0  0  0
    5.3326  -48.9854  -25.2490 C   0  0  0  0  0  0  0  0  0  0  0  0
    3.8536  -48.9416  -25.6091 C   0  0  0  0  0  0  0  0  0  0  0  0
    3.7592  -49.1258  -27.1090 C   0  0  0  0  0  0  0  0  0  0  0  0
    3.3035  -47.7295  -25.2022 O   0  0  0  0  0  0  0  0  0  0  0  0
    3.8113  -46.9997  -25.6092 H   0  0  0  0  0  0  0  0  0  0  0  0
    0.7369  -50.9606  -19.6607 N   0  0  0  0  0  0  0  0  0  0  0  0
    0.5939  -50.7984  -18.6065 H   0  0  0  0  0  0  0  0  0  0  0  0
    1.5525  -50.0594  -20.3470 C   0  0  0  0  0  0  0  0  0  0  0  0
    1.1454  -48.8136  -20.7102 C   0  0  0  0  0  0  0  0  0  0  0  0
    2.0085  -47.9685  -21.4189 C   0  0  0  0  0  0  0  0  0  0  0  0
    3.2548  -48.3715  -21.7535 C   0  0  0  0  0  0  0  0  0  0  0  0
    3.7227  -49.6514  -21.3999 C   0  0  0  0  0  0  0  0  0  0  0  0
    2.8504  -50.4502  -20.7067 C   0  0  0  0  0  0  0  0  0  0  0  0
    5.0298  -49.9578  -21.7749 N   0  0  0  0  0  0  0  0  0  0  0  0
    6.1620  -49.7437  -20.9712 C   0  0  0  0  0  0  0  0  0  0  0  0
    6.0905  -49.2416  -19.7889 O   0  0  0  0  0  0  0  0  0  0  0  0
    5.1984  -50.3754  -22.7279 H   0  0  0  0  0  0  0  0  0  0  0  0
    7.5207  -50.0690  -21.3990 C   0  0  0  0  0  0  0  0  0  0  0  0
    7.8529  -50.0787  -22.6471 C   0  0  0  0  0  0  0  0  0  0  0  0
 18 19  1  0  0  0
 19 20  1  0  0  0
 19 21  1  0  0  0
 19 17  1  0  0  0
 17 16  1  0  0  0
 16 10  1  0  0  0
 10 11  2  0  0  0
 11 12  1  0  0  0
 12 13  2  0  0  0
 13 14  1  0  0  0
 14  8  1  0  0  0
  8  1  1  0  0  0
  1  2  2  0  0  0
  2  3  1  0  0  0
  3  4  2  0  0  0
  4  5  1  0  0  0
  4  6  1  0  0  0
  6 23  1  0  0  0
 23 25  1  0  0  0
 25 26  2  0  0  0
 26 27  1  0  0  0
 27 28  2  0  0  0
 28 29  1  0  0  0
 29 31  1  0  0  0
 31 32  1  0  0  0
 32 33  2  0  0  0
 32 35  1  0  0  0
 35 36  2  0  0  0
 29 30  2  0  0  0
  6  7  2  0  0  0
 14 15  2  0  0  0
 15 10  1  0  0  0
  7  1  1  0  0  0
 30 25  1  0  0  0
 21 22  1  0  0  0
  8  9  1  0  0  0
 23 24  1  0  0  0
 31 34  1  0  0  0
M  END
> <minimizedAffinity>
-6.47169

> <CNNscore>
0.4684398472

> <CNNaffinity>
6.8959007263

> <CNN_VS>
3.2303147316

> <CNNaffinity_variance>
0.2740291357

$$$$
[H]OC(C([H])([H])[H])(C([H])([H])[H])C([H])([H])Oc1c([H])c([H])c([H])c(N([H])c2nc([H])c(F)c(N([H])c3c([H])c([H])c([H])c(N([H])C(=O)C([H])=C([H])[H])c3[H])n2)c1[H]


 36 38  0  0  0  0  0  0  0  0999 V2000
   -0.6551  -53.7660  -22.2058 C   0  0  0  0  0  0  0  0  0  0  0  0
   -1.6708  -54.0623  -21.3831 N   0  0  0  0  0  0  0  0  0  0  0  0
   -1.6413  -53.7521  -20.0895 C   0  0  0  0  0  0  0  0  0  0  0  0
   -0.5664  -53.1118  -19.5330 C   0  0  0  0  0  0  0  0  0  0  0  0
   -0.5295  -52.7892  -18.2010 F   0  0  0  0  0  0  0  0  0  0  0  0
    0.5089  -52.7901  -20.3680 C   0  0  0  0  0  0  0  0  0  0  0  0
    0.3883  -53.1383  -21.6381 N   0  0  0  0  0  0  0  0  0  0  0  0
   -0.6096  -54.0585  -23.5793 N   0  0  0  0  0  0  0  0  0  0  0  0
   -1.0637  -54.9983  -23.8524 H   0  0  0  0  0  0  0  0  0  0  0  0
    1.9843  -52.3066  -25.5356 C   0  0  0  0  0  0  0  0  0  0  0  0
    1.2439  -51.8538  -26.6133 C   0  0  0  0  0  0  0  0  0  0  0  0
   -0.1003  -52.1016  -26.7197 C   0  0  0  0  0  0  0  0  0  0  0  0
   -0.7458  -52.8343  -25.7097 C   0  0  0  0  0  0  0  0  0  0  0  0
   -0.0559  -53.3035  -24.6246 C   0  0  0  0  0  0  0  0  0  0  0  0
    1.3189  -53.0136  -24.5782 C   0  0  0  0  0  0  0  0  0  0  0  0
    3.3394  -52.0287  -25.4762 O   0  0  0  0  0  0  0  0  0  0  0  0
    4.1324  -52.2465  -24.3454 C   0  0  0  0  0  0  0  0  0  0  0  0
    6.3836  -51.2363  -24.1501 C   0  0  0  0  0  0  0  0  0  0  0  0
    4.8880  -50.9699  -24.0428 C   0  0  0  0  0  0  0  0  0  0  0  0
    4.5408  -49.9643  -25.1203 C   0  0  0  0  0  0  0  0  0  0  0  0
    4.5831  -50.4910  -22.7720 O   0  0  0  0  0  0  0  0  0  0  0  0
    5.1205  -49.6929  -22.5978 H   0  0  0  0  0  0  0  0  0  0  0  0
    1.6378  -52.1515  -19.8191 N   0  0  0  0  0  0  0  0  0  0  0  0
    2.3955  -52.8131  -19.4368 H   0  0  0  0  0  0  0  0  0  0  0  0
    1.8698  -50.7788  -19.7184 C   0  0  0  0  0  0  0  0  0  0  0  0
    2.1203  -50.1501  -18.5386 C   0  0  0  0  0  0  0  0  0  0  0  0
    2.3209  -48.7644  -18.5069 C   0  0  0  0  0  0  0  0  0  0  0  0
    2.2702  -48.0294  -19.6405 C   0  0  0  0  0  0  0  0  0  0  0  0
    2.0147  -48.6339  -20.8861 C   0  0  0  0  0  0  0  0  0  0  0  0
    1.8238  -49.9915  -20.8780 C   0  0  0  0  0  0  0  0  0  0  0  0
    2.0054  -47.7881  -21.9941 N   0  0  0  0  0  0  0  0  0  0  0  0
    3.1548  -47.3400  -22.6661 C   0  0  0  0  0  0  0  0  0  0  0  0
    4.3438  -47.6840  -22.3152 O   0  0  0  0  0  0  0  0  0  0  0  0
    1.0788  -47.4474  -22.3631 H   0  0  0  0  0  0  0  0  0  0  0  0
    3.1098  -46.4458  -23.8208 C   0  0  0  0  0  0  0  0  0  0  0  0
    2.3303  -45.4164  -23.8491 C   0  0  0  0  0  0  0  0  0  0  0  0
 18 19  1  0  0  0
 19 20  1  0  0  0
 19 21  1  0  0  0
 19 17  1  0  0  0
 17 16  1  0  0  0
 16 10  1  0  0  0
 10 11  2  0  0  0
 11 12  1  0  0  0
 12 13  2  0  0  0
 13 14  1  0  0  0
 14  8  1  0  0  0
  8  1  1  0  0  0
  1  2  2  0  0  0
  2  3  1  0  0  0
  3  4  2  0  0  0
  4  5  1  0  0  0
  4  6  1  0  0  0
  6 23  1  0  0  0
 23 25  1  0  0  0
 25 26  2  0  0  0
 26 27  1  0  0  0
 27 28  2  0  0  0
 28 29  1  0  0  0
 29 31  1  0  0  0
 31 32  1  0  0  0
 32 33  2  0  0  0
 32 35  1  0  0  0
 35 36  2  0  0  0
 29 30  2  0  0  0
  6  7  2  0  0  0
 14 15  2  0  0  0
 15 10  1  0  0  0
  7  1  1  0  0  0
 30 25  1  0  0  0
 21 22  1  0  0  0
  8  9  1  0  0  0
 23 24  1  0  0  0
 31 34  1  0  0  0
M  END
> <minimizedAffinity>
-6.71057

> <CNNscore>
0.4598089457

> <CNNaffinity>
7.0477547646

> <CNN_VS>
3.2406206131

> <CNNaffinity_variance>
0.2708942294

$$$$
[H]OC(C([H])([H])[H])(C([H])([H])[H])C([H])([H])Oc1c([H])c([H])c([H])c(N([H])c2nc([H])c(F)c(N([H])c3c([H])c([H])c([H])c(N([H])C(=O)C([H])=C([H])[H])c3[H])n2)c1[H]


 36 38  0  0  0  0  0  0  0  0999 V2000
   -0.7917  -54.2279  -23.9253 C   0  0  0  0  0  0  0  0  0  0  0  0
   -1.3745  -55.0315  -23.0248 N   0  0  0  0  0  0  0  0  0  0  0  0
   -1.5225  -54.6710  -21.7525 C   0  0  0  0  0  0  0  0  0  0  0  0
   -1.0845  -53.4555  -21.2990 C   0  0  0  0  0  0  0  0  0  0  0  0
   -1.2338  -53.0778  -19.9896 F   0  0  0  0  0  0  0  0  0  0  0  0
   -0.4720  -52.5957  -22.2171 C   0  0  0  0  0  0  0  0  0  0  0  0
   -0.3699  -53.0410  -23.4581 N   0  0  0  0  0  0  0  0  0  0  0  0
   -0.5985  -54.5338  -25.2830 N   0  0  0  0  0  0  0  0  0  0  0  0
   -1.2579  -55.2956  -25.6688 H   0  0  0  0  0  0  0  0  0  0  0  0
    2.5299  -52.9569  -26.4455 C   0  0  0  0  0  0  0  0  0  0  0  0
    2.3115  -52.9081  -27.8109 C   0  0  0  0  0  0  0  0  0  0  0  0
    1.1519  -53.3763  -28.3729 C   0  0  0  0  0  0  0  0  0  0  0  0
    0.1575  -53.9206  -27.5431 C   0  0  0  0  0  0  0  0  0  0  0  0
    0.3276  -53.9909  -26.1869 C   0  0  0  0  0  0  0  0  0  0  0  0
    1.5393  -53.4929  -25.6770 C   0  0  0  0  0  0  0  0  0  0  0  0
    3.7186  -52.4700  -25.9287 O   0  0  0  0  0  0  0  0  0  0  0  0
    3.9815  -52.3424  -24.5614 C   0  0  0  0  0  0  0  0  0  0  0  0
    2.8359  -50.2135  -24.0306 C   0  0  0  0  0  0  0  0  0  0  0  0
    4.1895  -50.8748  -24.2532 C   0  0  0  0  0  0  0  0  0  0  0  0
    4.9456  -50.7830  -22.9445 C   0  0  0  0  0  0  0  0  0  0  0  0
    4.8655  -50.2321  -25.2862 O   0  0  0  0  0  0  0  0  0  0  0  0
    4.9425  -49.2815  -25.0701 H   0  0  0  0  0  0  0  0  0  0  0  0
    0.0088  -51.3481  -21.7746 N   0  0  0  0  0  0  0  0  0  0  0  0
   -0.3673  -50.4965  -22.3144 H   0  0  0  0  0  0  0  0  0  0  0  0
    0.9059  -51.1064  -20.7329 C   0  0  0  0  0  0  0  0  0  0  0  0
    2.1211  -51.7104  -20.6409 C   0  0  0  0  0  0  0  0  0  0  0  0
    2.9627  -51.4393  -19.5549 C   0  0  0  0  0  0  0  0  0  0  0  0
    2.5867  -50.5776  -18.5833 C   0  0  0  0  0  0  0  0  0  0  0  0
    1.3392  -49.9271  -18.6336 C   0  0  0  0  0  0  0  0  0  0  0  0
    0.5427  -50.2170  -19.7113 C   0  0  0  0  0  0  0  0  0  0  0  0
    1.0599  -49.0430  -17.5928 N   0  0  0  0  0  0  0  0  0  0  0  0
    0.1117  -49.2736  -16.5821 C   0  0  0  0  0  0  0  0  0  0  0  0
   -0.5932  -50.3481  -16.5222 O   0  0  0  0  0  0  0  0  0  0  0  0
    1.5848  -48.1300  -17.5495 H   0  0  0  0  0  0  0  0  0  0  0  0
   -0.1626  -48.3205  -15.5091 C   0  0  0  0  0  0  0  0  0  0  0  0
   -1.1981  -48.4401  -14.7465 C   0  0  0  0  0  0  0  0  0  0  0  0
 18 19  1  0  0  0
 19 20  1  0  0  0
 19 21  1  0  0  0
 19 17  1  0  0  0
 17 16  1  0  0  0
 16 10  1  0  0  0
 10 11  2  0  0  0
 11 12  1  0  0  0
 12 13  2  0  0  0
 13 14  1  0  0  0
 14  8  1  0  0  0
  8  1  1  0  0  0
  1  2  2  0  0  0
  2  3  1  0  0  0
  3  4  2  0  0  0
  4  5  1  0  0  0
  4  6  1  0  0  0
  6 23  1  0  0  0
 23 25  1  0  0  0
 25 26  2  0  0  0
 26 27  1  0  0  0
 27 28  2  0  0  0
 28 29  1  0  0  0
 29 31  1  0  0  0
 31 32  1  0  0  0
 32 33  2  0  0  0
 32 35  1  0  0  0
 35 36  2  0  0  0
 29 30  2  0  0  0
  6  7  2  0  0  0
 14 15  2  0  0  0
 15 10  1  0  0  0
  7  1  1  0  0  0
 30 25  1  0  0  0
 21 22  1  0  0  0
  8  9  1  0  0  0
 23 24  1  0  0  0
 31 34  1  0  0  0
M  END
> <minimizedAffinity>
-7.54195

> <CNNscore>
0.3772384524

> <CNNaffinity>
6.9401435852

> <CNN_VS>
2.6180889606

> <CNNaffinity_variance>
0.0436943471

$$$$
[H]OC(C([H])([H])[H])(C([H])([H])[H])C([H])([H])Oc1c([H])c([H])c([H])c(N([H])c2nc([H])c(F)c(N([H])c3c([H])c([H])c([H])c(N([H])C(=O)C([H])=C([H])[H])c3[H])n2)c1[H]


 36 38  0  0  0  0  0  0  0  0999 V2000
   -0.2319  -53.8001  -24.5764 C   0  0  0  0  0  0  0  0  0  0  0  0
   -0.9602  -53.8070  -25.7016 N   0  0  0  0  0  0  0  0  0  0  0  0
   -0.5201  -53.2507  -26.8273 C   0  0  0  0  0  0  0  0  0  0  0  0
    0.7043  -52.6411  -26.8916 C   0  0  0  0  0  0  0  0  0  0  0  0
    1.1639  -52.0661  -28.0482 F   0  0  0  0  0  0  0  0  0  0  0  0
    1.4866  -52.6185  -25.7320 C   0  0  0  0  0  0  0  0  0  0  0  0
    0.9654  -53.1966  -24.6629 N   0  0  0  0  0  0  0  0  0  0  0  0
   -0.6241  -54.3641  -23.3508 N   0  0  0  0  0  0  0  0  0  0  0  0
   -1.0296  -55.3610  -23.4259 H   0  0  0  0  0  0  0  0  0  0  0  0
    0.6773  -52.3323  -20.5574 C   0  0  0  0  0  0  0  0  0  0  0  0
   -0.2772  -52.5746  -19.5854 C   0  0  0  0  0  0  0  0  0  0  0  0
   -1.3475  -53.3999  -19.8155 C   0  0  0  0  0  0  0  0  0  0  0  0
   -1.4814  -54.0172  -21.0704 C   0  0  0  0  0  0  0  0  0  0  0  0
   -0.5633  -53.8081  -22.0637 C   0  0  0  0  0  0  0  0  0  0  0  0
    0.5091  -52.9512  -21.7607 C   0  0  0  0  0  0  0  0  0  0  0  0
    1.7393  -51.4906  -20.2734 O   0  0  0  0  0  0  0  0  0  0  0  0
    1.6348  -50.3400  -19.4858 C   0  0  0  0  0  0  0  0  0  0  0  0
    3.3815  -49.1936  -18.1587 C   0  0  0  0  0  0  0  0  0  0  0  0
    2.5819  -50.4804  -18.3128 C   0  0  0  0  0  0  0  0  0  0  0  0
    1.7433  -50.6311  -17.0611 C   0  0  0  0  0  0  0  0  0  0  0  0
    3.4470  -51.5566  -18.4875 O   0  0  0  0  0  0  0  0  0  0  0  0
    4.0683  -51.5882  -17.7331 H   0  0  0  0  0  0  0  0  0  0  0  0
    2.7410  -51.9788  -25.7619 N   0  0  0  0  0  0  0  0  0  0  0  0
    3.5735  -52.6175  -26.0005 H   0  0  0  0  0  0  0  0  0  0  0  0
    3.0114  -50.6317  -25.5162 C   0  0  0  0  0  0  0  0  0  0  0  0
    3.0549  -50.0963  -24.2667 C   0  0  0  0  0  0  0  0  0  0  0  0
    3.3088  -48.7299  -24.0935 C   0  0  0  0  0  0  0  0  0  0  0  0
    3.5144  -47.9217  -25.1576 C   0  0  0  0  0  0  0  0  0  0  0  0
    3.4799  -48.4283  -26.4707 C   0  0  0  0  0  0  0  0  0  0  0  0
    3.2291  -49.7699  -26.6009 C   0  0  0  0  0  0  0  0  0  0  0  0
    3.7262  -47.5138  -27.4934 N   0  0  0  0  0  0  0  0  0  0  0  0
    2.8751  -46.4495  -27.8348 C   0  0  0  0  0  0  0  0  0  0  0  0
    1.7723  -46.2150  -27.2152 O   0  0  0  0  0  0  0  0  0  0  0  0
    4.6063  -47.6173  -28.0641 H   0  0  0  0  0  0  0  0  0  0  0  0
    3.1597  -45.5130  -28.9197 C   0  0  0  0  0  0  0  0  0  0  0  0
    2.4616  -45.5042  -30.0062 C   0  0  0  0  0  0  0  0  0  0  0  0
 18 19  1  0  0  0
 19 20  1  0  0  0
 19 21  1  0  0  0
 19 17  1  0  0  0
 17 16  1  0  0  0
 16 10  1  0  0  0
 10 11  2  0  0  0
 11 12  1  0  0  0
 12 13  2  0  0  0
 13 14  1  0  0  0
 14  8  1  0  0  0
  8  1  1  0  0  0
  1  2  2  0  0  0
  2  3  1  0  0  0
  3  4  2  0  0  0
  4  5  1  0  0  0
  4  6  1  0  0  0
  6 23  1  0  0  0
 23 25  1  0  0  0
 25 26  2  0  0  0
 26 27  1  0  0  0
 27 28  2  0  0  0
 28 29  1  0  0  0
 29 31  1  0  0  0
 31 32  1  0  0  0
 32 33  2  0  0  0
 32 35  1  0  0  0
 35 36  2  0  0  0
 29 30  2  0  0  0
  6  7  2  0  0  0
 14 15  2  0  0  0
 15 10  1  0  0  0
  7  1  1  0  0  0
 30 25  1  0  0  0
 21 22  1  0  0  0
  8  9  1  0  0  0
 23 24  1  0  0  0
 31 34  1  0  0  0
M  END
> <minimizedAffinity>
-7.07509

> <CNNscore>
0.3170658946

> <CNNaffinity>
6.7891082764

> <CNN_VS>
2.1525948048

> <CNNaffinity_variance>
0.1716048419

$$$$
[H]OC(C([H])([H])[H])(C([H])([H])[H])C([H])([H])Oc1c([H])c([H])c([H])c(N([H])c2nc([H])c(F)c(N([H])c3c([H])c([H])c([H])c(N([H])C(=O)C([H])=C([H])[H])c3[H])n2)c1[H]


 36 38  0  0  0  0  0  0  0  0999 V2000
   -0.6998  -53.9496  -24.2949 C   0  0  0  0  0  0  0  0  0  0  0  0
   -1.5561  -54.7512  -23.6464 N   0  0  0  0  0  0  0  0  0  0  0  0
   -1.4944  -54.9268  -22.3289 C   0  0  0  0  0  0  0  0  0  0  0  0
   -0.5484  -54.2938  -21.5676 C   0  0  0  0  0  0  0  0  0  0  0  0
   -0.4793  -54.4701  -20.2097 F   0  0  0  0  0  0  0  0  0  0  0  0
    0.3591  -53.4507  -22.2178 C   0  0  0  0  0  0  0  0  0  0  0  0
    0.2193  -53.3394  -23.5281 N   0  0  0  0  0  0  0  0  0  0  0  0
   -0.6989  -53.7118  -25.6797 N   0  0  0  0  0  0  0  0  0  0  0  0
   -1.6789  -53.6838  -26.1300 H   0  0  0  0  0  0  0  0  0  0  0  0
    2.6407  -52.5785  -26.7696 C   0  0  0  0  0  0  0  0  0  0  0  0
    2.6695  -53.0489  -28.0705 C   0  0  0  0  0  0  0  0  0  0  0  0
    1.6118  -53.7309  -28.6143 C   0  0  0  0  0  0  0  0  0  0  0  0
    0.4671  -53.9597  -27.8325 C   0  0  0  0  0  0  0  0  0  0  0  0
    0.3917  -53.5142  -26.5406 C   0  0  0  0  0  0  0  0  0  0  0  0
    1.5110  -52.8223  -26.0460 C   0  0  0  0  0  0  0  0  0  0  0  0
    3.7358  -51.8951  -26.2687 O   0  0  0  0  0  0  0  0  0  0  0  0
    3.6553  -50.9057  -25.2840 C   0  0  0  0  0  0  0  0  0  0  0  0
    5.5642  -52.2003  -24.3859 C   0  0  0  0  0  0  0  0  0  0  0  0
    4.2959  -51.4404  -24.0207 C   0  0  0  0  0  0  0  0  0  0  0  0
    4.7194  -50.2527  -23.1824 C   0  0  0  0  0  0  0  0  0  0  0  0
    3.4261  -52.2775  -23.3280 O   0  0  0  0  0  0  0  0  0  0  0  0
    3.8888  -52.6351  -22.5443 H   0  0  0  0  0  0  0  0  0  0  0  0
    1.3573  -52.8039  -21.4637 N   0  0  0  0  0  0  0  0  0  0  0  0
    2.3135  -53.2974  -21.4538 H   0  0  0  0  0  0  0  0  0  0  0  0
    1.2372  -51.6161  -20.7405 C   0  0  0  0  0  0  0  0  0  0  0  0
    1.0130  -50.4081  -21.3237 C   0  0  0  0  0  0  0  0  0  0  0  0
    0.9267  -49.2514  -20.5389 C   0  0  0  0  0  0  0  0  0  0  0  0
    1.0634  -49.3123  -19.1952 C   0  0  0  0  0  0  0  0  0  0  0  0
    1.2961  -50.5390  -18.5447 C   0  0  0  0  0  0  0  0  0  0  0  0
    1.3741  -51.6492  -19.3452 C   0  0  0  0  0  0  0  0  0  0  0  0
    1.4001  -50.4927  -17.1554 N   0  0  0  0  0  0  0  0  0  0  0  0
    2.5615  -50.8081  -16.4308 C   0  0  0  0  0  0  0  0  0  0  0  0
    3.6585  -51.1686  -16.9981 O   0  0  0  0  0  0  0  0  0  0  0  0
    0.5549  -50.2077  -16.5937 H   0  0  0  0  0  0  0  0  0  0  0  0
    2.6339  -50.7572  -14.9723 C   0  0  0  0  0  0  0  0  0  0  0  0
    3.7329  -51.0045  -14.3405 C   0  0  0  0  0  0  0  0  0  0  0  0
 18 19  1  0  0  0
 19 20  1  0  0  0
 19 21  1  0  0  0
 19 17  1  0  0  0
 17 16  1  0  0  0
 16 10  1  0  0  0
 10 11  2  0  0  0
 11 12  1  0  0  0
 12 13  2  0  0  0
 13 14  1  0  0  0
 14  8  1  0  0  0
  8  1  1  0  0  0
  1  2  2  0  0  0
  2  3  1  0  0  0
  3  4  2  0  0  0
  4  5  1  0  0  0
  4  6  1  0  0  0
  6 23  1  0  0  0
 23 25  1  0  0  0
 25 26  2  0  0  0
 26 27  1  0  0  0
 27 28  2  0  0  0
 28 29  1  0  0  0
 29 31  1  0  0  0
 31 32  1  0  0  0
 32 33  2  0  0  0
 32 35  1  0  0  0
 35 36  2  0  0  0
 29 30  2  0  0  0
  6  7  2  0  0  0
 14 15  2  0  0  0
 15 10  1  0  0  0
  7  1  1  0  0  0
 30 25  1  0  0  0
 21 22  1  0  0  0
  8  9  1  0  0  0
 23 24  1  0  0  0
 31 34  1  0  0  0
M  END
> <minimizedAffinity>
-7.05480

> <CNNscore>
0.3004575074

> <CNNaffinity>
6.8622293472

> <CNN_VS>
2.0618083477

> <CNNaffinity_variance>
0.0251211189

$$$$
[H]OC(C([H])([H])[H])(C([H])([H])[H])C([H])([H])Oc1c([H])c([H])c([H])c(N([H])c2nc([H])c(F)c(N([H])c3c([H])c([H])c([H])c(N([H])C(=O)C([H])=C([H])[H])c3[H])n2)c1[H]


 36 38  0  0  0  0  0  0  0  0999 V2000
    1.2342  -52.3981  -22.6418 C   0  0  0  0  0  0  0  0  0  0  0  0
    0.3260  -52.8829  -23.5000 N   0  0  0  0  0  0  0  0  0  0  0  0
   -0.7603  -53.5285  -23.0835 C   0  0  0  0  0  0  0  0  0  0  0  0
   -1.0047  -53.7300  -21.7513 C   0  0  0  0  0  0  0  0  0  0  0  0
   -2.1220  -54.3942  -21.3155 F   0  0  0  0  0  0  0  0  0  0  0  0
   -0.0735  -53.2348  -20.8322 C   0  0  0  0  0  0  0  0  0  0  0  0
    0.9739  -52.6075  -21.3404 N   0  0  0  0  0  0  0  0  0  0  0  0
    2.4038  -51.7068  -23.0004 N   0  0  0  0  0  0  0  0  0  0  0  0
    2.9673  -52.1642  -23.7987 H   0  0  0  0  0  0  0  0  0  0  0  0
    3.0296  -48.0853  -22.6579 C   0  0  0  0  0  0  0  0  0  0  0  0
    3.8351  -48.0600  -21.5331 C   0  0  0  0  0  0  0  0  0  0  0  0
    4.1915  -49.2089  -20.8755 C   0  0  0  0  0  0  0  0  0  0  0  0
    3.7282  -50.4460  -21.3537 C   0  0  0  0  0  0  0  0  0  0  0  0
    2.9289  -50.5220  -22.4621 C   0  0  0  0  0  0  0  0  0  0  0  0
    2.6020  -49.3065  -23.0881 C   0  0  0  0  0  0  0  0  0  0  0  0
    2.6993  -46.8959  -23.2851 O   0  0  0  0  0  0  0  0  0  0  0  0
    3.4200  -46.3488  -24.3511 C   0  0  0  0  0  0  0  0  0  0  0  0
    4.1349  -44.5437  -22.8159 C   0  0  0  0  0  0  0  0  0  0  0  0
    3.4854  -44.8484  -24.1591 C   0  0  0  0  0  0  0  0  0  0  0  0
    4.3996  -44.2881  -25.2282 C   0  0  0  0  0  0  0  0  0  0  0  0
    2.2178  -44.2762  -24.2120 O   0  0  0  0  0  0  0  0  0  0  0  0
    2.2969  -43.3166  -24.0419 H   0  0  0  0  0  0  0  0  0  0  0  0
   -0.2869  -53.4467  -19.4563 N   0  0  0  0  0  0  0  0  0  0  0  0
   -0.4013  -54.4764  -19.1655 H   0  0  0  0  0  0  0  0  0  0  0  0
   -0.3669  -52.4803  -18.4523 C   0  0  0  0  0  0  0  0  0  0  0  0
   -1.1442  -52.6191  -17.3449 C   0  0  0  0  0  0  0  0  0  0  0  0
   -1.1957  -51.5985  -16.3872 C   0  0  0  0  0  0  0  0  0  0  0  0
   -0.4785  -50.4631  -16.5434 C   0  0  0  0  0  0  0  0  0  0  0  0
    0.3411  -50.2724  -17.6720 C   0  0  0  0  0  0  0  0  0  0  0  0
    0.3664  -51.2926  -18.5875 C   0  0  0  0  0  0  0  0  0  0  0  0
    1.0539  -49.0756  -17.7240 N   0  0  0  0  0  0  0  0  0  0  0  0
    2.4471  -48.9691  -17.5780 C   0  0  0  0  0  0  0  0  0  0  0  0
    3.2061  -49.9901  -17.3864 O   0  0  0  0  0  0  0  0  0  0  0  0
    0.5245  -48.1773  -17.8778 H   0  0  0  0  0  0  0  0  0  0  0  0
    3.1626  -47.6962  -17.6293 C   0  0  0  0  0  0  0  0  0  0  0  0
    3.8040  -47.2390  -16.6058 C   0  0  0  0  0  0  0  0  0  0  0  0
 18 19  1  0  0  0
 19 20  1  0  0  0
 19 21  1  0  0  0
 19 17  1  0  0  0
 17 16  1  0  0  0
 16 10  1  0  0  0
 10 11  2  0  0  0
 11 12  1  0  0  0
 12 13  2  0  0  0
 13 14  1  0  0  0
 14  8  1  0  0  0
  8  1  1  0  0  0
  1  2  2  0  0  0
  2  3  1  0  0  0
  3  4  2  0  0  0
  4  5  1  0  0  0
  4  6  1  0  0  0
  6 23  1  0  0  0
 23 25  1  0  0  0
 25 26  2  0  0  0
 26 27  1  0  0  0
 27 28  2  0  0  0
 28 29  1  0  0  0
 29 31  1  0  0  0
 31 32  1  0  0  0
 32 33  2  0  0  0
 32 35  1  0  0  0
 35 36  2  0  0  0
 29 30  2  0  0  0
  6  7  2  0  0  0
 14 15  2  0  0  0
 15 10  1  0  0  0
  7  1  1  0  0  0
 30 25  1  0  0  0
 21 22  1  0  0  0
  8  9  1  0  0  0
 23 24  1  0  0  0
 31 34  1  0  0  0
M  END
> <minimizedAffinity>
-6.68193

> <CNNscore>
0.2925530672

> <CNNaffinity>
6.4072241783

> <CNN_VS>
1.8744530678

> <CNNaffinity_variance>
0.0546591170

$$$$
[H]OC(C([H])([H])[H])(C([H])([H])[H])C([H])([H])Oc1c([H])c([H])c([H])c(N([H])c2nc([H])c(F)c(N([H])c3c([H])c([H])c([H])c(N([H])C(=O)C([H])=C([H])[H])c3[H])n2)c1[H]


 36 38  0  0  0  0  0  0  0  0999 V2000
   -0.3997  -52.7912  -22.0467 C   0  0  0  0  0  0  0  0  0  0  0  0
   -0.8164  -53.9509  -21.5197 N   0  0  0  0  0  0  0  0  0  0  0  0
   -1.1408  -54.9928  -22.2810 C   0  0  0  0  0  0  0  0  0  0  0  0
   -1.0643  -54.9308  -23.6468 C   0  0  0  0  0  0  0  0  0  0  0  0
   -1.3969  -56.0005  -24.4371 F   0  0  0  0  0  0  0  0  0  0  0  0
   -0.6323  -53.7323  -24.2249 C   0  0  0  0  0  0  0  0  0  0  0  0
   -0.3324  -52.7533  -23.3880 N   0  0  0  0  0  0  0  0  0  0  0  0
   -0.0394  -51.6480  -21.3135 N   0  0  0  0  0  0  0  0  0  0  0  0
   -0.8303  -51.2390  -20.7044 H   0  0  0  0  0  0  0  0  0  0  0  0
    2.4427  -49.0051  -22.0056 C   0  0  0  0  0  0  0  0  0  0  0  0
    3.5337  -49.4723  -21.2943 C   0  0  0  0  0  0  0  0  0  0  0  0
    3.4853  -50.6467  -20.5887 C   0  0  0  0  0  0  0  0  0  0  0  0
    2.2981  -51.3979  -20.5859 C   0  0  0  0  0  0  0  0  0  0  0  0
    1.1924  -50.9768  -21.2740 C   0  0  0  0  0  0  0  0  0  0  0  0
    1.3107  -49.7646  -21.9761 C   0  0  0  0  0  0  0  0  0  0  0  0
    2.5443  -47.8127  -22.7021 O   0  0  0  0  0  0  0  0  0  0  0  0
    3.7152  -47.0528  -22.7827 C   0  0  0  0  0  0  0  0  0  0  0  0
    3.4377  -47.2537  -25.2340 C   0  0  0  0  0  0  0  0  0  0  0  0
    3.6936  -46.2849  -24.0873 C   0  0  0  0  0  0  0  0  0  0  0  0
    2.5155  -45.3348  -24.0415 C   0  0  0  0  0  0  0  0  0  0  0  0
    4.8929  -45.6104  -24.2969 O   0  0  0  0  0  0  0  0  0  0  0  0
    4.8563  -45.1632  -25.1657 H   0  0  0  0  0  0  0  0  0  0  0  0
   -0.5652  -53.6316  -25.6281 N   0  0  0  0  0  0  0  0  0  0  0  0
   -1.4938  -53.8058  -26.1431 H   0  0  0  0  0  0  0  0  0  0  0  0
    0.5575  -53.3388  -26.4041 C   0  0  0  0  0  0  0  0  0  0  0  0
    0.7635  -53.8605  -27.6431 C   0  0  0  0  0  0  0  0  0  0  0  0
    1.9251  -53.5424  -28.3579 C   0  0  0  0  0  0  0  0  0  0  0  0
    2.8581  -52.7159  -27.8341 C   0  0  0  0  0  0  0  0  0  0  0  0
    2.6905  -52.1503  -26.5558 C   0  0  0  0  0  0  0  0  0  0  0  0
    1.5415  -52.4841  -25.8865 C   0  0  0  0  0  0  0  0  0  0  0  0
    3.7016  -51.2954  -26.1201 N   0  0  0  0  0  0  0  0  0  0  0  0
    4.2379  -51.2897  -24.8216 C   0  0  0  0  0  0  0  0  0  0  0  0
    3.8396  -52.0957  -23.9014 O   0  0  0  0  0  0  0  0  0  0  0  0
    4.0992  -50.5940  -26.7991 H   0  0  0  0  0  0  0  0  0  0  0  0
    5.2928  -50.3732  -24.3950 C   0  0  0  0  0  0  0  0  0  0  0  0
    6.2739  -50.7689  -23.6541 C   0  0  0  0  0  0  0  0  0  0  0  0
 18 19  1  0  0  0
 19 20  1  0  0  0
 19 21  1  0  0  0
 19 17  1  0  0  0
 17 16  1  0  0  0
 16 10  1  0  0  0
 10 11  2  0  0  0
 11 12  1  0  0  0
 12 13  2  0  0  0
 13 14  1  0  0  0
 14  8  1  0  0  0
  8  1  1  0  0  0
  1  2  2  0  0  0
  2  3  1  0  0  0
  3  4  2  0  0  0
  4  5  1  0  0  0
  4  6  1  0  0  0
  6 23  1  0  0  0
 23 25  1  0  0  0
 25 26  2  0  0  0
 26 27  1  0  0  0
 27 28  2  0  0  0
 28 29  1  0  0  0
 29 31  1  0  0  0
 31 32  1  0  0  0
 32 33  2  0  0  0
 32 35  1  0  0  0
 35 36  2  0  0  0
 29 30  2  0  0  0
  6  7  2  0  0  0
 14 15  2  0  0  0
 15 10  1  0  0  0
  7  1  1  0  0  0
 30 25  1  0  0  0
 21 22  1  0  0  0
  8  9  1  0  0  0
 23 24  1  0  0  0
 31 34  1  0  0  0
M  END
> <minimizedAffinity>
-6.78542

> <CNNscore>
0.2713711560

> <CNNaffinity>
6.7301535606

> <CNN_VS>
1.8263695240

> <CNNaffinity_variance>
0.2272985429

$$$$
[H]OC(C([H])([H])[H])(C([H])([H])[H])C([H])([H])Oc1c([H])c([H])c([H])c(N([H])c2nc([H])c(F)c(N([H])c3c([H])c([H])c([H])c(N([H])C(=O)C([H])=C([H])[H])c3[H])n2)c1[H]


 36 38  0  0  0  0  0  0  0  0999 V2000
    0.7331  -53.1847  -26.1910 C   0  0  0  0  0  0  0  0  0  0  0  0
    0.7615  -54.3121  -26.9152 N   0  0  0  0  0  0  0  0  0  0  0  0
    0.2090  -55.4415  -26.4798 C   0  0  0  0  0  0  0  0  0  0  0  0
   -0.4187  -55.5073  -25.2646 C   0  0  0  0  0  0  0  0  0  0  0  0
   -0.9901  -56.6676  -24.8100 F   0  0  0  0  0  0  0  0  0  0  0  0
   -0.4637  -54.3454  -24.4867 C   0  0  0  0  0  0  0  0  0  0  0  0
    0.1123  -53.2728  -25.0027 N   0  0  0  0  0  0  0  0  0  0  0  0
    1.2914  -51.9550  -26.5790 N   0  0  0  0  0  0  0  0  0  0  0  0
    0.8370  -51.5123  -27.4517 H   0  0  0  0  0  0  0  0  0  0  0  0
    3.4205  -49.0556  -25.7516 C   0  0  0  0  0  0  0  0  0  0  0  0
    4.3459  -49.6387  -24.9042 C   0  0  0  0  0  0  0  0  0  0  0  0
    4.2993  -50.9733  -24.5942 C   0  0  0  0  0  0  0  0  0  0  0  0
    3.2864  -51.7725  -25.1500 C   0  0  0  0  0  0  0  0  0  0  0  0
    2.3481  -51.2414  -25.9931 C   0  0  0  0  0  0  0  0  0  0  0  0
    2.4544  -49.8670  -26.2688 C   0  0  0  0  0  0  0  0  0  0  0  0
    3.5126  -47.7029  -26.0325 O   0  0  0  0  0  0  0  0  0  0  0  0
    3.8618  -46.7315  -25.0893 C   0  0  0  0  0  0  0  0  0  0  0  0
    2.2845  -45.6762  -26.6784 C   0  0  0  0  0  0  0  0  0  0  0  0
    3.0963  -45.4646  -25.4075 C   0  0  0  0  0  0  0  0  0  0  0  0
    2.1063  -45.2322  -24.2855 C   0  0  0  0  0  0  0  0  0  0  0  0
    3.9557  -44.3819  -25.5701 O   0  0  0  0  0  0  0  0  0  0  0  0
    3.4296  -43.5950  -25.8156 H   0  0  0  0  0  0  0  0  0  0  0  0
   -1.0830  -54.3887  -23.2225 N   0  0  0  0  0  0  0  0  0  0  0  0
   -1.9871  -54.9706  -23.1769 H   0  0  0  0  0  0  0  0  0  0  0  0
   -0.6569  -53.7660  -22.0482 C   0  0  0  0  0  0  0  0  0  0  0  0
   -1.3169  -53.8773  -20.8641 C   0  0  0  0  0  0  0  0  0  0  0  0
   -0.8464  -53.2056  -19.7289 C   0  0  0  0  0  0  0  0  0  0  0  0
    0.2656  -52.4388  -19.7870 C   0  0  0  0  0  0  0  0  0  0  0  0
    0.9838  -52.2925  -20.9890 C   0  0  0  0  0  0  0  0  0  0  0  0
    0.4936  -52.9648  -22.0787 C   0  0  0  0  0  0  0  0  0  0  0  0
    2.1271  -51.4971  -20.9338 N   0  0  0  0  0  0  0  0  0  0  0  0
    2.2180  -50.1928  -21.4478 C   0  0  0  0  0  0  0  0  0  0  0  0
    1.2299  -49.6011  -22.0213 O   0  0  0  0  0  0  0  0  0  0  0  0
    2.9952  -51.8890  -20.4823 H   0  0  0  0  0  0  0  0  0  0  0  0
    3.4361  -49.3887  -21.3807 C   0  0  0  0  0  0  0  0  0  0  0  0
    3.4215  -48.1181  -21.6119 C   0  0  0  0  0  0  0  0  0  0  0  0
 18 19  1  0  0  0
 19 20  1  0  0  0
 19 21  1  0  0  0
 19 17  1  0  0  0
 17 16  1  0  0  0
 16 10  1  0  0  0
 10 11  2  0  0  0
 11 12  1  0  0  0
 12 13  2  0  0  0
 13 14  1  0  0  0
 14  8  1  0  0  0
  8  1  1  0  0  0
  1  2  2  0  0  0
  2  3  1  0  0  0
  3  4  2  0  0  0
  4  5  1  0  0  0
  4  6  1  0  0  0
  6 23  1  0  0  0
 23 25  1  0  0  0
 25 26  2  0  0  0
 26 27  1  0  0  0
 27 28  2  0  0  0
 28 29  1  0  0  0
 29 31  1  0  0  0
 31 32  1  0  0  0
 32 33  2  0  0  0
 32 35  1  0  0  0
 35 36  2  0  0  0
 29 30  2  0  0  0
  6  7  2  0  0  0
 14 15  2  0  0  0
 15 10  1  0  0  0
  7  1  1  0  0  0
 30 25  1  0  0  0
 21 22  1  0  0  0
  8  9  1  0  0  0
 23 24  1  0  0  0
 31 34  1  0  0  0
M  END
> <minimizedAffinity>
-6.72395

> <CNNscore>
0.2515503168

> <CNNaffinity>
6.6883039474

> <CNN_VS>
1.6824449301

> <CNNaffinity_variance>
0.0386577435

$$$$
[H]OC(C([H])([H])[H])(C([H])([H])[H])C([H])([H])Oc1c([H])c([H])c([H])c(N([H])c2nc([H])c(F)c(N([H])c3c([H])c([H])c([H])c(N([H])C(=O)C([H])=C([H])[H])c3[H])n2)c1[H]


 36 38  0  0  0  0  0  0  0  0999 V2000
   -0.2148  -53.5705  -24.3184 C   0  0  0  0  0  0  0  0  0  0  0  0
   -0.9354  -53.3142  -25.4191 N   0  0  0  0  0  0  0  0  0  0  0  0
   -0.3638  -52.9554  -26.5659 C   0  0  0  0  0  0  0  0  0  0  0  0
    0.9952  -52.8300  -26.6779 C   0  0  0  0  0  0  0  0  0  0  0  0
    1.5906  -52.4608  -27.8564 F   0  0  0  0  0  0  0  0  0  0  0  0
    1.7729  -53.0913  -25.5448 C   0  0  0  0  0  0  0  0  0  0  0  0
    1.1158  -53.4410  -24.4518 N   0  0  0  0  0  0  0  0  0  0  0  0
   -0.7412  -53.9538  -23.0733 N   0  0  0  0  0  0  0  0  0  0  0  0
   -1.4247  -54.7875  -23.1135 H   0  0  0  0  0  0  0  0  0  0  0  0
    0.8086  -51.7808  -20.5236 C   0  0  0  0  0  0  0  0  0  0  0  0
    0.1014  -52.1510  -19.3935 C   0  0  0  0  0  0  0  0  0  0  0  0
   -0.8783  -53.1091  -19.4375 C   0  0  0  0  0  0  0  0  0  0  0  0
   -1.1742  -53.7331  -20.6610 C   0  0  0  0  0  0  0  0  0  0  0  0
   -0.5022  -53.4004  -21.8060 C   0  0  0  0  0  0  0  0  0  0  0  0
    0.4897  -52.4110  -21.6899 C   0  0  0  0  0  0  0  0  0  0  0  0
    1.7887  -50.8077  -20.4246 O   0  0  0  0  0  0  0  0  0  0  0  0
    2.1302  -50.1618  -19.2325 C   0  0  0  0  0  0  0  0  0  0  0  0
    4.2904  -50.7941  -20.2621 C   0  0  0  0  0  0  0  0  0  0  0  0
    3.6147  -49.8658  -19.2617 C   0  0  0  0  0  0  0  0  0  0  0  0
    3.7914  -48.4544  -19.7809 C   0  0  0  0  0  0  0  0  0  0  0  0
    4.1876  -50.0287  -18.0038 O   0  0  0  0  0  0  0  0  0  0  0  0
    5.1502  -49.8710  -18.0721 H   0  0  0  0  0  0  0  0  0  0  0  0
    3.1718  -52.9486  -25.6239 N   0  0  0  0  0  0  0  0  0  0  0  0
    3.6630  -53.6318  -26.2946 H   0  0  0  0  0  0  0  0  0  0  0  0
    3.9709  -52.0347  -24.9350 C   0  0  0  0  0  0  0  0  0  0  0  0
    5.2641  -52.2836  -24.5952 C   0  0  0  0  0  0  0  0  0  0  0  0
    6.0018  -51.3303  -23.8823 C   0  0  0  0  0  0  0  0  0  0  0  0
    5.4469  -50.1517  -23.5204 C   0  0  0  0  0  0  0  0  0  0  0  0
    4.1123  -49.8470  -23.8490 C   0  0  0  0  0  0  0  0  0  0  0  0
    3.4219  -50.8039  -24.5472 C   0  0  0  0  0  0  0  0  0  0  0  0
    3.6460  -48.5965  -23.4470 N   0  0  0  0  0  0  0  0  0  0  0  0
    3.5299  -47.4788  -24.2901 C   0  0  0  0  0  0  0  0  0  0  0  0
    3.8437  -47.5132  -25.5373 O   0  0  0  0  0  0  0  0  0  0  0  0
    3.3613  -48.4617  -22.4411 H   0  0  0  0  0  0  0  0  0  0  0  0
    3.0447  -46.1784  -23.8336 C   0  0  0  0  0  0  0  0  0  0  0  0
    3.3737  -45.7007  -22.6796 C   0  0  0  0  0  0  0  0  0  0  0  0
 18 19  1  0  0  0
 19 20  1  0  0  0
 19 21  1  0  0  0
 19 17  1  0  0  0
 17 16  1  0  0  0
 16 10  1  0  0  0
 10 11  2  0  0  0
 11 12  1  0  0  0
 12 13  2  0  0  0
 13 14  1  0  0  0
 14  8  1  0  0  0
  8  1  1  0  0  0
  1  2  2  0  0  0
  2  3  1  0  0  0
  3  4  2  0  0  0
  4  5  1  0  0  0
  4  6  1  0  0  0
  6 23  1  0  0  0
 23 25  1  0  0  0
 25 26  2  0  0  0
 26 27  1  0  0  0
 27 28  2  0  0  0
 28 29  1  0  0  0
 29 31  1  0  0  0
 31 32  1  0  0  0
 32 33  2  0  0  0
 32 35  1  0  0  0
 35 36  2  0  0  0
 29 30  2  0  0  0
  6  7  2  0  0  0
 14 15  2  0  0  0
 15 10  1  0  0  0
  7  1  1  0  0  0
 30 25  1  0  0  0
 21 22  1  0  0  0
  8  9  1  0  0  0
 23 24  1  0  0  0
 31 34  1  0  0  0
M  END
> <minimizedAffinity>
-6.60760

> <CNNscore>
0.2488172799

> <CNNaffinity>
6.9312410355

> <CNN_VS>
1.7246125937

> <CNNaffinity_variance>
0.2114459574

$$$$
[H]c1nc(N([H])c2c([H])c([H])c(F)c(Cl)c2[H])c2c([H])c(OC([H])([H])C([H])([H])C([H])([H])C([H])([H])n3c(C([H])([H])[H])nc([H])c3[N+](=O)[O-])c(OC([H])([H])[H])c([H])c2n1


 36 39  0  0  0  0  0  0  0  0999 V2000
   -0.0526  -52.5687  -19.6967 C   0  0  0  0  0  0  0  0  0  0  0  0
   -0.8751  -53.5759  -20.1545 C   0  0  0  0  0  0  0  0  0  0  0  0
   -0.8935  -53.9325  -21.4852 C   0  0  0  0  0  0  0  0  0  0  0  0
   -1.7130  -54.9290  -21.9068 N   0  0  0  0  0  0  0  0  0  0  0  0
   -1.6907  -55.2369  -23.2136 C   0  0  0  0  0  0  0  0  0  0  0  0
   -0.9043  -54.5975  -24.0558 N   0  0  0  0  0  0  0  0  0  0  0  0
   -0.0723  -53.6025  -23.6943 C   0  0  0  0  0  0  0  0  0  0  0  0
   -0.0609  -53.2504  -22.3570 C   0  0  0  0  0  0  0  0  0  0  0  0
    0.7524  -52.2512  -21.8913 C   0  0  0  0  0  0  0  0  0  0  0  0
    0.7866  -51.8726  -20.5408 C   0  0  0  0  0  0  0  0  0  0  0  0
   -1.0692  -52.6783  -17.5164 C   0  0  0  0  0  0  0  0  0  0  0  0
   -0.0421  -52.2192  -18.3602 O   0  0  0  0  0  0  0  0  0  0  0  0
    0.7180  -52.9334  -24.6397 N   0  0  0  0  0  0  0  0  0  0  0  0
    1.5683  -52.3738  -24.3645 H   0  0  0  0  0  0  0  0  0  0  0  0
    0.4676  -52.9387  -26.0452 C   0  0  0  0  0  0  0  0  0  0  0  0
    1.4283  -53.2191  -26.9672 C   0  0  0  0  0  0  0  0  0  0  0  0
    1.1034  -53.2421  -28.3176 C   0  0  0  0  0  0  0  0  0  0  0  0
   -0.1847  -52.9804  -28.7114 C   0  0  0  0  0  0  0  0  0  0  0  0
   -0.5523  -52.9898  -30.0055 F   0  0  0  0  0  0  0  0  0  0  0  0
   -1.1558  -52.6956  -27.7759 C   0  0  0  0  0  0  0  0  0  0  0  0
   -2.8200  -52.3558  -28.2682 Cl  0  0  0  0  0  0  0  0  0  0  0  0
   -0.8479  -52.6708  -26.4462 C   0  0  0  0  0  0  0  0  0  0  0  0
    1.6305  -50.8565  -20.1397 O   0  0  0  0  0  0  0  0  0  0  0  0
    2.8140  -51.1529  -19.4732 C   0  0  0  0  0  0  0  0  0  0  0  0
    4.0261  -50.6302  -20.1577 C   0  0  0  0  0  0  0  0  0  0  0  0
    3.7243  -49.5897  -21.2061 C   0  0  0  0  0  0  0  0  0  0  0  0
    4.7170  -49.6693  -22.3565 C   0  0  0  0  0  0  0  0  0  0  0  0
    4.0705  -49.7677  -23.6225 N   0  0  0  0  0  0  0  0  0  0  0  0
    3.7938  -50.9640  -24.2167 C   0  0  0  0  0  0  0  0  0  0  0  0
    4.0949  -52.3195  -23.6921 C   0  0  0  0  0  0  0  0  0  0  0  0
    3.1903  -50.6667  -25.3796 N   0  0  0  0  0  0  0  0  0  0  0  0
    3.0962  -49.3314  -25.5017 C   0  0  0  0  0  0  0  0  0  0  0  0
    3.6589  -48.7495  -24.3780 C   0  0  0  0  0  0  0  0  0  0  0  0
    3.7437  -47.3716  -24.1448 N   0  0  0  0  0  0  0  0  0  0  0  0
    2.7454  -46.5808  -23.6605 O   0  0  0  0  0  0  0  0  0  0  0  0
    4.8242  -46.7487  -24.3879 O   0  0  0  0  0  0  0  0  0  0  0  0
 11 12  1  0  0  0
 12  1  1  0  0  0
  1  2  2  0  0  0
  2  3  1  0  0  0
  3  4  2  0  0  0
  4  5  1  0  0  0
  5  6  2  0  0  0
  6  7  1  0  0  0
  7 13  1  0  0  0
 13 15  1  0  0  0
 15 16  2  0  0  0
 16 17  1  0  0  0
 17 18  2  0  0  0
 18 19  1  0  0  0
 18 20  1  0  0  0
 20 21  1  0  0  0
 20 22  2  0  0  0
  7  8  2  0  0  0
  8  9  1  0  0  0
  9 10  2  0  0  0
 10 23  1  0  0  0
 23 24  1  0  0  0
 24 25  1  0  0  0
 25 26  1  0  0  0
 26 27  1  0  0  0
 27 28  1  0  0  0
 28 29  1  0  0  0
 29 30  1  0  0  0
 29 31  2  0  0  0
 31 32  1  0  0  0
 32 33  2  0  0  0
 33 34  1  0  0  0
 34 35  1  0  0  0
 34 36  2  0  0  0
 10  1  1  0  0  0
 33 28  1  0  0  0
  8  3  1  0  0  0
 22 15  1  0  0  0
 13 14  1  0  0  0
M  CHG 1  34   1
M  CHG 1  35  -1
M  END
> <minimizedAffinity>
-8.13197

> <CNNscore>
0.9712308645

> <CNNaffinity>
8.2917842865

> <CNN_VS>
8.0532369614

> <CNNaffinity_variance>
0.1104342490

$$$$
[H]c1nc(N([H])c2c([H])c([H])c(F)c(Cl)c2[H])c2c([H])c(OC([H])([H])C([H])([H])C([H])([H])C([H])([H])n3c(C([H])([H])[H])nc([H])c3[N+](=O)[O-])c(OC([H])([H])[H])c([H])c2n1


 36 39  0  0  0  0  0  0  0  0999 V2000
   -0.1418  -52.2091  -19.4505 C   0  0  0  0  0  0  0  0  0  0  0  0
   -0.6891  -53.3857  -19.9158 C   0  0  0  0  0  0  0  0  0  0  0  0
   -0.7237  -53.6726  -21.2630 C   0  0  0  0  0  0  0  0  0  0  0  0
   -1.2680  -54.8398  -21.6917 N   0  0  0  0  0  0  0  0  0  0  0  0
   -1.2751  -55.0697  -23.0147 C   0  0  0  0  0  0  0  0  0  0  0  0
   -0.7737  -54.1972  -23.8654 N   0  0  0  0  0  0  0  0  0  0  0  0
   -0.2221  -53.0252  -23.4974 C   0  0  0  0  0  0  0  0  0  0  0  0
   -0.1924  -52.7448  -22.1435 C   0  0  0  0  0  0  0  0  0  0  0  0
    0.3490  -51.5789  -21.6701 C   0  0  0  0  0  0  0  0  0  0  0  0
    0.3944  -51.2672  -20.3029 C   0  0  0  0  0  0  0  0  0  0  0  0
   -1.0839  -52.4977  -17.2531 C   0  0  0  0  0  0  0  0  0  0  0  0
   -0.1123  -51.9314  -18.0975 O   0  0  0  0  0  0  0  0  0  0  0  0
    0.2659  -52.1185  -24.4491 N   0  0  0  0  0  0  0  0  0  0  0  0
    0.7338  -51.2145  -24.1739 H   0  0  0  0  0  0  0  0  0  0  0  0
    0.1888  -52.3157  -25.8609 C   0  0  0  0  0  0  0  0  0  0  0  0
    1.2852  -52.5202  -26.6406 C   0  0  0  0  0  0  0  0  0  0  0  0
    1.1315  -52.7418  -28.0033 C   0  0  0  0  0  0  0  0  0  0  0  0
   -0.1257  -52.7515  -28.5529 C   0  0  0  0  0  0  0  0  0  0  0  0
   -0.3301  -52.9614  -29.8659 F   0  0  0  0  0  0  0  0  0  0  0  0
   -1.2345  -52.5431  -27.7614 C   0  0  0  0  0  0  0  0  0  0  0  0
   -2.8611  -52.5523  -28.4555 Cl  0  0  0  0  0  0  0  0  0  0  0  0
   -1.0953  -52.3249  -26.4211 C   0  0  0  0  0  0  0  0  0  0  0  0
    0.9547  -50.0735  -19.8950 O   0  0  0  0  0  0  0  0  0  0  0  0
    2.2983  -50.0165  -19.5422 C   0  0  0  0  0  0  0  0  0  0  0  0
    2.9596  -48.7432  -19.9328 C   0  0  0  0  0  0  0  0  0  0  0  0
    4.0058  -48.9120  -21.0051 C   0  0  0  0  0  0  0  0  0  0  0  0
    4.6084  -50.3086  -20.9654 C   0  0  0  0  0  0  0  0  0  0  0  0
    5.4164  -50.5813  -22.1069 N   0  0  0  0  0  0  0  0  0  0  0  0
    6.7640  -50.3702  -22.1224 C   0  0  0  0  0  0  0  0  0  0  0  0
    7.6045  -49.8448  -21.0175 C   0  0  0  0  0  0  0  0  0  0  0  0
    7.1799  -50.7357  -23.3464 N   0  0  0  0  0  0  0  0  0  0  0  0
    6.1258  -51.1590  -24.0649 C   0  0  0  0  0  0  0  0  0  0  0  0
    4.9921  -51.0624  -23.2755 C   0  0  0  0  0  0  0  0  0  0  0  0
    3.6994  -51.4156  -23.6806 N   0  0  0  0  0  0  0  0  0  0  0  0
    3.2040  -52.6827  -23.7546 O   0  0  0  0  0  0  0  0  0  0  0  0
    2.8694  -50.5158  -24.0214 O   0  0  0  0  0  0  0  0  0  0  0  0
 11 12  1  0  0  0
 12  1  1  0  0  0
  1  2  2  0  0  0
  2  3  1  0  0  0
  3  4  2  0  0  0
  4  5  1  0  0  0
  5  6  2  0  0  0
  6  7  1  0  0  0
  7 13  1  0  0  0
 13 15  1  0  0  0
 15 16  2  0  0  0
 16 17  1  0  0  0
 17 18  2  0  0  0
 18 19  1  0  0  0
 18 20  1  0  0  0
 20 21  1  0  0  0
 20 22  2  0  0  0
  7  8  2  0  0  0
  8  9  1  0  0  0
  9 10  2  0  0  0
 10 23  1  0  0  0
 23 24  1  0  0  0
 24 25  1  0  0  0
 25 26  1  0  0  0
 26 27  1  0  0  0
 27 28  1  0  0  0
 28 29  1  0  0  0
 29 30  1  0  0  0
 29 31  2  0  0  0
 31 32  1  0  0  0
 32 33  2  0  0  0
 33 34  1  0  0  0
 34 35  1  0  0  0
 34 36  2  0  0  0
 10  1  1  0  0  0
 33 28  1  0  0  0
  8  3  1  0  0  0
 22 15  1  0  0  0
 13 14  1  0  0  0
M  CHG 1  34   1
M  CHG 1  35  -1
M  END
> <minimizedAffinity>
-8.35075

> <CNNscore>
0.9322147965

> <CNNaffinity>
7.9973402023

> <CNN_VS>
7.4552388191

> <CNNaffinity_variance>
0.1299181134

$$$$
[H]c1nc(N([H])c2c([H])c([H])c(F)c(Cl)c2[H])c2c([H])c(OC([H])([H])C([H])([H])C([H])([H])C([H])([H])n3c(C([H])([H])[H])nc([H])c3[N+](=O)[O-])c(OC([H])([H])[H])c([H])c2n1


 36 39  0  0  0  0  0  0  0  0999 V2000
   -0.2447  -52.3129  -19.5445 C   0  0  0  0  0  0  0  0  0  0  0  0
   -0.8216  -53.4677  -20.0284 C   0  0  0  0  0  0  0  0  0  0  0  0
   -0.8126  -53.7596  -21.3748 C   0  0  0  0  0  0  0  0  0  0  0  0
   -1.3876  -54.9048  -21.8221 N   0  0  0  0  0  0  0  0  0  0  0  0
   -1.3496  -55.1409  -23.1434 C   0  0  0  0  0  0  0  0  0  0  0  0
   -0.7768  -54.2946  -23.9754 N   0  0  0  0  0  0  0  0  0  0  0  0
   -0.1918  -53.1452  -23.5886 C   0  0  0  0  0  0  0  0  0  0  0  0
   -0.2063  -52.8595  -22.2355 C   0  0  0  0  0  0  0  0  0  0  0  0
    0.3639  -51.7151  -21.7438 C   0  0  0  0  0  0  0  0  0  0  0  0
    0.3658  -51.3987  -20.3769 C   0  0  0  0  0  0  0  0  0  0  0  0
   -1.1830  -52.6847  -17.3580 C   0  0  0  0  0  0  0  0  0  0  0  0
   -0.2595  -52.0299  -18.1923 O   0  0  0  0  0  0  0  0  0  0  0  0
    0.3732  -52.2646  -24.5220 N   0  0  0  0  0  0  0  0  0  0  0  0
    0.9240  -51.4145  -24.2290 H   0  0  0  0  0  0  0  0  0  0  0  0
    0.2713  -52.4197  -25.9376 C   0  0  0  0  0  0  0  0  0  0  0  0
    1.3537  -52.6014  -26.7421 C   0  0  0  0  0  0  0  0  0  0  0  0
    1.1760  -52.7823  -28.1078 C   0  0  0  0  0  0  0  0  0  0  0  0
   -0.0907  -52.7752  -28.6354 C   0  0  0  0  0  0  0  0  0  0  0  0
   -0.3181  -52.9458  -29.9503 F   0  0  0  0  0  0  0  0  0  0  0  0
   -1.1852  -52.5899  -27.8188 C   0  0  0  0  0  0  0  0  0  0  0  0
   -2.8237  -52.5777  -28.4842 Cl  0  0  0  0  0  0  0  0  0  0  0  0
   -1.0224  -52.4117  -26.4752 C   0  0  0  0  0  0  0  0  0  0  0  0
    0.9589  -50.2278  -19.9499 O   0  0  0  0  0  0  0  0  0  0  0  0
    2.3287  -50.1826  -19.7168 C   0  0  0  0  0  0  0  0  0  0  0  0
    2.6865  -50.2454  -18.2748 C   0  0  0  0  0  0  0  0  0  0  0  0
    2.0285  -49.1733  -17.4438 C   0  0  0  0  0  0  0  0  0  0  0  0
    2.4295  -49.2930  -15.9808 C   0  0  0  0  0  0  0  0  0  0  0  0
    1.6346  -50.2444  -15.2786 N   0  0  0  0  0  0  0  0  0  0  0  0
    0.2942  -50.0830  -15.0836 C   0  0  0  0  0  0  0  0  0  0  0  0
   -0.5505  -48.9501  -15.5379 C   0  0  0  0  0  0  0  0  0  0  0  0
   -0.1102  -51.1624  -14.3935 N   0  0  0  0  0  0  0  0  0  0  0  0
    0.9440  -51.9654  -14.1685 C   0  0  0  0  0  0  0  0  0  0  0  0
    2.0657  -51.3820  -14.7336 C   0  0  0  0  0  0  0  0  0  0  0  0
    3.3548  -51.9275  -14.7052 N   0  0  0  0  0  0  0  0  0  0  0  0
    4.2584  -51.8949  -15.7245 O   0  0  0  0  0  0  0  0  0  0  0  0
    3.7746  -52.5181  -13.6614 O   0  0  0  0  0  0  0  0  0  0  0  0
 11 12  1  0  0  0
 12  1  1  0  0  0
  1  2  2  0  0  0
  2  3  1  0  0  0
  3  4  2  0  0  0
  4  5  1  0  0  0
  5  6  2  0  0  0
  6  7  1  0  0  0
  7 13  1  0  0  0
 13 15  1  0  0  0
 15 16  2  0  0  0
 16 17  1  0  0  0
 17 18  2  0  0  0
 18 19  1  0  0  0
 18 20  1  0  0  0
 20 21  1  0  0  0
 20 22  2  0  0  0
  7  8  2  0  0  0
  8  9  1  0  0  0
  9 10  2  0  0  0
 10 23  1  0  0  0
 23 24  1  0  0  0
 24 25  1  0  0  0
 25 26  1  0  0  0
 26 27  1  0  0  0
 27 28  1  0  0  0
 28 29  1  0  0  0
 29 30  1  0  0  0
 29 31  2  0  0  0
 31 32  1  0  0  0
 32 33  2  0  0  0
 33 34  1  0  0  0
 34 35  1  0  0  0
 34 36  2  0  0  0
 10  1  1  0  0  0
 33 28  1  0  0  0
  8  3  1  0  0  0
 22 15  1  0  0  0
 13 14  1  0  0  0
M  CHG 1  34   1
M  CHG 1  35  -1
M  END
> <minimizedAffinity>
-8.42479

> <CNNscore>
0.9267318845

> <CNNaffinity>
7.6201858521

> <CNN_VS>
7.0618691444

> <CNNaffinity_variance>
0.0122762192

$$$$
[H]c1nc(N([H])c2c([H])c([H])c(F)c(Cl)c2[H])c2c([H])c(OC([H])([H])C([H])([H])C([H])([H])C([H])([H])n3c(C([H])([H])[H])nc([H])c3[N+](=O)[O-])c(OC([H])([H])[H])c([H])c2n1


 36 39  0  0  0  0  0  0  0  0999 V2000
   -0.2439  -52.2588  -19.6071 C   0  0  0  0  0  0  0  0  0  0  0  0
   -0.8204  -53.4255  -20.0619 C   0  0  0  0  0  0  0  0  0  0  0  0
   -0.8022  -53.7561  -21.3993 C   0  0  0  0  0  0  0  0  0  0  0  0
   -1.3772  -54.9122  -21.8178 N   0  0  0  0  0  0  0  0  0  0  0  0
   -1.3301  -55.1863  -23.1315 C   0  0  0  0  0  0  0  0  0  0  0  0
   -0.7487  -54.3657  -23.9831 N   0  0  0  0  0  0  0  0  0  0  0  0
   -0.1634  -53.2072  -23.6251 C   0  0  0  0  0  0  0  0  0  0  0  0
   -0.1871  -52.8827  -22.2809 C   0  0  0  0  0  0  0  0  0  0  0  0
    0.3827  -51.7261  -21.8181 C   0  0  0  0  0  0  0  0  0  0  0  0
    0.3754  -51.3706  -20.4609 C   0  0  0  0  0  0  0  0  0  0  0  0
   -1.0889  -52.6722  -17.3903 C   0  0  0  0  0  0  0  0  0  0  0  0
   -0.2679  -51.9371  -18.2638 O   0  0  0  0  0  0  0  0  0  0  0  0
    0.4111  -52.3553  -24.5792 N   0  0  0  0  0  0  0  0  0  0  0  0
    0.9955  -51.5210  -24.3066 H   0  0  0  0  0  0  0  0  0  0  0  0
    0.2750  -52.5212  -25.9907 C   0  0  0  0  0  0  0  0  0  0  0  0
    1.3297  -52.7814  -26.8104 C   0  0  0  0  0  0  0  0  0  0  0  0
    1.1172  -52.9677  -28.1704 C   0  0  0  0  0  0  0  0  0  0  0  0
   -0.1554  -52.8866  -28.6771 C   0  0  0  0  0  0  0  0  0  0  0  0
   -0.4160  -53.0588  -29.9856 F   0  0  0  0  0  0  0  0  0  0  0  0
   -1.2217  -52.6220  -27.8451 C   0  0  0  0  0  0  0  0  0  0  0  0
   -2.8674  -52.5140  -28.4835 Cl  0  0  0  0  0  0  0  0  0  0  0  0
   -1.0247  -52.4378  -26.5069 C   0  0  0  0  0  0  0  0  0  0  0  0
    0.9686  -50.1894  -20.0633 O   0  0  0  0  0  0  0  0  0  0  0  0
    1.1731  -49.1660  -20.9818 C   0  0  0  0  0  0  0  0  0  0  0  0
    2.5845  -48.7024  -21.0475 C   0  0  0  0  0  0  0  0  0  0  0  0
    3.5358  -49.7424  -21.5825 C   0  0  0  0  0  0  0  0  0  0  0  0
    4.4885  -49.1378  -22.6033 C   0  0  0  0  0  0  0  0  0  0  0  0
    3.9848  -49.2289  -23.9330 N   0  0  0  0  0  0  0  0  0  0  0  0
    3.5363  -48.1432  -24.6263 C   0  0  0  0  0  0  0  0  0  0  0  0
    3.4870  -46.7353  -24.1586 C   0  0  0  0  0  0  0  0  0  0  0  0
    3.1456  -48.6073  -25.8250 N   0  0  0  0  0  0  0  0  0  0  0  0
    3.3454  -49.9356  -25.8728 C   0  0  0  0  0  0  0  0  0  0  0  0
    3.8834  -50.3401  -24.6625 C   0  0  0  0  0  0  0  0  0  0  0  0
    4.2288  -51.6574  -24.3377 N   0  0  0  0  0  0  0  0  0  0  0  0
    3.3691  -52.6288  -23.9210 O   0  0  0  0  0  0  0  0  0  0  0  0
    5.4382  -52.0386  -24.4204 O   0  0  0  0  0  0  0  0  0  0  0  0
 11 12  1  0  0  0
 12  1  1  0  0  0
  1  2  2  0  0  0
  2  3  1  0  0  0
  3  4  2  0  0  0
  4  5  1  0  0  0
  5  6  2  0  0  0
  6  7  1  0  0  0
  7 13  1  0  0  0
 13 15  1  0  0  0
 15 16  2  0  0  0
 16 17  1  0  0  0
 17 18  2  0  0  0
 18 19  1  0  0  0
 18 20  1  0  0  0
 20 21  1  0  0  0
 20 22  2  0  0  0
  7  8  2  0  0  0
  8  9  1  0  0  0
  9 10  2  0  0  0
 10 23  1  0  0  0
 23 24  1  0  0  0
 24 25  1  0  0  0
 25 26  1  0  0  0
 26 27  1  0  0  0
 27 28  1  0  0  0
 28 29  1  0  0  0
 29 30  1  0  0  0
 29 31  2  0  0  0
 31 32  1  0  0  0
 32 33  2  0  0  0
 33 34  1  0  0  0
 34 35  1  0  0  0
 34 36  2  0  0  0
 10  1  1  0  0  0
 33 28  1  0  0  0
  8  3  1  0  0  0
 22 15  1  0  0  0
 13 14  1  0  0  0
M  CHG 1  34   1
M  CHG 1  35  -1
M  END
> <minimizedAffinity>
-8.26236

> <CNNscore>
0.9051315784

> <CNNaffinity>
7.9689650536

> <CNN_VS>
7.2129621506

> <CNNaffinity_variance>
0.1487946361

$$$$
[H]c1nc(N([H])c2c([H])c([H])c(F)c(Cl)c2[H])c2c([H])c(OC([H])([H])C([H])([H])C([H])([H])C([H])([H])n3c(C([H])([H])[H])nc([H])c3[N+](=O)[O-])c(OC([H])([H])[H])c([H])c2n1


 36 39  0  0  0  0  0  0  0  0999 V2000
    0.0470  -51.6982  -19.3301 C   0  0  0  0  0  0  0  0  0  0  0  0
   -0.5073  -52.9245  -19.6290 C   0  0  0  0  0  0  0  0  0  0  0  0
   -0.6208  -53.3577  -20.9320 C   0  0  0  0  0  0  0  0  0  0  0  0
   -1.1700  -54.5705  -21.1957 N   0  0  0  0  0  0  0  0  0  0  0  0
   -1.2555  -54.9441  -22.4827 C   0  0  0  0  0  0  0  0  0  0  0  0
   -0.8235  -54.1646  -23.4534 N   0  0  0  0  0  0  0  0  0  0  0  0
   -0.2709  -52.9536  -23.2510 C   0  0  0  0  0  0  0  0  0  0  0  0
   -0.1618  -52.5262  -21.9402 C   0  0  0  0  0  0  0  0  0  0  0  0
    0.3874  -51.3097  -21.6319 C   0  0  0  0  0  0  0  0  0  0  0  0
    0.5124  -50.8496  -20.3124 C   0  0  0  0  0  0  0  0  0  0  0  0
   -0.6650  -51.8506  -17.0347 C   0  0  0  0  0  0  0  0  0  0  0  0
    0.1559  -51.2736  -18.0200 O   0  0  0  0  0  0  0  0  0  0  0  0
    0.1408  -52.1514  -24.3247 N   0  0  0  0  0  0  0  0  0  0  0  0
    0.7380  -51.2933  -24.1869 H   0  0  0  0  0  0  0  0  0  0  0  0
   -0.1914  -52.4034  -25.6901 C   0  0  0  0  0  0  0  0  0  0  0  0
   -1.3973  -52.0786  -26.2306 C   0  0  0  0  0  0  0  0  0  0  0  0
   -1.6376  -52.3200  -27.5773 C   0  0  0  0  0  0  0  0  0  0  0  0
   -0.6566  -52.8855  -28.3522 C   0  0  0  0  0  0  0  0  0  0  0  0
   -0.8374  -53.1401  -29.6608 F   0  0  0  0  0  0  0  0  0  0  0  0
    0.5635  -53.2145  -27.8024 C   0  0  0  0  0  0  0  0  0  0  0  0
    1.8374  -53.9444  -28.7883 Cl  0  0  0  0  0  0  0  0  0  0  0  0
    0.8109  -52.9813  -26.4803 C   0  0  0  0  0  0  0  0  0  0  0  0
    1.0759  -49.6125  -20.0732 O   0  0  0  0  0  0  0  0  0  0  0  0
    1.0188  -48.6189  -21.0438 C   0  0  0  0  0  0  0  0  0  0  0  0
    2.3477  -48.0430  -21.3808 C   0  0  0  0  0  0  0  0  0  0  0  0
    2.6083  -47.9563  -22.8631 C   0  0  0  0  0  0  0  0  0  0  0  0
    3.9408  -48.5974  -23.2220 C   0  0  0  0  0  0  0  0  0  0  0  0
    3.8264  -50.0026  -23.4284 N   0  0  0  0  0  0  0  0  0  0  0  0
    3.3092  -50.5391  -24.5709 C   0  0  0  0  0  0  0  0  0  0  0  0
    2.7933  -49.8070  -25.7547 C   0  0  0  0  0  0  0  0  0  0  0  0
    3.3608  -51.8717  -24.4082 N   0  0  0  0  0  0  0  0  0  0  0  0
    3.8922  -52.1513  -23.2056 C   0  0  0  0  0  0  0  0  0  0  0  0
    4.1927  -50.9568  -22.5726 C   0  0  0  0  0  0  0  0  0  0  0  0
    4.7640  -50.8447  -21.2994 N   0  0  0  0  0  0  0  0  0  0  0  0
    6.0449  -50.4670  -21.0293 O   0  0  0  0  0  0  0  0  0  0  0  0
    4.0734  -51.1057  -20.2651 O   0  0  0  0  0  0  0  0  0  0  0  0
 11 12  1  0  0  0
 12  1  1  0  0  0
  1  2  2  0  0  0
  2  3  1  0  0  0
  3  4  2  0  0  0
  4  5  1  0  0  0
  5  6  2  0  0  0
  6  7  1  0  0  0
  7 13  1  0  0  0
 13 15  1  0  0  0
 15 16  2  0  0  0
 16 17  1  0  0  0
 17 18  2  0  0  0
 18 19  1  0  0  0
 18 20  1  0  0  0
 20 21  1  0  0  0
 20 22  2  0  0  0
  7  8  2  0  0  0
  8  9  1  0  0  0
  9 10  2  0  0  0
 10 23  1  0  0  0
 23 24  1  0  0  0
 24 25  1  0  0  0
 25 26  1  0  0  0
 26 27  1  0  0  0
 27 28  1  0  0  0
 28 29  1  0  0  0
 29 30  1  0  0  0
 29 31  2  0  0  0
 31 32  1  0  0  0
 32 33  2  0  0  0
 33 34  1  0  0  0
 34 35  1  0  0  0
 34 36  2  0  0  0
 10  1  1  0  0  0
 33 28  1  0  0  0
  8  3  1  0  0  0
 22 15  1  0  0  0
 13 14  1  0  0  0
M  CHG 1  34   1
M  CHG 1  35  -1
M  END
> <minimizedAffinity>
-8.21697

> <CNNscore>
0.8281775117

> <CNNaffinity>
7.7827901840

> <CNN_VS>
6.4455318451

> <CNNaffinity_variance>
0.1728625596

$$$$
[H]c1nc(N([H])c2c([H])c([H])c(F)c(Cl)c2[H])c2c([H])c(OC([H])([H])C([H])([H])C([H])([H])C([H])([H])n3c(C([H])([H])[H])nc([H])c3[N+](=O)[O-])c(OC([H])([H])[H])c([H])c2n1


 36 39  0  0  0  0  0  0  0  0999 V2000
   -0.0185  -51.5508  -19.3491 C   0  0  0  0  0  0  0  0  0  0  0  0
   -0.5001  -52.8128  -19.6247 C   0  0  0  0  0  0  0  0  0  0  0  0
   -0.6077  -53.2681  -20.9206 C   0  0  0  0  0  0  0  0  0  0  0  0
   -1.0845  -54.5159  -21.1613 N   0  0  0  0  0  0  0  0  0  0  0  0
   -1.1676  -54.9097  -22.4424 C   0  0  0  0  0  0  0  0  0  0  0  0
   -0.8010  -54.1169  -23.4291 N   0  0  0  0  0  0  0  0  0  0  0  0
   -0.3218  -52.8714  -23.2496 C   0  0  0  0  0  0  0  0  0  0  0  0
   -0.2181  -52.4221  -21.9458 C   0  0  0  0  0  0  0  0  0  0  0  0
    0.2592  -51.1701  -21.6606 C   0  0  0  0  0  0  0  0  0  0  0  0
    0.3769  -50.6870  -20.3487 C   0  0  0  0  0  0  0  0  0  0  0  0
   -0.5809  -51.7993  -17.0208 C   0  0  0  0  0  0  0  0  0  0  0  0
    0.0852  -51.1043  -18.0459 O   0  0  0  0  0  0  0  0  0  0  0  0
    0.0214  -52.0584  -24.3392 N   0  0  0  0  0  0  0  0  0  0  0  0
    0.5524  -51.1552  -24.2197 H   0  0  0  0  0  0  0  0  0  0  0  0
   -0.2986  -52.3577  -25.6979 C   0  0  0  0  0  0  0  0  0  0  0  0
   -1.5109  -52.0812  -26.2511 C   0  0  0  0  0  0  0  0  0  0  0  0
   -1.7394  -52.3670  -27.5911 C   0  0  0  0  0  0  0  0  0  0  0  0
   -0.7405  -52.9273  -28.3467 C   0  0  0  0  0  0  0  0  0  0  0  0
   -0.9094  -53.2235  -29.6481 F   0  0  0  0  0  0  0  0  0  0  0  0
    0.4860  -53.2073  -27.7841 C   0  0  0  0  0  0  0  0  0  0  0  0
    1.7829  -53.9298  -28.7451 Cl  0  0  0  0  0  0  0  0  0  0  0  0
    0.7219  -52.9302  -26.4684 C   0  0  0  0  0  0  0  0  0  0  0  0
    0.8660  -49.4145  -20.1330 O   0  0  0  0  0  0  0  0  0  0  0  0
    0.9767  -48.5195  -21.1911 C   0  0  0  0  0  0  0  0  0  0  0  0
    2.1892  -47.6619  -21.1170 C   0  0  0  0  0  0  0  0  0  0  0  0
    3.2974  -48.1047  -22.0382 C   0  0  0  0  0  0  0  0  0  0  0  0
    4.4553  -48.7021  -21.2523 C   0  0  0  0  0  0  0  0  0  0  0  0
    4.1268  -49.9661  -20.6825 N   0  0  0  0  0  0  0  0  0  0  0  0
    3.9433  -50.1443  -19.3427 C   0  0  0  0  0  0  0  0  0  0  0  0
    4.0445  -49.1163  -18.2767 C   0  0  0  0  0  0  0  0  0  0  0  0
    3.6508  -51.4455  -19.1809 N   0  0  0  0  0  0  0  0  0  0  0  0
    3.6528  -52.0529  -20.3799 C   0  0  0  0  0  0  0  0  0  0  0  0
    3.9574  -51.1094  -21.3468 C   0  0  0  0  0  0  0  0  0  0  0  0
    4.0499  -51.3679  -22.7197 N   0  0  0  0  0  0  0  0  0  0  0  0
    3.0063  -51.4233  -23.5939 O   0  0  0  0  0  0  0  0  0  0  0  0
    5.1835  -51.5772  -23.2544 O   0  0  0  0  0  0  0  0  0  0  0  0
 11 12  1  0  0  0
 12  1  1  0  0  0
  1  2  2  0  0  0
  2  3  1  0  0  0
  3  4  2  0  0  0
  4  5  1  0  0  0
  5  6  2  0  0  0
  6  7  1  0  0  0
  7 13  1  0  0  0
 13 15  1  0  0  0
 15 16  2  0  0  0
 16 17  1  0  0  0
 17 18  2  0  0  0
 18 19  1  0  0  0
 18 20  1  0  0  0
 20 21  1  0  0  0
 20 22  2  0  0  0
  7  8  2  0  0  0
  8  9  1  0  0  0
  9 10  2  0  0  0
 10 23  1  0  0  0
 23 24  1  0  0  0
 24 25  1  0  0  0
 25 26  1  0  0  0
 26 27  1  0  0  0
 27 28  1  0  0  0
 28 29  1  0  0  0
 29 30  1  0  0  0
 29 31  2  0  0  0
 31 32  1  0  0  0
 32 33  2  0  0  0
 33 34  1  0  0  0
 34 35  1  0  0  0
 34 36  2  0  0  0
 10  1  1  0  0  0
 33 28  1  0  0  0
  8  3  1  0  0  0
 22 15  1  0  0  0
 13 14  1  0  0  0
M  CHG 1  34   1
M  CHG 1  35  -1
M  END
> <minimizedAffinity>
-7.90966

> <CNNscore>
0.7602514625

> <CNNaffinity>
7.5638608932

> <CNN_VS>
5.7504363060

> <CNNaffinity_variance>
0.0696357936

$$$$
[H]c1nc(N([H])c2c([H])c([H])c(F)c(Cl)c2[H])c2c([H])c(OC([H])([H])C([H])([H])C([H])([H])C([H])([H])n3c(C([H])([H])[H])nc([H])c3[N+](=O)[O-])c(OC([H])([H])[H])c([H])c2n1


 36 39  0  0  0  0  0  0  0  0999 V2000
   -0.1911  -51.9488  -19.3212 C   0  0  0  0  0  0  0  0  0  0  0  0
   -0.7077  -53.1507  -19.7560 C   0  0  0  0  0  0  0  0  0  0  0  0
   -0.7152  -53.4819  -21.0933 C   0  0  0  0  0  0  0  0  0  0  0  0
   -1.2296  -54.6732  -21.4918 N   0  0  0  0  0  0  0  0  0  0  0  0
   -1.2111  -54.9461  -22.8064 C   0  0  0  0  0  0  0  0  0  0  0  0
   -0.7135  -54.0917  -23.6776 N   0  0  0  0  0  0  0  0  0  0  0  0
   -0.1911  -52.8975  -23.3399 C   0  0  0  0  0  0  0  0  0  0  0  0
   -0.1884  -52.5727  -21.9956 C   0  0  0  0  0  0  0  0  0  0  0  0
    0.3224  -51.3813  -21.5526 C   0  0  0  0  0  0  0  0  0  0  0  0
    0.3399  -51.0244  -20.1958 C   0  0  0  0  0  0  0  0  0  0  0  0
   -0.9872  -52.3659  -17.0870 C   0  0  0  0  0  0  0  0  0  0  0  0
   -0.1886  -51.6267  -17.9777 O   0  0  0  0  0  0  0  0  0  0  0  0
    0.2940  -52.0125  -24.3133 N   0  0  0  0  0  0  0  0  0  0  0  0
    0.7680  -51.1053  -24.0599 H   0  0  0  0  0  0  0  0  0  0  0  0
    0.2058  -52.2379  -25.7202 C   0  0  0  0  0  0  0  0  0  0  0  0
    1.2956  -52.4632  -26.5035 C   0  0  0  0  0  0  0  0  0  0  0  0
    1.1309  -52.7117  -27.8603 C   0  0  0  0  0  0  0  0  0  0  0  0
   -0.1303  -52.7268  -28.4005 C   0  0  0  0  0  0  0  0  0  0  0  0
   -0.3452  -52.9623  -29.7075 F   0  0  0  0  0  0  0  0  0  0  0  0
   -1.2323  -52.4973  -27.6054 C   0  0  0  0  0  0  0  0  0  0  0  0
   -2.8640  -52.5131  -28.2874 Cl  0  0  0  0  0  0  0  0  0  0  0  0
   -1.0824  -52.2526  -26.2708 C   0  0  0  0  0  0  0  0  0  0  0  0
    0.8701  -49.8071  -19.8188 O   0  0  0  0  0  0  0  0  0  0  0  0
    2.1879  -49.7232  -19.3837 C   0  0  0  0  0  0  0  0  0  0  0  0
    2.3284  -49.1150  -18.0341 C   0  0  0  0  0  0  0  0  0  0  0  0
    2.7680  -50.0938  -16.9751 C   0  0  0  0  0  0  0  0  0  0  0  0
    2.2673  -49.6736  -15.6011 C   0  0  0  0  0  0  0  0  0  0  0  0
    3.3201  -49.2092  -14.7608 N   0  0  0  0  0  0  0  0  0  0  0  0
    3.9137  -49.9985  -13.8199 C   0  0  0  0  0  0  0  0  0  0  0  0
    3.5973  -51.4140  -13.5042 C   0  0  0  0  0  0  0  0  0  0  0  0
    4.8479  -49.2322  -13.2325 N   0  0  0  0  0  0  0  0  0  0  0  0
    4.8337  -48.0096  -13.7908 C   0  0  0  0  0  0  0  0  0  0  0  0
    3.8561  -47.9886  -14.7714 C   0  0  0  0  0  0  0  0  0  0  0  0
    3.5472  -46.8834  -15.5734 N   0  0  0  0  0  0  0  0  0  0  0  0
    4.3183  -46.3879  -16.5816 O   0  0  0  0  0  0  0  0  0  0  0  0
    2.4634  -46.2457  -15.3908 O   0  0  0  0  0  0  0  0  0  0  0  0
 11 12  1  0  0  0
 12  1  1  0  0  0
  1  2  2  0  0  0
  2  3  1  0  0  0
  3  4  2  0  0  0
  4  5  1  0  0  0
  5  6  2  0  0  0
  6  7  1  0  0  0
  7 13  1  0  0  0
 13 15  1  0  0  0
 15 16  2  0  0  0
 16 17  1  0  0  0
 17 18  2  0  0  0
 18 19  1  0  0  0
 18 20  1  0  0  0
 20 21  1  0  0  0
 20 22  2  0  0  0
  7  8  2  0  0  0
  8  9  1  0  0  0
  9 10  2  0  0  0
 10 23  1  0  0  0
 23 24  1  0  0  0
 24 25  1  0  0  0
 25 26  1  0  0  0
 26 27  1  0  0  0
 27 28  1  0  0  0
 28 29  1  0  0  0
 29 30  1  0  0  0
 29 31  2  0  0  0
 31 32  1  0  0  0
 32 33  2  0  0  0
 33 34  1  0  0  0
 34 35  1  0  0  0
 34 36  2  0  0  0
 10  1  1  0  0  0
 33 28  1  0  0  0
  8  3  1  0  0  0
 22 15  1  0  0  0
 13 14  1  0  0  0
M  CHG 1  34   1
M  CHG 1  35  -1
M  END
> <minimizedAffinity>
-7.71971

> <CNNscore>
0.7483764887

> <CNNaffinity>
7.3557190895

> <CNN_VS>
5.5048470497

> <CNNaffinity_variance>
0.2097319663

$$$$
[H]c1nc(N([H])c2c([H])c([H])c(F)c(Cl)c2[H])c2c([H])c(OC([H])([H])C([H])([H])C([H])([H])C([H])([H])n3c(C([H])([H])[H])nc([H])c3[N+](=O)[O-])c(OC([H])([H])[H])c([H])c2n1


 36 39  0  0  0  0  0  0  0  0999 V2000
    1.1837  -53.3770  -25.6250 C   0  0  0  0  0  0  0  0  0  0  0  0
    0.0940  -54.1228  -25.2289 C   0  0  0  0  0  0  0  0  0  0  0  0
   -0.3424  -54.1098  -23.9222 C   0  0  0  0  0  0  0  0  0  0  0  0
   -1.4190  -54.8537  -23.5616 N   0  0  0  0  0  0  0  0  0  0  0  0
   -1.8027  -54.8037  -22.2758 C   0  0  0  0  0  0  0  0  0  0  0  0
   -1.1601  -54.0619  -21.3964 N   0  0  0  0  0  0  0  0  0  0  0  0
   -0.0877  -53.3052  -21.6971 C   0  0  0  0  0  0  0  0  0  0  0  0
    0.3442  -53.3248  -23.0107 C   0  0  0  0  0  0  0  0  0  0  0  0
    1.4257  -52.5877  -23.4152 C   0  0  0  0  0  0  0  0  0  0  0  0
    1.8865  -52.5865  -24.7404 C   0  0  0  0  0  0  0  0  0  0  0  0
    0.6754  -53.2473  -27.9753 C   0  0  0  0  0  0  0  0  0  0  0  0
    1.6129  -53.3974  -26.9380 O   0  0  0  0  0  0  0  0  0  0  0  0
    0.5786  -52.5611  -20.7129 N   0  0  0  0  0  0  0  0  0  0  0  0
    1.5413  -52.1602  -20.8689 H   0  0  0  0  0  0  0  0  0  0  0  0
    0.0391  -52.2679  -19.4241 C   0  0  0  0  0  0  0  0  0  0  0  0
   -0.7951  -53.1140  -18.7608 C   0  0  0  0  0  0  0  0  0  0  0  0
   -1.2524  -52.7791  -17.4926 C   0  0  0  0  0  0  0  0  0  0  0  0
   -0.8599  -51.5960  -16.9189 C   0  0  0  0  0  0  0  0  0  0  0  0
   -1.2735  -51.2240  -15.6940 F   0  0  0  0  0  0  0  0  0  0  0  0
   -0.0159  -50.7402  -17.5930 C   0  0  0  0  0  0  0  0  0  0  0  0
    0.4981  -49.2119  -16.8667 Cl  0  0  0  0  0  0  0  0  0  0  0  0
    0.4401  -51.0594  -18.8394 C   0  0  0  0  0  0  0  0  0  0  0  0
    2.9830  -51.8198  -25.0792 O   0  0  0  0  0  0  0  0  0  0  0  0
    4.2613  -52.3634  -25.0205 C   0  0  0  0  0  0  0  0  0  0  0  0
    4.8934  -52.2467  -23.6796 C   0  0  0  0  0  0  0  0  0  0  0  0
    6.0253  -51.2521  -23.6318 C   0  0  0  0  0  0  0  0  0  0  0  0
    5.8293  -50.2555  -22.4988 C   0  0  0  0  0  0  0  0  0  0  0  0
    4.4877  -49.7821  -22.4213 N   0  0  0  0  0  0  0  0  0  0  0  0
    3.9367  -48.9724  -23.3708 C   0  0  0  0  0  0  0  0  0  0  0  0
    4.5889  -48.4549  -24.5996 C   0  0  0  0  0  0  0  0  0  0  0  0
    2.6772  -48.7361  -22.9674 N   0  0  0  0  0  0  0  0  0  0  0  0
    2.4553  -49.3777  -21.8073 C   0  0  0  0  0  0  0  0  0  0  0  0
    3.6126  -50.0502  -21.4520 C   0  0  0  0  0  0  0  0  0  0  0  0
    3.7647  -50.8337  -20.3017 N   0  0  0  0  0  0  0  0  0  0  0  0
    3.4959  -52.1657  -20.2015 O   0  0  0  0  0  0  0  0  0  0  0  0
    4.1881  -50.3096  -19.2244 O   0  0  0  0  0  0  0  0  0  0  0  0
 11 12  1  0  0  0
 12  1  1  0  0  0
  1  2  2  0  0  0
  2  3  1  0  0  0
  3  4  2  0  0  0
  4  5  1  0  0  0
  5  6  2  0  0  0
  6  7  1  0  0  0
  7 13  1  0  0  0
 13 15  1  0  0  0
 15 16  2  0  0  0
 16 17  1  0  0  0
 17 18  2  0  0  0
 18 19  1  0  0  0
 18 20  1  0  0  0
 20 21  1  0  0  0
 20 22  2  0  0  0
  7  8  2  0  0  0
  8  9  1  0  0  0
  9 10  2  0  0  0
 10 23  1  0  0  0
 23 24  1  0  0  0
 24 25  1  0  0  0
 25 26  1  0  0  0
 26 27  1  0  0  0
 27 28  1  0  0  0
 28 29  1  0  0  0
 29 30  1  0  0  0
 29 31  2  0  0  0
 31 32  1  0  0  0
 32 33  2  0  0  0
 33 34  1  0  0  0
 34 35  1  0  0  0
 34 36  2  0  0  0
 10  1  1  0  0  0
 33 28  1  0  0  0
  8  3  1  0  0  0
 22 15  1  0  0  0
 13 14  1  0  0  0
M  CHG 1  34   1
M  CHG 1  35  -1
M  END
> <minimizedAffinity>
-7.28291

> <CNNscore>
0.7354637980

> <CNNaffinity>
7.6043395996

> <CNN_VS>
5.5927166939

> <CNNaffinity_variance>
0.1099812612

$$$$
[H]c1nc(N([H])c2c([H])c([H])c(F)c(Cl)c2[H])c2c([H])c(OC([H])([H])C([H])([H])C([H])([H])C([H])([H])n3c(C([H])([H])[H])nc([H])c3[N+](=O)[O-])c(OC([H])([H])[H])c([H])c2n1


 36 39  0  0  0  0  0  0  0  0999 V2000
    0.0921  -51.7224  -19.3498 C   0  0  0  0  0  0  0  0  0  0  0  0
   -0.4432  -52.9375  -19.7204 C   0  0  0  0  0  0  0  0  0  0  0  0
   -0.5214  -53.3084  -21.0451 C   0  0  0  0  0  0  0  0  0  0  0  0
   -1.0526  -54.5118  -21.3799 N   0  0  0  0  0  0  0  0  0  0  0  0
   -1.1037  -54.8237  -22.6849 C   0  0  0  0  0  0  0  0  0  0  0  0
   -0.6561  -53.9949  -23.6065 N   0  0  0  0  0  0  0  0  0  0  0  0
   -0.1201  -52.7904  -23.3328 C   0  0  0  0  0  0  0  0  0  0  0  0
   -0.0464  -52.4257  -22.0009 C   0  0  0  0  0  0  0  0  0  0  0  0
    0.4836  -51.2209  -21.6214 C   0  0  0  0  0  0  0  0  0  0  0  0
    0.5727  -50.8237  -20.2787 C   0  0  0  0  0  0  0  0  0  0  0  0
   -0.6997  -51.9633  -17.0884 C   0  0  0  0  0  0  0  0  0  0  0  0
    0.1656  -51.3605  -18.0186 O   0  0  0  0  0  0  0  0  0  0  0  0
    0.3094  -51.9340  -24.3566 N   0  0  0  0  0  0  0  0  0  0  0  0
    0.7708  -51.0073  -24.1559 H   0  0  0  0  0  0  0  0  0  0  0  0
    0.1767  -52.2166  -25.7497 C   0  0  0  0  0  0  0  0  0  0  0  0
    1.2378  -52.5091  -26.5500 C   0  0  0  0  0  0  0  0  0  0  0  0
    1.0294  -52.8101  -27.8900 C   0  0  0  0  0  0  0  0  0  0  0  0
   -0.2458  -52.8091  -28.3966 C   0  0  0  0  0  0  0  0  0  0  0  0
   -0.5027  -53.0935  -29.6862 F   0  0  0  0  0  0  0  0  0  0  0  0
   -1.3187  -52.5116  -27.5844 C   0  0  0  0  0  0  0  0  0  0  0  0
   -2.9678  -52.5058  -28.2231 Cl  0  0  0  0  0  0  0  0  0  0  0  0
   -1.1257  -52.2148  -26.2661 C   0  0  0  0  0  0  0  0  0  0  0  0
    1.1185  -49.5949  -19.9669 O   0  0  0  0  0  0  0  0  0  0  0  0
    1.9466  -48.9468  -20.8763 C   0  0  0  0  0  0  0  0  0  0  0  0
    2.5870  -47.7226  -20.3262 C   0  0  0  0  0  0  0  0  0  0  0  0
    3.1143  -47.8966  -18.9246 C   0  0  0  0  0  0  0  0  0  0  0  0
    3.4489  -46.5520  -18.2959 C   0  0  0  0  0  0  0  0  0  0  0  0
    4.7948  -46.4922  -17.8320 N   0  0  0  0  0  0  0  0  0  0  0  0
    5.1257  -46.6190  -16.5147 C   0  0  0  0  0  0  0  0  0  0  0  0
    4.2023  -46.8312  -15.3721 C   0  0  0  0  0  0  0  0  0  0  0  0
    6.4638  -46.5124  -16.4592 N   0  0  0  0  0  0  0  0  0  0  0  0
    6.9456  -46.3260  -17.7001 C   0  0  0  0  0  0  0  0  0  0  0  0
    5.8802  -46.3120  -18.5847 C   0  0  0  0  0  0  0  0  0  0  0  0
    5.9893  -46.1423  -19.9701 N   0  0  0  0  0  0  0  0  0  0  0  0
    6.3845  -47.0931  -20.8625 O   0  0  0  0  0  0  0  0  0  0  0  0
    5.7074  -45.0221  -20.4997 O   0  0  0  0  0  0  0  0  0  0  0  0
 11 12  1  0  0  0
 12  1  1  0  0  0
  1  2  2  0  0  0
  2  3  1  0  0  0
  3  4  2  0  0  0
  4  5  1  0  0  0
  5  6  2  0  0  0
  6  7  1  0  0  0
  7 13  1  0  0  0
 13 15  1  0  0  0
 15 16  2  0  0  0
 16 17  1  0  0  0
 17 18  2  0  0  0
 18 19  1  0  0  0
 18 20  1  0  0  0
 20 21  1  0  0  0
 20 22  2  0  0  0
  7  8  2  0  0  0
  8  9  1  0  0  0
  9 10  2  0  0  0
 10 23  1  0  0  0
 23 24  1  0  0  0
 24 25  1  0  0  0
 25 26  1  0  0  0
 26 27  1  0  0  0
 27 28  1  0  0  0
 28 29  1  0  0  0
 29 30  1  0  0  0
 29 31  2  0  0  0
 31 32  1  0  0  0
 32 33  2  0  0  0
 33 34  1  0  0  0
 34 35  1  0  0  0
 34 36  2  0  0  0
 10  1  1  0  0  0
 33 28  1  0  0  0
  8  3  1  0  0  0
 22 15  1  0  0  0
 13 14  1  0  0  0
M  CHG 1  34   1
M  CHG 1  35  -1
M  END
> <minimizedAffinity>
-7.19728

> <CNNscore>
0.7299154401

> <CNNaffinity>
7.4573531151

> <CNN_VS>
5.4432373047

> <CNNaffinity_variance>
0.3023906350

$$$$
[H]C([H])=C([H])C(=O)N([H])c1c([H])c([H])c([H])c(N2C(=O)N(c3c([H])c([H])c(OC([H])([H])c4c([H])c([H])c([H])c([H])c4[H])c([H])c3[H])C([H])([H])c3c([H])nc(N([H])c4c([H])c([H])c(N5C([H])([H])C([H])([H])N(C([H])([H])[H])C([H])([H])C5([H])[H])c([H])c4OC([H])([H])[H])nc32)c1[H]


 54 60  0  0  0  0  0  0  0  0999 V2000
    0.3831  -53.1203  -22.4612 C   0  0  0  0  0  0  0  0  0  0  0  0
   -0.4015  -54.0542  -21.9257 N   0  0  0  0  0  0  0  0  0  0  0  0
   -0.8669  -54.0951  -20.6826 C   0  0  0  0  0  0  0  0  0  0  0  0
   -0.5065  -53.0496  -19.8152 C   0  0  0  0  0  0  0  0  0  0  0  0
   -0.9956  -53.0462  -18.4312 C   0  0  0  0  0  0  0  0  0  0  0  0
   -0.5568  -51.9442  -17.6419 N   0  0  0  0  0  0  0  0  0  0  0  0
    0.2791  -50.9287  -18.1697 C   0  0  0  0  0  0  0  0  0  0  0  0
    0.6640  -49.9488  -17.4671 O   0  0  0  0  0  0  0  0  0  0  0  0
    0.7223  -50.9686  -19.5153 N   0  0  0  0  0  0  0  0  0  0  0  0
    0.2924  -52.0809  -20.3273 C   0  0  0  0  0  0  0  0  0  0  0  0
    0.7296  -52.1013  -21.6024 N   0  0  0  0  0  0  0  0  0  0  0  0
    1.5562  -49.9721  -20.0741 C   0  0  0  0  0  0  0  0  0  0  0  0
    1.0286  -48.9239  -20.7709 C   0  0  0  0  0  0  0  0  0  0  0  0
    1.8770  -47.9454  -21.3106 C   0  0  0  0  0  0  0  0  0  0  0  0
    3.2182  -48.0214  -21.1520 C   0  0  0  0  0  0  0  0  0  0  0  0
    3.7921  -49.0919  -20.4372 C   0  0  0  0  0  0  0  0  0  0  0  0
    2.9211  -50.0370  -19.9209 C   0  0  0  0  0  0  0  0  0  0  0  0
    5.1953  -49.1295  -20.3196 N   0  0  0  0  0  0  0  0  0  0  0  0
    6.0826  -49.9739  -20.9795 C   0  0  0  0  0  0  0  0  0  0  0  0
    5.6773  -50.8433  -21.7921 O   0  0  0  0  0  0  0  0  0  0  0  0
    5.6335  -48.4265  -19.6511 H   0  0  0  0  0  0  0  0  0  0  0  0
    7.5359  -49.9153  -20.7801 C   0  0  0  0  0  0  0  0  0  0  0  0
    8.1270  -49.0835  -19.9536 C   0  0  0  0  0  0  0  0  0  0  0  0
   -0.9456  -51.8069  -16.2622 C   0  0  0  0  0  0  0  0  0  0  0  0
   -0.0201  -51.9574  -15.2428 C   0  0  0  0  0  0  0  0  0  0  0  0
   -0.4408  -51.8205  -13.9372 C   0  0  0  0  0  0  0  0  0  0  0  0
   -1.7588  -51.5365  -13.6006 C   0  0  0  0  0  0  0  0  0  0  0  0
   -2.6620  -51.3905  -14.6257 C   0  0  0  0  0  0  0  0  0  0  0  0
   -2.2534  -51.5255  -15.9381 C   0  0  0  0  0  0  0  0  0  0  0  0
   -2.1276  -51.4093  -12.2487 O   0  0  0  0  0  0  0  0  0  0  0  0
   -3.3523  -52.0003  -11.8163 C   0  0  0  0  0  0  0  0  0  0  0  0
   -3.1776  -53.4668  -11.7208 C   0  0  0  0  0  0  0  0  0  0  0  0
   -4.1538  -54.3255  -12.2211 C   0  0  0  0  0  0  0  0  0  0  0  0
   -3.9864  -55.6897  -12.1307 C   0  0  0  0  0  0  0  0  0  0  0  0
   -2.8366  -56.1742  -11.5373 C   0  0  0  0  0  0  0  0  0  0  0  0
   -1.8674  -55.3168  -11.0410 C   0  0  0  0  0  0  0  0  0  0  0  0
   -2.0397  -53.9516  -11.1338 C   0  0  0  0  0  0  0  0  0  0  0  0
    0.8760  -53.0883  -23.7811 N   0  0  0  0  0  0  0  0  0  0  0  0
    0.4740  -53.8796  -24.4054 H   0  0  0  0  0  0  0  0  0  0  0  0
    1.3192  -51.3131  -25.3566 C   0  0  0  0  0  0  0  0  0  0  0  0
    2.1520  -50.4032  -25.9524 C   0  0  0  0  0  0  0  0  0  0  0  0
    3.4830  -50.2909  -25.6190 C   0  0  0  0  0  0  0  0  0  0  0  0
    3.9588  -51.1314  -24.6564 C   0  0  0  0  0  0  0  0  0  0  0  0
    3.1084  -52.0690  -24.0395 C   0  0  0  0  0  0  0  0  0  0  0  0
    1.7864  -52.1891  -24.3619 C   0  0  0  0  0  0  0  0  0  0  0  0
    4.2862  -49.3158  -26.2676 N   0  0  0  0  0  0  0  0  0  0  0  0
    3.9769  -48.8167  -27.5918 C   0  0  0  0  0  0  0  0  0  0  0  0
    4.4015  -47.4180  -27.8513 C   0  0  0  0  0  0  0  0  0  0  0  0
    5.0404  -46.7004  -26.8300 N   0  0  0  0  0  0  0  0  0  0  0  0
    6.0343  -45.7600  -27.2280 C   0  0  0  0  0  0  0  0  0  0  0  0
    5.1759  -47.2608  -25.5466 C   0  0  0  0  0  0  0  0  0  0  0  0
    5.4746  -48.7608  -25.6497 C   0  0  0  0  0  0  0  0  0  0  0  0
   -0.4568  -52.0825  -26.8647 C   0  0  0  0  0  0  0  0  0  0  0  0
   -0.0344  -51.4021  -25.7211 O   0  0  0  0  0  0  0  0  0  0  0  0
 53 54  1  0  0  0
 54 40  1  0  0  0
 40 41  2  0  0  0
 41 42  1  0  0  0
 42 43  2  0  0  0
 43 44  1  0  0  0
 44 45  2  0  0  0
 45 38  1  0  0  0
 38  1  1  0  0  0
  1  2  2  0  0  0
  2  3  1  0  0  0
  3  4  2  0  0  0
  4  5  1  0  0  0
  5  6  1  0  0  0
  6  7  1  0  0  0
  7  8  2  0  0  0
  7  9  1  0  0  0
  9 12  1  0  0  0
 12 13  2  0  0  0
 13 14  1  0  0  0
 14 15  2  0  0  0
 15 16  1  0  0  0
 16 18  1  0  0  0
 18 19  1  0  0  0
 19 20  2  0  0  0
 19 22  1  0  0  0
 22 23  2  0  0  0
 16 17  2  0  0  0
  9 10  1  0  0  0
 10 11  2  0  0  0
  6 24  1  0  0  0
 24 25  2  0  0  0
 25 26  1  0  0  0
 26 27  2  0  0  0
 27 30  1  0  0  0
 30 31  1  0  0  0
 31 32  1  0  0  0
 32 33  2  0  0  0
 33 34  1  0  0  0
 34 35  2  0  0  0
 35 36  1  0  0  0
 36 37  2  0  0  0
 27 28  1  0  0  0
 28 29  2  0  0  0
 42 46  1  0  0  0
 46 47  1  0  0  0
 47 48  1  0  0  0
 48 49  1  0  0  0
 49 50  1  0  0  0
 49 51  1  0  0  0
 51 52  1  0  0  0
 45 40  1  0  0  0
 11  1  1  0  0  0
 29 24  1  0  0  0
 52 46  1  0  0  0
 10  4  1  0  0  0
 37 32  1  0  0  0
 17 12  1  0  0  0
 38 39  1  0  0  0
 18 21  1  0  0  0
M  END
> <minimizedAffinity>
-8.73895

> <CNNscore>
0.1650152802

> <CNNaffinity>
7.3725867271

> <CNN_VS>
1.2165894508

> <CNNaffinity_variance>
0.1396800131

$$$$
[H]C([H])=C([H])C(=O)N([H])c1c([H])c([H])c([H])c(N2C(=O)N(c3c([H])c([H])c(OC([H])([H])c4c([H])c([H])c([H])c([H])c4[H])c([H])c3[H])C([H])([H])c3c([H])nc(N([H])c4c([H])c([H])c(N5C([H])([H])C([H])([H])N(C([H])([H])[H])C([H])([H])C5([H])[H])c([H])c4OC([H])([H])[H])nc32)c1[H]


 54 60  0  0  0  0  0  0  0  0999 V2000
    1.7617  -51.9874  -22.0811 C   0  0  0  0  0  0  0  0  0  0  0  0
    1.3931  -52.4098  -23.2895 N   0  0  0  0  0  0  0  0  0  0  0  0
    1.5932  -51.7958  -24.4499 C   0  0  0  0  0  0  0  0  0  0  0  0
    2.2659  -50.5619  -24.4286 C   0  0  0  0  0  0  0  0  0  0  0  0
    2.5143  -49.8428  -25.6841 C   0  0  0  0  0  0  0  0  0  0  0  0
    3.1932  -48.5986  -25.5393 N   0  0  0  0  0  0  0  0  0  0  0  0
    3.6027  -48.1099  -24.2735 C   0  0  0  0  0  0  0  0  0  0  0  0
    4.2092  -47.0061  -24.1486 O   0  0  0  0  0  0  0  0  0  0  0  0
    3.3479  -48.8417  -23.0868 N   0  0  0  0  0  0  0  0  0  0  0  0
    2.6558  -50.1011  -23.2144 C   0  0  0  0  0  0  0  0  0  0  0  0
    2.4198  -50.7779  -22.0726 N   0  0  0  0  0  0  0  0  0  0  0  0
    3.7428  -48.3838  -21.8081 C   0  0  0  0  0  0  0  0  0  0  0  0
    2.9160  -47.6009  -21.0558 C   0  0  0  0  0  0  0  0  0  0  0  0
    3.3289  -47.1643  -19.7880 C   0  0  0  0  0  0  0  0  0  0  0  0
    4.5402  -47.5075  -19.2931 C   0  0  0  0  0  0  0  0  0  0  0  0
    5.4156  -48.3150  -20.0466 C   0  0  0  0  0  0  0  0  0  0  0  0
    4.9712  -48.7247  -21.2928 C   0  0  0  0  0  0  0  0  0  0  0  0
    6.6713  -48.6254  -19.4888 N   0  0  0  0  0  0  0  0  0  0  0  0
    7.8448  -47.8821  -19.5673 C   0  0  0  0  0  0  0  0  0  0  0  0
    7.8892  -46.7931  -20.1939 O   0  0  0  0  0  0  0  0  0  0  0  0
    6.7329  -49.5333  -18.9365 H   0  0  0  0  0  0  0  0  0  0  0  0
    9.1002  -48.3060  -18.9352 C   0  0  0  0  0  0  0  0  0  0  0  0
    9.5482  -49.5402  -18.9559 C   0  0  0  0  0  0  0  0  0  0  0  0
    3.5000  -47.7737  -26.6790 C   0  0  0  0  0  0  0  0  0  0  0  0
    2.7427  -46.6512  -26.9706 C   0  0  0  0  0  0  0  0  0  0  0  0
    3.0729  -45.8948  -28.0748 C   0  0  0  0  0  0  0  0  0  0  0  0
    4.1374  -46.2127  -28.9096 C   0  0  0  0  0  0  0  0  0  0  0  0
    4.8769  -47.3296  -28.6037 C   0  0  0  0  0  0  0  0  0  0  0  0
    4.5563  -48.0961  -27.5004 C   0  0  0  0  0  0  0  0  0  0  0  0
    4.4245  -45.4016  -30.0229 O   0  0  0  0  0  0  0  0  0  0  0  0
    5.1270  -45.9765  -31.1238 C   0  0  0  0  0  0  0  0  0  0  0  0
    4.2853  -45.8872  -32.3379 C   0  0  0  0  0  0  0  0  0  0  0  0
    4.6688  -45.0733  -33.4013 C   0  0  0  0  0  0  0  0  0  0  0  0
    3.8826  -44.9941  -34.5296 C   0  0  0  0  0  0  0  0  0  0  0  0
    2.7183  -45.7366  -34.5743 C   0  0  0  0  0  0  0  0  0  0  0  0
    2.3402  -46.5456  -33.5144 C   0  0  0  0  0  0  0  0  0  0  0  0
    3.1306  -46.6213  -32.3868 C   0  0  0  0  0  0  0  0  0  0  0  0
    1.5402  -52.6444  -20.8542 N   0  0  0  0  0  0  0  0  0  0  0  0
    1.9246  -53.6591  -20.8386 H   0  0  0  0  0  0  0  0  0  0  0  0
   -0.2636  -52.7987  -19.2566 C   0  0  0  0  0  0  0  0  0  0  0  0
   -0.9188  -52.3855  -18.1267 C   0  0  0  0  0  0  0  0  0  0  0  0
   -0.4753  -51.3323  -17.3590 C   0  0  0  0  0  0  0  0  0  0  0  0
    0.6612  -50.6980  -17.7658 C   0  0  0  0  0  0  0  0  0  0  0  0
    1.3400  -51.1175  -18.9261 C   0  0  0  0  0  0  0  0  0  0  0  0
    0.9095  -52.1612  -19.6952 C   0  0  0  0  0  0  0  0  0  0  0  0
   -1.1964  -50.9657  -16.1919 N   0  0  0  0  0  0  0  0  0  0  0  0
   -1.0127  -49.6850  -15.5407 C   0  0  0  0  0  0  0  0  0  0  0  0
   -2.2118  -49.1571  -14.8424 C   0  0  0  0  0  0  0  0  0  0  0  0
   -3.3984  -49.9037  -14.8694 N   0  0  0  0  0  0  0  0  0  0  0  0
   -4.2299  -49.8338  -13.7144 C   0  0  0  0  0  0  0  0  0  0  0  0
   -3.4803  -51.0786  -15.6392 C   0  0  0  0  0  0  0  0  0  0  0  0
   -2.1594  -51.8534  -15.5699 C   0  0  0  0  0  0  0  0  0  0  0  0
   -1.7581  -53.7288  -20.9659 C   0  0  0  0  0  0  0  0  0  0  0  0
   -0.7440  -53.8770  -20.0180 O   0  0  0  0  0  0  0  0  0  0  0  0
 53 54  1  0  0  0
 54 40  1  0  0  0
 40 41  2  0  0  0
 41 42  1  0  0  0
 42 43  2  0  0  0
 43 44  1  0  0  0
 44 45  2  0  0  0
 45 38  1  0  0  0
 38  1  1  0  0  0
  1  2  2  0  0  0
  2  3  1  0  0  0
  3  4  2  0  0  0
  4  5  1  0  0  0
  5  6  1  0  0  0
  6  7  1  0  0  0
  7  8  2  0  0  0
  7  9  1  0  0  0
  9 12  1  0  0  0
 12 13  2  0  0  0
 13 14  1  0  0  0
 14 15  2  0  0  0
 15 16  1  0  0  0
 16 18  1  0  0  0
 18 19  1  0  0  0
 19 20  2  0  0  0
 19 22  1  0  0  0
 22 23  2  0  0  0
 16 17  2  0  0  0
  9 10  1  0  0  0
 10 11  2  0  0  0
  6 24  1  0  0  0
 24 25  2  0  0  0
 25 26  1  0  0  0
 26 27  2  0  0  0
 27 30  1  0  0  0
 30 31  1  0  0  0
 31 32  1  0  0  0
 32 33  2  0  0  0
 33 34  1  0  0  0
 34 35  2  0  0  0
 35 36  1  0  0  0
 36 37  2  0  0  0
 27 28  1  0  0  0
 28 29  2  0  0  0
 42 46  1  0  0  0
 46 47  1  0  0  0
 47 48  1  0  0  0
 48 49  1  0  0  0
 49 50  1  0  0  0
 49 51  1  0  0  0
 51 52  1  0  0  0
 45 40  1  0  0  0
 11  1  1  0  0  0
 29 24  1  0  0  0
 52 46  1  0  0  0
 10  4  1  0  0  0
 37 32  1  0  0  0
 17 12  1  0  0  0
 38 39  1  0  0  0
 18 21  1  0  0  0
M  END
> <minimizedAffinity>
-8.31395

> <CNNscore>
0.0512051173

> <CNNaffinity>
6.6898078918

> <CNN_VS>
0.3425523937

> <CNNaffinity_variance>
0.2923163474

$$$$
[H]C([H])=C([H])C(=O)N([H])c1c([H])c([H])c([H])c(N2C(=O)N(c3c([H])c([H])c(OC([H])([H])c4c([H])c([H])c([H])c([H])c4[H])c([H])c3[H])C([H])([H])c3c([H])nc(N([H])c4c([H])c([H])c(N5C([H])([H])C([H])([H])N(C([H])([H])[H])C([H])([H])C5([H])[H])c([H])c4OC([H])([H])[H])nc32)c1[H]


 54 60  0  0  0  0  0  0  0  0999 V2000
    1.9101  -51.8613  -21.4023 C   0  0  0  0  0  0  0  0  0  0  0  0
    1.4140  -52.2514  -22.5754 N   0  0  0  0  0  0  0  0  0  0  0  0
    1.5560  -51.6450  -23.7483 C   0  0  0  0  0  0  0  0  0  0  0  0
    2.3081  -50.4582  -23.7835 C   0  0  0  0  0  0  0  0  0  0  0  0
    2.4971  -49.7496  -25.0551 C   0  0  0  0  0  0  0  0  0  0  0  0
    3.2665  -48.5537  -24.9676 N   0  0  0  0  0  0  0  0  0  0  0  0
    3.8123  -48.1005  -23.7407 C   0  0  0  0  0  0  0  0  0  0  0  0
    4.4989  -47.0398  -23.6669 O   0  0  0  0  0  0  0  0  0  0  0  0
    3.6105  -48.8209  -22.5370 N   0  0  0  0  0  0  0  0  0  0  0  0
    2.8284  -50.0313  -22.6063 C   0  0  0  0  0  0  0  0  0  0  0  0
    2.6450  -50.6978  -21.4488 N   0  0  0  0  0  0  0  0  0  0  0  0
    4.1409  -48.3976  -21.2960 C   0  0  0  0  0  0  0  0  0  0  0  0
    3.4896  -47.4731  -20.5321 C   0  0  0  0  0  0  0  0  0  0  0  0
    4.0338  -47.0739  -19.3021 C   0  0  0  0  0  0  0  0  0  0  0  0
    5.2007  -47.5922  -18.8552 C   0  0  0  0  0  0  0  0  0  0  0  0
    5.8959  -48.5488  -19.6218 C   0  0  0  0  0  0  0  0  0  0  0  0
    5.3260  -48.9159  -20.8297 C   0  0  0  0  0  0  0  0  0  0  0  0
    7.1151  -49.0402  -19.1155 N   0  0  0  0  0  0  0  0  0  0  0  0
    8.4023  -48.7198  -19.5356 C   0  0  0  0  0  0  0  0  0  0  0  0
    8.6012  -47.9094  -20.4759 O   0  0  0  0  0  0  0  0  0  0  0  0
    7.0485  -49.7360  -18.3127 H   0  0  0  0  0  0  0  0  0  0  0  0
    9.6064  -49.2944  -18.9231 C   0  0  0  0  0  0  0  0  0  0  0  0
   10.6670  -48.5917  -18.5979 C   0  0  0  0  0  0  0  0  0  0  0  0
    3.5302  -47.7440  -26.1288 C   0  0  0  0  0  0  0  0  0  0  0  0
    2.8237  -46.5749  -26.3576 C   0  0  0  0  0  0  0  0  0  0  0  0
    3.1093  -45.8352  -27.4853 C   0  0  0  0  0  0  0  0  0  0  0  0
    4.0796  -46.2151  -28.4046 C   0  0  0  0  0  0  0  0  0  0  0  0
    4.7700  -47.3777  -28.1602 C   0  0  0  0  0  0  0  0  0  0  0  0
    4.4933  -48.1280  -27.0341 C   0  0  0  0  0  0  0  0  0  0  0  0
    4.3251  -45.4181  -29.5379 O   0  0  0  0  0  0  0  0  0  0  0  0
    3.2336  -45.1040  -30.4014 C   0  0  0  0  0  0  0  0  0  0  0  0
    3.3402  -45.9150  -31.6349 C   0  0  0  0  0  0  0  0  0  0  0  0
    2.2985  -46.7584  -32.0143 C   0  0  0  0  0  0  0  0  0  0  0  0
    2.4019  -47.5106  -33.1635 C   0  0  0  0  0  0  0  0  0  0  0  0
    3.5541  -47.4045  -33.9186 C   0  0  0  0  0  0  0  0  0  0  0  0
    4.5883  -46.5640  -33.5380 C   0  0  0  0  0  0  0  0  0  0  0  0
    4.4800  -45.8130  -32.3864 C   0  0  0  0  0  0  0  0  0  0  0  0
    1.7496  -52.5096  -20.1613 N   0  0  0  0  0  0  0  0  0  0  0  0
    2.4514  -53.3237  -20.0118 H   0  0  0  0  0  0  0  0  0  0  0  0
    1.1209  -51.2003  -18.2324 C   0  0  0  0  0  0  0  0  0  0  0  0
    0.2588  -50.8750  -17.2188 C   0  0  0  0  0  0  0  0  0  0  0  0
   -0.9333  -51.5350  -17.0225 C   0  0  0  0  0  0  0  0  0  0  0  0
   -1.2374  -52.5453  -17.8863 C   0  0  0  0  0  0  0  0  0  0  0  0
   -0.3561  -52.8850  -18.9307 C   0  0  0  0  0  0  0  0  0  0  0  0
    0.8289  -52.2369  -19.1353 C   0  0  0  0  0  0  0  0  0  0  0  0
   -1.7860  -51.1365  -15.9592 N   0  0  0  0  0  0  0  0  0  0  0  0
   -1.5959  -49.8932  -15.2408 C   0  0  0  0  0  0  0  0  0  0  0  0
   -2.8374  -49.2810  -14.7043 C   0  0  0  0  0  0  0  0  0  0  0  0
   -4.0643  -49.9211  -14.9306 N   0  0  0  0  0  0  0  0  0  0  0  0
   -5.0484  -49.8083  -13.9063 C   0  0  0  0  0  0  0  0  0  0  0  0
   -4.1280  -51.0649  -15.7474 C   0  0  0  0  0  0  0  0  0  0  0  0
   -2.8997  -51.9527  -15.5167 C   0  0  0  0  0  0  0  0  0  0  0  0
    3.4611  -50.7744  -17.6303 C   0  0  0  0  0  0  0  0  0  0  0  0
    2.3303  -50.5068  -18.4041 O   0  0  0  0  0  0  0  0  0  0  0  0
 53 54  1  0  0  0
 54 40  1  0  0  0
 40 41  2  0  0  0
 41 42  1  0  0  0
 42 43  2  0  0  0
 43 44  1  0  0  0
 44 45  2  0  0  0
 45 38  1  0  0  0
 38  1  1  0  0  0
  1  2  2  0  0  0
  2  3  1  0  0  0
  3  4  2  0  0  0
  4  5  1  0  0  0
  5  6  1  0  0  0
  6  7  1  0  0  0
  7  8  2  0  0  0
  7  9  1  0  0  0
  9 12  1  0  0  0
 12 13  2  0  0  0
 13 14  1  0  0  0
 14 15  2  0  0  0
 15 16  1  0  0  0
 16 18  1  0  0  0
 18 19  1  0  0  0
 19 20  2  0  0  0
 19 22  1  0  0  0
 22 23  2  0  0  0
 16 17  2  0  0  0
  9 10  1  0  0  0
 10 11  2  0  0  0
  6 24  1  0  0  0
 24 25  2  0  0  0
 25 26  1  0  0  0
 26 27  2  0  0  0
 27 30  1  0  0  0
 30 31  1  0  0  0
 31 32  1  0  0  0
 32 33  2  0  0  0
 33 34  1  0  0  0
 34 35  2  0  0  0
 35 36  1  0  0  0
 36 37  2  0  0  0
 27 28  1  0  0  0
 28 29  2  0  0  0
 42 46  1  0  0  0
 46 47  1  0  0  0
 47 48  1  0  0  0
 48 49  1  0  0  0
 49 50  1  0  0  0
 49 51  1  0  0  0
 51 52  1  0  0  0
 45 40  1  0  0  0
 11  1  1  0  0  0
 29 24  1  0  0  0
 52 46  1  0  0  0
 10  4  1  0  0  0
 37 32  1  0  0  0
 17 12  1  0  0  0
 38 39  1  0  0  0
 18 21  1  0  0  0
M  END
> <minimizedAffinity>
-8.07622

> <CNNscore>
0.0390011854

> <CNNaffinity>
6.5565109253

> <CNN_VS>
0.2557117045

> <CNNaffinity_variance>
0.2728448808

$$$$
[H]C([H])=C([H])C(=O)N([H])c1c([H])c([H])c([H])c(N2C(=O)N(c3c([H])c([H])c(OC([H])([H])c4c([H])c([H])c([H])c([H])c4[H])c([H])c3[H])C([H])([H])c3c([H])nc(N([H])c4c([H])c([H])c(N5C([H])([H])C([H])([H])N(C([H])([H])[H])C([H])([H])C5([H])[H])c([H])c4OC([H])([H])[H])nc32)c1[H]


 54 60  0  0  0  0  0  0  0  0999 V2000
    5.2540  -48.1359  -25.3339 C   0  0  0  0  0  0  0  0  0  0  0  0
    4.0670  -48.5349  -25.7881 N   0  0  0  0  0  0  0  0  0  0  0  0
    3.1063  -49.1402  -25.0994 C   0  0  0  0  0  0  0  0  0  0  0  0
    3.3429  -49.4008  -23.7387 C   0  0  0  0  0  0  0  0  0  0  0  0
    2.3128  -50.0662  -22.9318 C   0  0  0  0  0  0  0  0  0  0  0  0
    2.6675  -50.2886  -21.5699 N   0  0  0  0  0  0  0  0  0  0  0  0
    3.9193  -49.8821  -21.0444 C   0  0  0  0  0  0  0  0  0  0  0  0
    4.2299  -50.0775  -19.8330 O   0  0  0  0  0  0  0  0  0  0  0  0
    4.8823  -49.2358  -21.8590 N   0  0  0  0  0  0  0  0  0  0  0  0
    4.5421  -49.0080  -23.2424 C   0  0  0  0  0  0  0  0  0  0  0  0
    5.4745  -48.3963  -23.9999 N   0  0  0  0  0  0  0  0  0  0  0  0
    6.1405  -48.8167  -21.3671 C   0  0  0  0  0  0  0  0  0  0  0  0
    7.2206  -49.6505  -21.3989 C   0  0  0  0  0  0  0  0  0  0  0  0
    8.4593  -49.2090  -20.9099 C   0  0  0  0  0  0  0  0  0  0  0  0
    8.6048  -47.9629  -20.4039 C   0  0  0  0  0  0  0  0  0  0  0  0
    7.5078  -47.0794  -20.3581 C   0  0  0  0  0  0  0  0  0  0  0  0
    6.3026  -47.5532  -20.8498 C   0  0  0  0  0  0  0  0  0  0  0  0
    7.7132  -45.8009  -19.8036 N   0  0  0  0  0  0  0  0  0  0  0  0
    7.9405  -44.6062  -20.4797 C   0  0  0  0  0  0  0  0  0  0  0  0
    7.9916  -44.5642  -21.7351 O   0  0  0  0  0  0  0  0  0  0  0  0
    7.6874  -45.7355  -18.7415 H   0  0  0  0  0  0  0  0  0  0  0  0
    8.1352  -43.3250  -19.7900 C   0  0  0  0  0  0  0  0  0  0  0  0
    7.2283  -42.7619  -19.0251 C   0  0  0  0  0  0  0  0  0  0  0  0
    1.7649  -50.9390  -20.6557 C   0  0  0  0  0  0  0  0  0  0  0  0
    1.5153  -52.2984  -20.7469 C   0  0  0  0  0  0  0  0  0  0  0  0
    0.6405  -52.8754  -19.8514 C   0  0  0  0  0  0  0  0  0  0  0  0
   -0.0031  -52.1476  -18.8578 C   0  0  0  0  0  0  0  0  0  0  0  0
    0.2575  -50.8005  -18.7831 C   0  0  0  0  0  0  0  0  0  0  0  0
    1.1318  -50.2101  -19.6746 C   0  0  0  0  0  0  0  0  0  0  0  0
   -0.8865  -52.7934  -17.9733 O   0  0  0  0  0  0  0  0  0  0  0  0
   -0.8455  -52.4436  -16.5906 C   0  0  0  0  0  0  0  0  0  0  0  0
   -2.1486  -51.8626  -16.1970 C   0  0  0  0  0  0  0  0  0  0  0  0
   -3.3353  -52.5242  -16.5045 C   0  0  0  0  0  0  0  0  0  0  0  0
   -4.5457  -51.9799  -16.1355 C   0  0  0  0  0  0  0  0  0  0  0  0
   -4.5472  -50.7748  -15.4598 C   0  0  0  0  0  0  0  0  0  0  0  0
   -3.3644  -50.1197  -15.1553 C   0  0  0  0  0  0  0  0  0  0  0  0
   -2.1551  -50.6686  -15.5271 C   0  0  0  0  0  0  0  0  0  0  0  0
    6.2694  -47.4982  -26.0744 N   0  0  0  0  0  0  0  0  0  0  0  0
    6.7927  -46.7335  -25.5095 H   0  0  0  0  0  0  0  0  0  0  0  0
    5.9576  -47.0947  -28.4345 C   0  0  0  0  0  0  0  0  0  0  0  0
    6.3063  -47.2650  -29.7483 C   0  0  0  0  0  0  0  0  0  0  0  0
    7.3639  -48.0568  -30.1352 C   0  0  0  0  0  0  0  0  0  0  0  0
    8.0701  -48.6810  -29.1498 C   0  0  0  0  0  0  0  0  0  0  0  0
    7.7175  -48.5103  -27.7972 C   0  0  0  0  0  0  0  0  0  0  0  0
    6.6706  -47.7270  -27.4016 C   0  0  0  0  0  0  0  0  0  0  0  0
    7.6783  -48.1781  -31.5147 N   0  0  0  0  0  0  0  0  0  0  0  0
    6.7054  -48.6194  -32.4929 C   0  0  0  0  0  0  0  0  0  0  0  0
    6.8899  -48.0646  -33.8575 C   0  0  0  0  0  0  0  0  0  0  0  0
    7.9490  -47.1764  -34.0932 N   0  0  0  0  0  0  0  0  0  0  0  0
    8.5582  -47.2274  -35.3804 C   0  0  0  0  0  0  0  0  0  0  0  0
    8.7545  -46.7337  -33.0280 C   0  0  0  0  0  0  0  0  0  0  0  0
    8.9976  -47.8754  -32.0344 C   0  0  0  0  0  0  0  0  0  0  0  0
    4.8662  -44.9016  -28.2955 C   0  0  0  0  0  0  0  0  0  0  0  0
    4.8717  -46.2799  -28.0739 O   0  0  0  0  0  0  0  0  0  0  0  0
 53 54  1  0  0  0
 54 40  1  0  0  0
 40 41  2  0  0  0
 41 42  1  0  0  0
 42 43  2  0  0  0
 43 44  1  0  0  0
 44 45  2  0  0  0
 45 38  1  0  0  0
 38  1  1  0  0  0
  1  2  2  0  0  0
  2  3  1  0  0  0
  3  4  2  0  0  0
  4  5  1  0  0  0
  5  6  1  0  0  0
  6  7  1  0  0  0
  7  8  2  0  0  0
  7  9  1  0  0  0
  9 12  1  0  0  0
 12 13  2  0  0  0
 13 14  1  0  0  0
 14 15  2  0  0  0
 15 16  1  0  0  0
 16 18  1  0  0  0
 18 19  1  0  0  0
 19 20  2  0  0  0
 19 22  1  0  0  0
 22 23  2  0  0  0
 16 17  2  0  0  0
  9 10  1  0  0  0
 10 11  2  0  0  0
  6 24  1  0  0  0
 24 25  2  0  0  0
 25 26  1  0  0  0
 26 27  2  0  0  0
 27 30  1  0  0  0
 30 31  1  0  0  0
 31 32  1  0  0  0
 32 33  2  0  0  0
 33 34  1  0  0  0
 34 35  2  0  0  0
 35 36  1  0  0  0
 36 37  2  0  0  0
 27 28  1  0  0  0
 28 29  2  0  0  0
 42 46  1  0  0  0
 46 47  1  0  0  0
 47 48  1  0  0  0
 48 49  1  0  0  0
 49 50  1  0  0  0
 49 51  1  0  0  0
 51 52  1  0  0  0
 45 40  1  0  0  0
 11  1  1  0  0  0
 29 24  1  0  0  0
 52 46  1  0  0  0
 10  4  1  0  0  0
 37 32  1  0  0  0
 17 12  1  0  0  0
 38 39  1  0  0  0
 18 21  1  0  0  0
M  END
> <minimizedAffinity>
-7.15433

> <CNNscore>
0.0389008224

> <CNNaffinity>
6.5632767677

> <CNN_VS>
0.2553168535

> <CNNaffinity_variance>
0.4275045991

$$$$
[H]C([H])=C([H])C(=O)N([H])c1c([H])c([H])c([H])c(N2C(=O)N(c3c([H])c([H])c(OC([H])([H])c4c([H])c([H])c([H])c([H])c4[H])c([H])c3[H])C([H])([H])c3c([H])nc(N([H])c4c([H])c([H])c(N5C([H])([H])C([H])([H])N(C([H])([H])[H])C([H])([H])C5([H])[H])c([H])c4OC([H])([H])[H])nc32)c1[H]


 54 60  0  0  0  0  0  0  0  0999 V2000
    2.4542  -49.2366  -21.5662 C   0  0  0  0  0  0  0  0  0  0  0  0
    2.7337  -48.3639  -20.5994 N   0  0  0  0  0  0  0  0  0  0  0  0
    2.3245  -48.4066  -19.3367 C   0  0  0  0  0  0  0  0  0  0  0  0
    1.5043  -49.4809  -18.9518 C   0  0  0  0  0  0  0  0  0  0  0  0
    1.0260  -49.5763  -17.5672 C   0  0  0  0  0  0  0  0  0  0  0  0
    0.1931  -50.6998  -17.2955 N   0  0  0  0  0  0  0  0  0  0  0  0
   -0.1313  -51.6524  -18.2935 C   0  0  0  0  0  0  0  0  0  0  0  0
   -0.8682  -52.6517  -18.0481 O   0  0  0  0  0  0  0  0  0  0  0  0
    0.3590  -51.5245  -19.6171 N   0  0  0  0  0  0  0  0  0  0  0  0
    1.1990  -50.3891  -19.9114 C   0  0  0  0  0  0  0  0  0  0  0  0
    1.6501  -50.2847  -21.1775 N   0  0  0  0  0  0  0  0  0  0  0  0
    0.0554  -52.4565  -20.6369 C   0  0  0  0  0  0  0  0  0  0  0  0
    0.0211  -53.7959  -20.3772 C   0  0  0  0  0  0  0  0  0  0  0  0
   -0.2882  -54.6996  -21.4049 C   0  0  0  0  0  0  0  0  0  0  0  0
   -0.5555  -54.2653  -22.6578 C   0  0  0  0  0  0  0  0  0  0  0  0
   -0.5280  -52.8883  -22.9562 C   0  0  0  0  0  0  0  0  0  0  0  0
   -0.2181  -52.0291  -21.9148 C   0  0  0  0  0  0  0  0  0  0  0  0
   -0.7963  -52.4951  -24.2820 N   0  0  0  0  0  0  0  0  0  0  0  0
    0.0939  -52.4381  -25.3497 C   0  0  0  0  0  0  0  0  0  0  0  0
    1.3038  -52.7498  -25.2105 O   0  0  0  0  0  0  0  0  0  0  0  0
   -1.7994  -52.2118  -24.4982 H   0  0  0  0  0  0  0  0  0  0  0  0
   -0.3052  -52.0162  -26.6981 C   0  0  0  0  0  0  0  0  0  0  0  0
   -1.2146  -52.6328  -27.4173 C   0  0  0  0  0  0  0  0  0  0  0  0
   -0.3608  -50.9245  -15.9854 C   0  0  0  0  0  0  0  0  0  0  0  0
    0.2842  -51.7390  -15.0694 C   0  0  0  0  0  0  0  0  0  0  0  0
   -0.2870  -51.9268  -13.8289 C   0  0  0  0  0  0  0  0  0  0  0  0
   -1.4863  -51.3308  -13.4582 C   0  0  0  0  0  0  0  0  0  0  0  0
   -2.1108  -50.5261  -14.3804 C   0  0  0  0  0  0  0  0  0  0  0  0
   -1.5493  -50.3300  -15.6269 C   0  0  0  0  0  0  0  0  0  0  0  0
   -2.0199  -51.5616  -12.1769 O   0  0  0  0  0  0  0  0  0  0  0  0
   -2.3468  -52.8995  -11.8040 C   0  0  0  0  0  0  0  0  0  0  0  0
   -3.7827  -53.1412  -12.0690 C   0  0  0  0  0  0  0  0  0  0  0  0
   -4.2211  -54.3999  -12.4741 C   0  0  0  0  0  0  0  0  0  0  0  0
   -5.5585  -54.6203  -12.7188 C   0  0  0  0  0  0  0  0  0  0  0  0
   -6.4403  -53.5698  -12.5520 C   0  0  0  0  0  0  0  0  0  0  0  0
   -6.0005  -52.3190  -12.1485 C   0  0  0  0  0  0  0  0  0  0  0  0
   -4.6603  -52.1032  -11.9049 C   0  0  0  0  0  0  0  0  0  0  0  0
    2.8896  -49.1799  -22.9053 N   0  0  0  0  0  0  0  0  0  0  0  0
    2.0723  -49.1326  -23.6176 H   0  0  0  0  0  0  0  0  0  0  0  0
    4.7109  -47.9765  -23.9370 C   0  0  0  0  0  0  0  0  0  0  0  0
    5.9870  -47.9009  -24.4294 C   0  0  0  0  0  0  0  0  0  0  0  0
    6.8411  -48.9806  -24.4370 C   0  0  0  0  0  0  0  0  0  0  0  0
    6.3685  -50.1543  -23.9286 C   0  0  0  0  0  0  0  0  0  0  0  0
    5.0580  -50.2392  -23.4205 C   0  0  0  0  0  0  0  0  0  0  0  0
    4.2020  -49.1746  -23.4075 C   0  0  0  0  0  0  0  0  0  0  0  0
    8.1561  -48.8280  -24.9507 N   0  0  0  0  0  0  0  0  0  0  0  0
    8.5540  -49.3766  -26.2309 C   0  0  0  0  0  0  0  0  0  0  0  0
    9.6133  -48.6149  -26.9392 C   0  0  0  0  0  0  0  0  0  0  0  0
   10.1292  -47.4542  -26.3453 N   0  0  0  0  0  0  0  0  0  0  0  0
   11.5057  -47.1686  -26.5781 C   0  0  0  0  0  0  0  0  0  0  0  0
    9.5726  -46.9604  -25.1512 C   0  0  0  0  0  0  0  0  0  0  0  0
    9.1907  -48.1191  -24.2231 C   0  0  0  0  0  0  0  0  0  0  0  0
    3.3956  -46.2822  -25.1286 C   0  0  0  0  0  0  0  0  0  0  0  0
    3.8647  -46.8553  -23.9451 O   0  0  0  0  0  0  0  0  0  0  0  0
 53 54  1  0  0  0
 54 40  1  0  0  0
 40 41  2  0  0  0
 41 42  1  0  0  0
 42 43  2  0  0  0
 43 44  1  0  0  0
 44 45  2  0  0  0
 45 38  1  0  0  0
 38  1  1  0  0  0
  1  2  2  0  0  0
  2  3  1  0  0  0
  3  4  2  0  0  0
  4  5  1  0  0  0
  5  6  1  0  0  0
  6  7  1  0  0  0
  7  8  2  0  0  0
  7  9  1  0  0  0
  9 12  1  0  0  0
 12 13  2  0  0  0
 13 14  1  0  0  0
 14 15  2  0  0  0
 15 16  1  0  0  0
 16 18  1  0  0  0
 18 19  1  0  0  0
 19 20  2  0  0  0
 19 22  1  0  0  0
 22 23  2  0  0  0
 16 17  2  0  0  0
  9 10  1  0  0  0
 10 11  2  0  0  0
  6 24  1  0  0  0
 24 25  2  0  0  0
 25 26  1  0  0  0
 26 27  2  0  0  0
 27 30  1  0  0  0
 30 31  1  0  0  0
 31 32  1  0  0  0
 32 33  2  0  0  0
 33 34  1  0  0  0
 34 35  2  0  0  0
 35 36  1  0  0  0
 36 37  2  0  0  0
 27 28  1  0  0  0
 28 29  2  0  0  0
 42 46  1  0  0  0
 46 47  1  0  0  0
 47 48  1  0  0  0
 48 49  1  0  0  0
 49 50  1  0  0  0
 49 51  1  0  0  0
 51 52  1  0  0  0
 45 40  1  0  0  0
 11  1  1  0  0  0
 29 24  1  0  0  0
 52 46  1  0  0  0
 10  4  1  0  0  0
 37 32  1  0  0  0
 17 12  1  0  0  0
 38 39  1  0  0  0
 18 21  1  0  0  0
M  END
> <minimizedAffinity>
-8.04762

> <CNNscore>
0.0377532430

> <CNNaffinity>
6.9268989563

> <CNN_VS>
0.2615129054

> <CNNaffinity_variance>
0.1731088012

$$$$
[H]C([H])=C([H])C(=O)N([H])c1c([H])c([H])c([H])c(N2C(=O)N(c3c([H])c([H])c(OC([H])([H])c4c([H])c([H])c([H])c([H])c4[H])c([H])c3[H])C([H])([H])c3c([H])nc(N([H])c4c([H])c([H])c(N5C([H])([H])C([H])([H])N(C([H])([H])[H])C([H])([H])C5([H])[H])c([H])c4OC([H])([H])[H])nc32)c1[H]


 54 60  0  0  0  0  0  0  0  0999 V2000
    2.0142  -51.7709  -21.2332 C   0  0  0  0  0  0  0  0  0  0  0  0
    1.4756  -52.2906  -22.3352 N   0  0  0  0  0  0  0  0  0  0  0  0
    1.5534  -51.8091  -23.5704 C   0  0  0  0  0  0  0  0  0  0  0  0
    2.2781  -50.6205  -23.7638 C   0  0  0  0  0  0  0  0  0  0  0  0
    2.3963  -50.0470  -25.1100 C   0  0  0  0  0  0  0  0  0  0  0  0
    3.1434  -48.8361  -25.1833 N   0  0  0  0  0  0  0  0  0  0  0  0
    3.7327  -48.2471  -24.0368 C   0  0  0  0  0  0  0  0  0  0  0  0
    4.3993  -47.1735  -24.1059 O   0  0  0  0  0  0  0  0  0  0  0  0
    3.5989  -48.8398  -22.7564 N   0  0  0  0  0  0  0  0  0  0  0  0
    2.8402  -50.0633  -22.6628 C   0  0  0  0  0  0  0  0  0  0  0  0
    2.7217  -50.6070  -21.4348 N   0  0  0  0  0  0  0  0  0  0  0  0
    4.1741  -48.2794  -21.5921 C   0  0  0  0  0  0  0  0  0  0  0  0
    3.6332  -47.1730  -21.0038 C   0  0  0  0  0  0  0  0  0  0  0  0
    4.2194  -46.6396  -19.8460 C   0  0  0  0  0  0  0  0  0  0  0  0
    5.3187  -47.2055  -19.2972 C   0  0  0  0  0  0  0  0  0  0  0  0
    5.8995  -48.3487  -19.8820 C   0  0  0  0  0  0  0  0  0  0  0  0
    5.2915  -48.8440  -21.0238 C   0  0  0  0  0  0  0  0  0  0  0  0
    7.0539  -48.8843  -19.2781 N   0  0  0  0  0  0  0  0  0  0  0  0
    8.3781  -48.7073  -19.6667 C   0  0  0  0  0  0  0  0  0  0  0  0
    8.6787  -48.0078  -20.6671 O   0  0  0  0  0  0  0  0  0  0  0  0
    6.8996  -49.4935  -18.4189 H   0  0  0  0  0  0  0  0  0  0  0  0
    9.5066  -49.3143  -18.9502 C   0  0  0  0  0  0  0  0  0  0  0  0
   10.7128  -48.7966  -18.9147 C   0  0  0  0  0  0  0  0  0  0  0  0
    3.3390  -48.1492  -26.4338 C   0  0  0  0  0  0  0  0  0  0  0  0
    2.7269  -46.9316  -26.6811 C   0  0  0  0  0  0  0  0  0  0  0  0
    2.9413  -46.3140  -27.8947 C   0  0  0  0  0  0  0  0  0  0  0  0
    3.7488  -46.8639  -28.8830 C   0  0  0  0  0  0  0  0  0  0  0  0
    4.3475  -48.0721  -28.6188 C   0  0  0  0  0  0  0  0  0  0  0  0
    4.1405  -48.7014  -27.4069 C   0  0  0  0  0  0  0  0  0  0  0  0
    3.9286  -46.1855  -30.1025 O   0  0  0  0  0  0  0  0  0  0  0  0
    4.7824  -45.0427  -30.1290 C   0  0  0  0  0  0  0  0  0  0  0  0
    6.0831  -45.4209  -30.7253 C   0  0  0  0  0  0  0  0  0  0  0  0
    7.2691  -44.8953  -30.2178 C   0  0  0  0  0  0  0  0  0  0  0  0
    8.4772  -45.2509  -30.7757 C   0  0  0  0  0  0  0  0  0  0  0  0
    8.4774  -46.1331  -31.8390 C   0  0  0  0  0  0  0  0  0  0  0  0
    7.2954  -46.6543  -32.3410 C   0  0  0  0  0  0  0  0  0  0  0  0
    6.0882  -46.2950  -31.7792 C   0  0  0  0  0  0  0  0  0  0  0  0
    1.9219  -52.2872  -19.9252 N   0  0  0  0  0  0  0  0  0  0  0  0
    2.7145  -52.9890  -19.6870 H   0  0  0  0  0  0  0  0  0  0  0  0
    1.2299  -50.9742  -18.0207 C   0  0  0  0  0  0  0  0  0  0  0  0
    0.3338  -50.6453  -17.0382 C   0  0  0  0  0  0  0  0  0  0  0  0
   -0.8664  -51.3016  -16.8832 C   0  0  0  0  0  0  0  0  0  0  0  0
   -1.1431  -52.3119  -17.7562 C   0  0  0  0  0  0  0  0  0  0  0  0
   -0.2268  -52.6552  -18.7687 C   0  0  0  0  0  0  0  0  0  0  0  0
    0.9666  -52.0108  -18.9323 C   0  0  0  0  0  0  0  0  0  0  0  0
   -1.7547  -50.8996  -15.8508 N   0  0  0  0  0  0  0  0  0  0  0  0
   -1.7067  -49.5771  -15.2618 C   0  0  0  0  0  0  0  0  0  0  0  0
   -3.0084  -49.0611  -14.7683 C   0  0  0  0  0  0  0  0  0  0  0  0
   -4.1537  -49.8574  -14.9105 N   0  0  0  0  0  0  0  0  0  0  0  0
   -5.1396  -49.7566  -13.8865 C   0  0  0  0  0  0  0  0  0  0  0  0
   -4.0881  -51.0768  -15.6093 C   0  0  0  0  0  0  0  0  0  0  0  0
   -2.7642  -51.7900  -15.3119 C   0  0  0  0  0  0  0  0  0  0  0  0
    2.6765  -49.0530  -17.5343 C   0  0  0  0  0  0  0  0  0  0  0  0
    2.4466  -50.2844  -18.1507 O   0  0  0  0  0  0  0  0  0  0  0  0
 53 54  1  0  0  0
 54 40  1  0  0  0
 40 41  2  0  0  0
 41 42  1  0  0  0
 42 43  2  0  0  0
 43 44  1  0  0  0
 44 45  2  0  0  0
 45 38  1  0  0  0
 38  1  1  0  0  0
  1  2  2  0  0  0
  2  3  1  0  0  0
  3  4  2  0  0  0
  4  5  1  0  0  0
  5  6  1  0  0  0
  6  7  1  0  0  0
  7  8  2  0  0  0
  7  9  1  0  0  0
  9 12  1  0  0  0
 12 13  2  0  0  0
 13 14  1  0  0  0
 14 15  2  0  0  0
 15 16  1  0  0  0
 16 18  1  0  0  0
 18 19  1  0  0  0
 19 20  2  0  0  0
 19 22  1  0  0  0
 22 23  2  0  0  0
 16 17  2  0  0  0
  9 10  1  0  0  0
 10 11  2  0  0  0
  6 24  1  0  0  0
 24 25  2  0  0  0
 25 26  1  0  0  0
 26 27  2  0  0  0
 27 30  1  0  0  0
 30 31  1  0  0  0
 31 32  1  0  0  0
 32 33  2  0  0  0
 33 34  1  0  0  0
 34 35  2  0  0  0
 35 36  1  0  0  0
 36 37  2  0  0  0
 27 28  1  0  0  0
 28 29  2  0  0  0
 42 46  1  0  0  0
 46 47  1  0  0  0
 47 48  1  0  0  0
 48 49  1  0  0  0
 49 50  1  0  0  0
 49 51  1  0  0  0
 51 52  1  0  0  0
 45 40  1  0  0  0
 11  1  1  0  0  0
 29 24  1  0  0  0
 52 46  1  0  0  0
 10  4  1  0  0  0
 37 32  1  0  0  0
 17 12  1  0  0  0
 38 39  1  0  0  0
 18 21  1  0  0  0
M  END
> <minimizedAffinity>
-7.11011

> <CNNscore>
0.0348597616

> <CNNaffinity>
6.4944715500

> <CNN_VS>
0.2263957262

> <CNNaffinity_variance>
0.2583316267

$$$$
[H]C([H])=C([H])C(=O)N([H])c1c([H])c([H])c([H])c(N2C(=O)N(c3c([H])c([H])c(OC([H])([H])c4c([H])c([H])c([H])c([H])c4[H])c([H])c3[H])C([H])([H])c3c([H])nc(N([H])c4c([H])c([H])c(N5C([H])([H])C([H])([H])N(C([H])([H])[H])C([H])([H])C5([H])[H])c([H])c4OC([H])([H])[H])nc32)c1[H]


 54 60  0  0  0  0  0  0  0  0999 V2000
    4.2600  -46.7365  -23.3110 C   0  0  0  0  0  0  0  0  0  0  0  0
    2.9441  -46.5470  -23.3947 N   0  0  0  0  0  0  0  0  0  0  0  0
    2.0059  -47.0773  -22.6187 C   0  0  0  0  0  0  0  0  0  0  0  0
    2.4204  -47.9376  -21.5875 C   0  0  0  0  0  0  0  0  0  0  0  0
    1.4235  -48.5489  -20.7001 C   0  0  0  0  0  0  0  0  0  0  0  0
    1.9583  -49.4111  -19.6998 N   0  0  0  0  0  0  0  0  0  0  0  0
    3.3509  -49.6426  -19.5748 C   0  0  0  0  0  0  0  0  0  0  0  0
    3.8232  -50.4059  -18.6825 O   0  0  0  0  0  0  0  0  0  0  0  0
    4.2790  -49.0251  -20.4501 N   0  0  0  0  0  0  0  0  0  0  0  0
    3.7542  -48.1536  -21.4730 C   0  0  0  0  0  0  0  0  0  0  0  0
    4.6543  -47.5809  -22.2973 N   0  0  0  0  0  0  0  0  0  0  0  0
    5.6746  -49.2337  -20.3533 C   0  0  0  0  0  0  0  0  0  0  0  0
    6.3268  -50.0447  -21.2362 C   0  0  0  0  0  0  0  0  0  0  0  0
    7.7127  -50.2308  -21.1222 C   0  0  0  0  0  0  0  0  0  0  0  0
    8.4205  -49.6167  -20.1466 C   0  0  0  0  0  0  0  0  0  0  0  0
    7.7748  -48.7732  -19.2205 C   0  0  0  0  0  0  0  0  0  0  0  0
    6.4064  -48.6161  -19.3666 C   0  0  0  0  0  0  0  0  0  0  0  0
    8.5590  -48.1749  -18.2148 N   0  0  0  0  0  0  0  0  0  0  0  0
    9.1928  -46.9369  -18.2531 C   0  0  0  0  0  0  0  0  0  0  0  0
    9.1191  -46.1949  -19.2653 O   0  0  0  0  0  0  0  0  0  0  0  0
    8.6795  -48.7305  -17.3149 H   0  0  0  0  0  0  0  0  0  0  0  0
    9.9832  -46.4115  -17.1331 C   0  0  0  0  0  0  0  0  0  0  0  0
   11.2673  -46.6369  -16.9760 C   0  0  0  0  0  0  0  0  0  0  0  0
    1.1047  -50.0910  -18.7603 C   0  0  0  0  0  0  0  0  0  0  0  0
    0.5406  -51.3178  -19.0688 C   0  0  0  0  0  0  0  0  0  0  0  0
   -0.2729  -51.9284  -18.1384 C   0  0  0  0  0  0  0  0  0  0  0  0
   -0.5510  -51.3625  -16.9000 C   0  0  0  0  0  0  0  0  0  0  0  0
    0.0181  -50.1454  -16.6123 C   0  0  0  0  0  0  0  0  0  0  0  0
    0.8348  -49.5230  -17.5360 C   0  0  0  0  0  0  0  0  0  0  0  0
   -1.3902  -52.0343  -15.9922 O   0  0  0  0  0  0  0  0  0  0  0  0
   -2.7843  -52.1185  -16.2846 C   0  0  0  0  0  0  0  0  0  0  0  0
   -3.5473  -51.4342  -15.2169 C   0  0  0  0  0  0  0  0  0  0  0  0
   -3.5753  -51.9578  -13.9263 C   0  0  0  0  0  0  0  0  0  0  0  0
   -4.2863  -51.3170  -12.9358 C   0  0  0  0  0  0  0  0  0  0  0  0
   -4.9612  -50.1548  -13.2563 C   0  0  0  0  0  0  0  0  0  0  0  0
   -4.9307  -49.6367  -14.5414 C   0  0  0  0  0  0  0  0  0  0  0  0
   -4.2177  -50.2821  -15.5298 C   0  0  0  0  0  0  0  0  0  0  0  0
    5.2479  -46.1725  -24.1429 N   0  0  0  0  0  0  0  0  0  0  0  0
    5.9468  -45.5395  -23.6059 H   0  0  0  0  0  0  0  0  0  0  0  0
    6.3151  -47.3220  -25.9785 C   0  0  0  0  0  0  0  0  0  0  0  0
    6.5266  -47.5341  -27.3153 C   0  0  0  0  0  0  0  0  0  0  0  0
    5.8934  -46.7957  -28.2895 C   0  0  0  0  0  0  0  0  0  0  0  0
    5.0303  -45.8248  -27.8753 C   0  0  0  0  0  0  0  0  0  0  0  0
    4.8079  -45.6014  -26.5029 C   0  0  0  0  0  0  0  0  0  0  0  0
    5.4300  -46.3280  -25.5276 C   0  0  0  0  0  0  0  0  0  0  0  0
    6.1493  -47.0782  -29.6575 N   0  0  0  0  0  0  0  0  0  0  0  0
    7.2412  -47.9315  -30.0791 C   0  0  0  0  0  0  0  0  0  0  0  0
    7.0030  -48.6812  -31.3382 C   0  0  0  0  0  0  0  0  0  0  0  0
    5.7780  -48.5239  -32.0022 N   0  0  0  0  0  0  0  0  0  0  0  0
    5.8024  -48.5971  -33.4250 C   0  0  0  0  0  0  0  0  0  0  0  0
    4.7513  -47.7545  -31.4247 C   0  0  0  0  0  0  0  0  0  0  0  0
    5.3384  -46.5239  -30.7241 C   0  0  0  0  0  0  0  0  0  0  0  0
    6.7693  -49.4672  -24.8774 C   0  0  0  0  0  0  0  0  0  0  0  0
    6.9785  -48.0932  -25.0098 O   0  0  0  0  0  0  0  0  0  0  0  0
 53 54  1  0  0  0
 54 40  1  0  0  0
 40 41  2  0  0  0
 41 42  1  0  0  0
 42 43  2  0  0  0
 43 44  1  0  0  0
 44 45  2  0  0  0
 45 38  1  0  0  0
 38  1  1  0  0  0
  1  2  2  0  0  0
  2  3  1  0  0  0
  3  4  2  0  0  0
  4  5  1  0  0  0
  5  6  1  0  0  0
  6  7  1  0  0  0
  7  8  2  0  0  0
  7  9  1  0  0  0
  9 12  1  0  0  0
 12 13  2  0  0  0
 13 14  1  0  0  0
 14 15  2  0  0  0
 15 16  1  0  0  0
 16 18  1  0  0  0
 18 19  1  0  0  0
 19 20  2  0  0  0
 19 22  1  0  0  0
 22 23  2  0  0  0
 16 17  2  0  0  0
  9 10  1  0  0  0
 10 11  2  0  0  0
  6 24  1  0  0  0
 24 25  2  0  0  0
 25 26  1  0  0  0
 26 27  2  0  0  0
 27 30  1  0  0  0
 30 31  1  0  0  0
 31 32  1  0  0  0
 32 33  2  0  0  0
 33 34  1  0  0  0
 34 35  2  0  0  0
 35 36  1  0  0  0
 36 37  2  0  0  0
 27 28  1  0  0  0
 28 29  2  0  0  0
 42 46  1  0  0  0
 46 47  1  0  0  0
 47 48  1  0  0  0
 48 49  1  0  0  0
 49 50  1  0  0  0
 49 51  1  0  0  0
 51 52  1  0  0  0
 45 40  1  0  0  0
 11  1  1  0  0  0
 29 24  1  0  0  0
 52 46  1  0  0  0
 10  4  1  0  0  0
 37 32  1  0  0  0
 17 12  1  0  0  0
 38 39  1  0  0  0
 18 21  1  0  0  0
M  END
> <minimizedAffinity>
-7.16924

> <CNNscore>
0.0339185037

> <CNNaffinity>
6.4375181198

> <CNN_VS>
0.2183509767

> <CNNaffinity_variance>
0.0812602565

$$$$
[H]C([H])=C([H])C(=O)N([H])c1c([H])c([H])c([H])c(N2C(=O)N(c3c([H])c([H])c(OC([H])([H])c4c([H])c([H])c([H])c([H])c4[H])c([H])c3[H])C([H])([H])c3c([H])nc(N([H])c4c([H])c([H])c(N5C([H])([H])C([H])([H])N(C([H])([H])[H])C([H])([H])C5([H])[H])c([H])c4OC([H])([H])[H])nc32)c1[H]


 54 60  0  0  0  0  0  0  0  0999 V2000
    2.8388  -51.3015  -22.0919 C   0  0  0  0  0  0  0  0  0  0  0  0
    2.3135  -51.8901  -23.1652 N   0  0  0  0  0  0  0  0  0  0  0  0
    2.2419  -51.3974  -24.3964 C   0  0  0  0  0  0  0  0  0  0  0  0
    2.7714  -50.1145  -24.6185 C   0  0  0  0  0  0  0  0  0  0  0  0
    2.7193  -49.5244  -25.9616 C   0  0  0  0  0  0  0  0  0  0  0  0
    3.2752  -48.2166  -26.0649 N   0  0  0  0  0  0  0  0  0  0  0  0
    3.8433  -47.5523  -24.9494 C   0  0  0  0  0  0  0  0  0  0  0  0
    4.3401  -46.3922  -25.0453 O   0  0  0  0  0  0  0  0  0  0  0  0
    3.8787  -48.1634  -23.6711 N   0  0  0  0  0  0  0  0  0  0  0  0
    3.3144  -49.4854  -23.5470 C   0  0  0  0  0  0  0  0  0  0  0  0
    3.3544  -50.0455  -22.3214 N   0  0  0  0  0  0  0  0  0  0  0  0
    4.4381  -47.5294  -22.5372 C   0  0  0  0  0  0  0  0  0  0  0  0
    3.7472  -46.5691  -21.8567 C   0  0  0  0  0  0  0  0  0  0  0  0
    4.3220  -45.9592  -20.7315 C   0  0  0  0  0  0  0  0  0  0  0  0
    5.5574  -46.3077  -20.3047 C   0  0  0  0  0  0  0  0  0  0  0  0
    6.2949  -47.2962  -20.9867 C   0  0  0  0  0  0  0  0  0  0  0  0
    5.6928  -47.8736  -22.0925 C   0  0  0  0  0  0  0  0  0  0  0  0
    7.5832  -47.6055  -20.5084 N   0  0  0  0  0  0  0  0  0  0  0  0
    7.9974  -47.7099  -19.1843 C   0  0  0  0  0  0  0  0  0  0  0  0
    7.1997  -47.5171  -18.2319 O   0  0  0  0  0  0  0  0  0  0  0  0
    8.3308  -47.7864  -21.2443 H   0  0  0  0  0  0  0  0  0  0  0  0
    9.3747  -48.0474  -18.8045 C   0  0  0  0  0  0  0  0  0  0  0  0
    9.9274  -49.2180  -19.0250 C   0  0  0  0  0  0  0  0  0  0  0  0
    3.2890  -47.5034  -27.3158 C   0  0  0  0  0  0  0  0  0  0  0  0
    2.4326  -46.4377  -27.5377 C   0  0  0  0  0  0  0  0  0  0  0  0
    2.4801  -45.7884  -28.7528 C   0  0  0  0  0  0  0  0  0  0  0  0
    3.3544  -46.1597  -29.7671 C   0  0  0  0  0  0  0  0  0  0  0  0
    4.1962  -47.2190  -29.5280 C   0  0  0  0  0  0  0  0  0  0  0  0
    4.1584  -47.8783  -28.3149 C   0  0  0  0  0  0  0  0  0  0  0  0
    3.3553  -45.4581  -30.9867 O   0  0  0  0  0  0  0  0  0  0  0  0
    4.4638  -45.6246  -31.8696 C   0  0  0  0  0  0  0  0  0  0  0  0
    4.3640  -44.6368  -32.9672 C   0  0  0  0  0  0  0  0  0  0  0  0
    4.7754  -43.3208  -32.7687 C   0  0  0  0  0  0  0  0  0  0  0  0
    4.6814  -42.4052  -33.7934 C   0  0  0  0  0  0  0  0  0  0  0  0
    4.1742  -42.8257  -35.0078 C   0  0  0  0  0  0  0  0  0  0  0  0
    3.7661  -44.1360  -35.2017 C   0  0  0  0  0  0  0  0  0  0  0  0
    3.8621  -45.0490  -34.1725 C   0  0  0  0  0  0  0  0  0  0  0  0
    2.9057  -51.8311  -20.7876 N   0  0  0  0  0  0  0  0  0  0  0  0
    3.7666  -52.4732  -20.6319 H   0  0  0  0  0  0  0  0  0  0  0  0
    2.5100  -50.9681  -18.5676 C   0  0  0  0  0  0  0  0  0  0  0  0
    1.7021  -50.7308  -17.4871 C   0  0  0  0  0  0  0  0  0  0  0  0
    0.3832  -51.1240  -17.4504 C   0  0  0  0  0  0  0  0  0  0  0  0
   -0.1061  -51.7716  -18.5461 C   0  0  0  0  0  0  0  0  0  0  0  0
    0.7186  -52.0186  -19.6604 C   0  0  0  0  0  0  0  0  0  0  0  0
    2.0282  -51.6328  -19.7081 C   0  0  0  0  0  0  0  0  0  0  0  0
   -0.4011  -50.8335  -16.3028 N   0  0  0  0  0  0  0  0  0  0  0  0
   -0.5383  -49.4893  -15.7809 C   0  0  0  0  0  0  0  0  0  0  0  0
   -1.8278  -49.2075  -15.1012 C   0  0  0  0  0  0  0  0  0  0  0  0
   -2.7918  -50.2227  -15.0234 N   0  0  0  0  0  0  0  0  0  0  0  0
   -3.6094  -50.2467  -13.8566 C   0  0  0  0  0  0  0  0  0  0  0  0
   -2.5828  -51.4515  -15.6762 C   0  0  0  0  0  0  0  0  0  0  0  0
   -1.1105  -51.8656  -15.5722 C   0  0  0  0  0  0  0  0  0  0  0  0
    4.2183  -49.2071  -18.6009 C   0  0  0  0  0  0  0  0  0  0  0  0
    3.8523  -50.5540  -18.5720 O   0  0  0  0  0  0  0  0  0  0  0  0
 53 54  1  0  0  0
 54 40  1  0  0  0
 40 41  2  0  0  0
 41 42  1  0  0  0
 42 43  2  0  0  0
 43 44  1  0  0  0
 44 45  2  0  0  0
 45 38  1  0  0  0
 38  1  1  0  0  0
  1  2  2  0  0  0
  2  3  1  0  0  0
  3  4  2  0  0  0
  4  5  1  0  0  0
  5  6  1  0  0  0
  6  7  1  0  0  0
  7  8  2  0  0  0
  7  9  1  0  0  0
  9 12  1  0  0  0
 12 13  2  0  0  0
 13 14  1  0  0  0
 14 15  2  0  0  0
 15 16  1  0  0  0
 16 18  1  0  0  0
 18 19  1  0  0  0
 19 20  2  0  0  0
 19 22  1  0  0  0
 22 23  2  0  0  0
 16 17  2  0  0  0
  9 10  1  0  0  0
 10 11  2  0  0  0
  6 24  1  0  0  0
 24 25  2  0  0  0
 25 26  1  0  0  0
 26 27  2  0  0  0
 27 30  1  0  0  0
 30 31  1  0  0  0
 31 32  1  0  0  0
 32 33  2  0  0  0
 33 34  1  0  0  0
 34 35  2  0  0  0
 35 36  1  0  0  0
 36 37  2  0  0  0
 27 28  1  0  0  0
 28 29  2  0  0  0
 42 46  1  0  0  0
 46 47  1  0  0  0
 47 48  1  0  0  0
 48 49  1  0  0  0
 49 50  1  0  0  0
 49 51  1  0  0  0
 51 52  1  0  0  0
 45 40  1  0  0  0
 11  1  1  0  0  0
 29 24  1  0  0  0
 52 46  1  0  0  0
 10  4  1  0  0  0
 37 32  1  0  0  0
 17 12  1  0  0  0
 38 39  1  0  0  0
 18 21  1  0  0  0
M  END
> <minimizedAffinity>
-7.79165

> <CNNscore>
0.0285029300

> <CNNaffinity>
6.1727809906

> <CNN_VS>
0.1759423465

> <CNNaffinity_variance>
0.3053082228

$$$$
[H]C([H])=C([H])C(=O)N([H])c1c([H])c([H])c([H])c(N2C(=O)N(c3c([H])c([H])c(OC([H])([H])c4c([H])c([H])c([H])c([H])c4[H])c([H])c3[H])C([H])([H])c3c([H])nc(N([H])c4c([H])c([H])c(N5C([H])([H])C([H])([H])N(C([H])([H])[H])C([H])([H])C5([H])[H])c([H])c4OC([H])([H])[H])nc32)c1[H]


 54 60  0  0  0  0  0  0  0  0999 V2000
    4.3608  -47.7003  -23.5244 C   0  0  0  0  0  0  0  0  0  0  0  0
    4.3140  -46.8536  -22.4971 N   0  0  0  0  0  0  0  0  0  0  0  0
    3.6957  -47.0342  -21.3357 C   0  0  0  0  0  0  0  0  0  0  0  0
    3.0066  -48.2440  -21.1437 C   0  0  0  0  0  0  0  0  0  0  0  0
    2.3078  -48.4944  -19.8772 C   0  0  0  0  0  0  0  0  0  0  0  0
    1.6350  -49.7479  -19.8003 N   0  0  0  0  0  0  0  0  0  0  0  0
    1.6570  -50.6785  -20.8690 C   0  0  0  0  0  0  0  0  0  0  0  0
    1.0617  -51.7930  -20.7960 O   0  0  0  0  0  0  0  0  0  0  0  0
    2.3511  -50.3976  -22.0724 N   0  0  0  0  0  0  0  0  0  0  0  0
    3.0329  -49.1300  -22.1698 C   0  0  0  0  0  0  0  0  0  0  0  0
    3.6824  -48.8818  -23.3249 N   0  0  0  0  0  0  0  0  0  0  0  0
    2.3939  -51.3034  -23.1580 C   0  0  0  0  0  0  0  0  0  0  0  0
    3.5041  -52.0598  -23.3986 C   0  0  0  0  0  0  0  0  0  0  0  0
    3.5194  -52.9551  -24.4787 C   0  0  0  0  0  0  0  0  0  0  0  0
    2.4463  -53.0842  -25.2923 C   0  0  0  0  0  0  0  0  0  0  0  0
    1.2857  -52.3168  -25.0687 C   0  0  0  0  0  0  0  0  0  0  0  0
    1.3107  -51.4446  -23.9929 C   0  0  0  0  0  0  0  0  0  0  0  0
    0.2059  -52.4793  -25.9586 N   0  0  0  0  0  0  0  0  0  0  0  0
    0.2386  -52.4595  -27.3494 C   0  0  0  0  0  0  0  0  0  0  0  0
    1.3126  -52.2752  -27.9763 O   0  0  0  0  0  0  0  0  0  0  0  0
   -0.7498  -52.6418  -25.5189 H   0  0  0  0  0  0  0  0  0  0  0  0
   -0.9590  -52.6486  -28.1773 C   0  0  0  0  0  0  0  0  0  0  0  0
   -0.9246  -52.8846  -29.4686 C   0  0  0  0  0  0  0  0  0  0  0  0
    0.8976  -50.1333  -18.6249 C   0  0  0  0  0  0  0  0  0  0  0  0
    0.1596  -51.3051  -18.5993 C   0  0  0  0  0  0  0  0  0  0  0  0
   -0.5329  -51.6298  -17.4524 C   0  0  0  0  0  0  0  0  0  0  0  0
   -0.5208  -50.8279  -16.3175 C   0  0  0  0  0  0  0  0  0  0  0  0
    0.2172  -49.6698  -16.3622 C   0  0  0  0  0  0  0  0  0  0  0  0
    0.9153  -49.3328  -17.5053 C   0  0  0  0  0  0  0  0  0  0  0  0
   -1.2490  -51.2127  -15.1767 O   0  0  0  0  0  0  0  0  0  0  0  0
   -2.5671  -50.6952  -15.0011 C   0  0  0  0  0  0  0  0  0  0  0  0
   -3.5224  -51.8212  -14.9016 C   0  0  0  0  0  0  0  0  0  0  0  0
   -3.9687  -52.4687  -16.0515 C   0  0  0  0  0  0  0  0  0  0  0  0
   -4.8573  -53.5167  -15.9538 C   0  0  0  0  0  0  0  0  0  0  0  0
   -5.2863  -53.9015  -14.6981 C   0  0  0  0  0  0  0  0  0  0  0  0
   -4.8398  -53.2551  -13.5563 C   0  0  0  0  0  0  0  0  0  0  0  0
   -3.9503  -52.2062  -13.6593 C   0  0  0  0  0  0  0  0  0  0  0  0
    5.0161  -47.4973  -24.7554 N   0  0  0  0  0  0  0  0  0  0  0  0
    5.5961  -48.3565  -25.0763 H   0  0  0  0  0  0  0  0  0  0  0  0
    6.2286  -45.9011  -26.1015 C   0  0  0  0  0  0  0  0  0  0  0  0
    6.2859  -44.8091  -26.9266 C   0  0  0  0  0  0  0  0  0  0  0  0
    5.1634  -44.1030  -27.2965 C   0  0  0  0  0  0  0  0  0  0  0  0
    3.9657  -44.5323  -26.8059 C   0  0  0  0  0  0  0  0  0  0  0  0
    3.8993  -45.6542  -25.9575 C   0  0  0  0  0  0  0  0  0  0  0  0
    5.0061  -46.3626  -25.5843 C   0  0  0  0  0  0  0  0  0  0  0  0
    5.2941  -42.9881  -28.1662 N   0  0  0  0  0  0  0  0  0  0  0  0
    5.4151  -41.6321  -27.6712 C   0  0  0  0  0  0  0  0  0  0  0  0
    6.2049  -40.7166  -28.5328 C   0  0  0  0  0  0  0  0  0  0  0  0
    6.7664  -41.2132  -29.7178 N   0  0  0  0  0  0  0  0  0  0  0  0
    6.8515  -40.3112  -30.8177 C   0  0  0  0  0  0  0  0  0  0  0  0
    6.6753  -42.5827  -30.0270 C   0  0  0  0  0  0  0  0  0  0  0  0
    5.3069  -43.1328  -29.6088 C   0  0  0  0  0  0  0  0  0  0  0  0
    8.6452  -46.2874  -26.2777 C   0  0  0  0  0  0  0  0  0  0  0  0
    7.3938  -46.5988  -25.7429 O   0  0  0  0  0  0  0  0  0  0  0  0
 53 54  1  0  0  0
 54 40  1  0  0  0
 40 41  2  0  0  0
 41 42  1  0  0  0
 42 43  2  0  0  0
 43 44  1  0  0  0
 44 45  2  0  0  0
 45 38  1  0  0  0
 38  1  1  0  0  0
  1  2  2  0  0  0
  2  3  1  0  0  0
  3  4  2  0  0  0
  4  5  1  0  0  0
  5  6  1  0  0  0
  6  7  1  0  0  0
  7  8  2  0  0  0
  7  9  1  0  0  0
  9 12  1  0  0  0
 12 13  2  0  0  0
 13 14  1  0  0  0
 14 15  2  0  0  0
 15 16  1  0  0  0
 16 18  1  0  0  0
 18 19  1  0  0  0
 19 20  2  0  0  0
 19 22  1  0  0  0
 22 23  2  0  0  0
 16 17  2  0  0  0
  9 10  1  0  0  0
 10 11  2  0  0  0
  6 24  1  0  0  0
 24 25  2  0  0  0
 25 26  1  0  0  0
 26 27  2  0  0  0
 27 30  1  0  0  0
 30 31  1  0  0  0
 31 32  1  0  0  0
 32 33  2  0  0  0
 33 34  1  0  0  0
 34 35  2  0  0  0
 35 36  1  0  0  0
 36 37  2  0  0  0
 27 28  1  0  0  0
 28 29  2  0  0  0
 42 46  1  0  0  0
 46 47  1  0  0  0
 47 48  1  0  0  0
 48 49  1  0  0  0
 49 50  1  0  0  0
 49 51  1  0  0  0
 51 52  1  0  0  0
 45 40  1  0  0  0
 11  1  1  0  0  0
 29 24  1  0  0  0
 52 46  1  0  0  0
 10  4  1  0  0  0
 37 32  1  0  0  0
 17 12  1  0  0  0
 38 39  1  0  0  0
 18 21  1  0  0  0
M  END
> <minimizedAffinity>
-8.27139

> <CNNscore>
0.0280439742

> <CNNaffinity>
6.8190126419

> <CNN_VS>
0.1912322193

> <CNNaffinity_variance>
0.0646336749

$$$$
[H]Oc1c([H])c([H])c(N([H])C(=S)N([H])c2c([H])c([H])c3nc([H])nc(N([H])c4c([H])c([H])c([H])c(Br)c4[H])c3c2[H])c([H])c1[H]


 33 36  0  0  0  0  0  0  0  0999 V2000
    1.2943  -51.5410  -20.8846 C   0  0  0  0  0  0  0  0  0  0  0  0
    0.4593  -52.1203  -19.9109 C   0  0  0  0  0  0  0  0  0  0  0  0
   -0.4017  -53.1378  -20.2201 C   0  0  0  0  0  0  0  0  0  0  0  0
   -0.4936  -53.6404  -21.4830 C   0  0  0  0  0  0  0  0  0  0  0  0
   -1.3380  -54.6436  -21.8094 N   0  0  0  0  0  0  0  0  0  0  0  0
   -1.4116  -55.1207  -23.0632 C   0  0  0  0  0  0  0  0  0  0  0  0
   -0.6526  -54.6233  -24.0400 N   0  0  0  0  0  0  0  0  0  0  0  0
    0.2237  -53.6069  -23.7781 C   0  0  0  0  0  0  0  0  0  0  0  0
    0.3119  -53.1035  -22.4924 C   0  0  0  0  0  0  0  0  0  0  0  0
    1.1796  -52.0668  -22.1503 C   0  0  0  0  0  0  0  0  0  0  0  0
    2.1401  -50.4656  -20.5312 N   0  0  0  0  0  0  0  0  0  0  0  0
    1.9591  -50.0595  -19.5770 H   0  0  0  0  0  0  0  0  0  0  0  0
    3.1426  -49.9074  -21.3376 C   0  0  0  0  0  0  0  0  0  0  0  0
    4.7320  -50.3199  -21.0454 S   0  0  0  0  0  0  0  0  0  0  0  0
    2.9465  -48.9778  -22.3699 N   0  0  0  0  0  0  0  0  0  0  0  0
    2.5453  -48.0216  -22.0901 H   0  0  0  0  0  0  0  0  0  0  0  0
    4.0842  -49.3171  -27.8715 O   0  0  0  0  0  0  0  0  0  0  0  0
    3.8035  -49.2433  -26.4935 C   0  0  0  0  0  0  0  0  0  0  0  0
    4.4241  -48.3157  -25.6873 C   0  0  0  0  0  0  0  0  0  0  0  0
    4.1219  -48.2778  -24.3474 C   0  0  0  0  0  0  0  0  0  0  0  0
    3.2123  -49.1345  -23.7490 C   0  0  0  0  0  0  0  0  0  0  0  0
    2.6117  -50.0444  -24.5782 C   0  0  0  0  0  0  0  0  0  0  0  0
    2.8961  -50.1111  -25.9453 C   0  0  0  0  0  0  0  0  0  0  0  0
    3.5130  -48.7510  -28.5050 H   0  0  0  0  0  0  0  0  0  0  0  0
    1.0634  -53.1028  -24.7911 N   0  0  0  0  0  0  0  0  0  0  0  0
    2.0126  -52.6902  -24.6164 H   0  0  0  0  0  0  0  0  0  0  0  0
    0.6628  -53.1297  -26.1497 C   0  0  0  0  0  0  0  0  0  0  0  0
    1.4729  -53.3837  -27.2134 C   0  0  0  0  0  0  0  0  0  0  0  0
    1.0222  -53.3612  -28.5236 C   0  0  0  0  0  0  0  0  0  0  0  0
   -0.2850  -53.0772  -28.8024 C   0  0  0  0  0  0  0  0  0  0  0  0
   -1.1442  -52.8137  -27.7496 C   0  0  0  0  0  0  0  0  0  0  0  0
   -2.9598  -52.4225  -28.1742 Br  0  0  0  0  0  0  0  0  0  0  0  0
   -0.6760  -52.8409  -26.4594 C   0  0  0  0  0  0  0  0  0  0  0  0
 17 18  1  0  0  0
 18 19  2  0  0  0
 19 20  1  0  0  0
 20 21  2  0  0  0
 21 15  1  0  0  0
 15 13  1  0  0  0
 13 14  2  0  0  0
 13 11  1  0  0  0
 11  1  1  0  0  0
  1  2  2  0  0  0
  2  3  1  0  0  0
  3  4  2  0  0  0
  4  5  1  0  0  0
  5  6  2  0  0  0
  6  7  1  0  0  0
  7  8  2  0  0  0
  8 25  1  0  0  0
 25 27  1  0  0  0
 27 28  2  0  0  0
 28 29  1  0  0  0
 29 30  2  0  0  0
 30 31  1  0  0  0
 31 32  1  0  0  0
 31 33  2  0  0  0
  8  9  1  0  0  0
  9 10  2  0  0  0
 21 22  1  0  0  0
 22 23  2  0  0  0
 23 18  1  0  0  0
 10  1  1  0  0  0
  9  4  1  0  0  0
 33 27  1  0  0  0
 17 24  1  0  0  0
 15 16  1  0  0  0
 11 12  1  0  0  0
 25 26  1  0  0  0
M  END
> <minimizedAffinity>
-7.93878

> <CNNscore>
0.8486037850

> <CNNaffinity>
7.5083951950

> <CNN_VS>
6.3716526031

> <CNNaffinity_variance>
0.1678485870

$$$$
[H]Oc1c([H])c([H])c(N([H])C(=S)N([H])c2c([H])c([H])c3nc([H])nc(N([H])c4c([H])c([H])c([H])c(Br)c4[H])c3c2[H])c([H])c1[H]


 33 36  0  0  0  0  0  0  0  0999 V2000
    0.7044  -51.3121  -20.2335 C   0  0  0  0  0  0  0  0  0  0  0  0
    0.2765  -52.3393  -19.3718 C   0  0  0  0  0  0  0  0  0  0  0  0
   -0.2988  -53.4838  -19.8530 C   0  0  0  0  0  0  0  0  0  0  0  0
   -0.4858  -53.6861  -21.1871 C   0  0  0  0  0  0  0  0  0  0  0  0
   -1.0531  -54.8080  -21.6825 N   0  0  0  0  0  0  0  0  0  0  0  0
   -1.2284  -54.9830  -23.0030 C   0  0  0  0  0  0  0  0  0  0  0  0
   -0.8489  -54.0550  -23.8819 N   0  0  0  0  0  0  0  0  0  0  0  0
   -0.2680  -52.8958  -23.4480 C   0  0  0  0  0  0  0  0  0  0  0  0
   -0.0804  -52.6992  -22.0913 C   0  0  0  0  0  0  0  0  0  0  0  0
    0.5022  -51.5424  -21.5743 C   0  0  0  0  0  0  0  0  0  0  0  0
    1.2575  -50.1296  -19.6925 N   0  0  0  0  0  0  0  0  0  0  0  0
    0.5971  -49.5697  -19.0935 H   0  0  0  0  0  0  0  0  0  0  0  0
    2.5593  -49.6554  -19.9095 C   0  0  0  0  0  0  0  0  0  0  0  0
    3.6028  -49.5492  -18.6128 S   0  0  0  0  0  0  0  0  0  0  0  0
    3.0795  -49.2083  -21.1334 N   0  0  0  0  0  0  0  0  0  0  0  0
    2.9332  -48.1712  -21.3713 H   0  0  0  0  0  0  0  0  0  0  0  0
    5.9943  -52.3324  -24.7968 O   0  0  0  0  0  0  0  0  0  0  0  0
    5.2561  -51.5500  -23.8880 C   0  0  0  0  0  0  0  0  0  0  0  0
    4.8868  -52.0437  -22.6569 C   0  0  0  0  0  0  0  0  0  0  0  0
    4.1662  -51.2471  -21.8000 C   0  0  0  0  0  0  0  0  0  0  0  0
    3.7822  -49.9522  -22.1081 C   0  0  0  0  0  0  0  0  0  0  0  0
    4.1659  -49.4906  -23.3393 C   0  0  0  0  0  0  0  0  0  0  0  0
    4.8987  -50.2740  -24.2358 C   0  0  0  0  0  0  0  0  0  0  0  0
    7.0158  -52.2837  -24.7472 H   0  0  0  0  0  0  0  0  0  0  0  0
    0.1781  -51.9269  -24.3686 N   0  0  0  0  0  0  0  0  0  0  0  0
    0.0576  -50.8924  -24.2377 H   0  0  0  0  0  0  0  0  0  0  0  0
    0.8418  -52.3064  -25.5612 C   0  0  0  0  0  0  0  0  0  0  0  0
    2.1736  -52.5573  -25.6856 C   0  0  0  0  0  0  0  0  0  0  0  0
    2.7657  -52.8926  -26.8929 C   0  0  0  0  0  0  0  0  0  0  0  0
    2.0150  -52.9870  -28.0308 C   0  0  0  0  0  0  0  0  0  0  0  0
    0.6553  -52.7408  -27.9491 C   0  0  0  0  0  0  0  0  0  0  0  0
   -0.3611  -52.8820  -29.5542 Br  0  0  0  0  0  0  0  0  0  0  0  0
    0.0899  -52.4096  -26.7427 C   0  0  0  0  0  0  0  0  0  0  0  0
 17 18  1  0  0  0
 18 19  2  0  0  0
 19 20  1  0  0  0
 20 21  2  0  0  0
 21 15  1  0  0  0
 15 13  1  0  0  0
 13 14  2  0  0  0
 13 11  1  0  0  0
 11  1  1  0  0  0
  1  2  2  0  0  0
  2  3  1  0  0  0
  3  4  2  0  0  0
  4  5  1  0  0  0
  5  6  2  0  0  0
  6  7  1  0  0  0
  7  8  2  0  0  0
  8 25  1  0  0  0
 25 27  1  0  0  0
 27 28  2  0  0  0
 28 29  1  0  0  0
 29 30  2  0  0  0
 30 31  1  0  0  0
 31 32  1  0  0  0
 31 33  2  0  0  0
  8  9  1  0  0  0
  9 10  2  0  0  0
 21 22  1  0  0  0
 22 23  2  0  0  0
 23 18  1  0  0  0
 10  1  1  0  0  0
  9  4  1  0  0  0
 33 27  1  0  0  0
 17 24  1  0  0  0
 15 16  1  0  0  0
 11 12  1  0  0  0
 25 26  1  0  0  0
M  END
> <minimizedAffinity>
-8.30256

> <CNNscore>
0.7244716883

> <CNNaffinity>
7.1597084999

> <CNN_VS>
5.1870059967

> <CNNaffinity_variance>
0.0423384979

$$$$
[H]Oc1c([H])c([H])c(N([H])C(=S)N([H])c2c([H])c([H])c3nc([H])nc(N([H])c4c([H])c([H])c([H])c(Br)c4[H])c3c2[H])c([H])c1[H]


 33 36  0  0  0  0  0  0  0  0999 V2000
   -0.5807  -53.8203  -24.3823 C   0  0  0  0  0  0  0  0  0  0  0  0
   -1.1799  -54.9126  -23.7276 C   0  0  0  0  0  0  0  0  0  0  0  0
   -1.3095  -54.9473  -22.3658 C   0  0  0  0  0  0  0  0  0  0  0  0
   -0.8663  -53.9287  -21.5772 C   0  0  0  0  0  0  0  0  0  0  0  0
   -0.9834  -53.9441  -20.2311 N   0  0  0  0  0  0  0  0  0  0  0  0
   -0.5364  -52.9276  -19.4749 C   0  0  0  0  0  0  0  0  0  0  0  0
    0.0425  -51.8585  -20.0222 N   0  0  0  0  0  0  0  0  0  0  0  0
    0.1925  -51.7786  -21.3790 C   0  0  0  0  0  0  0  0  0  0  0  0
   -0.2619  -52.8169  -22.1726 C   0  0  0  0  0  0  0  0  0  0  0  0
   -0.1416  -52.8075  -23.5619 C   0  0  0  0  0  0  0  0  0  0  0  0
   -0.4312  -53.8426  -25.7873 N   0  0  0  0  0  0  0  0  0  0  0  0
   -1.3194  -54.0293  -26.3208 H   0  0  0  0  0  0  0  0  0  0  0  0
    0.7697  -53.6679  -26.4903 C   0  0  0  0  0  0  0  0  0  0  0  0
    0.7368  -53.6961  -28.1575 S   0  0  0  0  0  0  0  0  0  0  0  0
    2.0417  -53.5081  -25.9203 N   0  0  0  0  0  0  0  0  0  0  0  0
    2.5842  -54.4056  -25.6883 H   0  0  0  0  0  0  0  0  0  0  0  0
    4.8730  -48.8650  -24.4704 O   0  0  0  0  0  0  0  0  0  0  0  0
    4.1646  -50.0231  -24.8445 C   0  0  0  0  0  0  0  0  0  0  0  0
    4.6972  -51.2784  -24.6540 C   0  0  0  0  0  0  0  0  0  0  0  0
    3.9728  -52.3825  -25.0338 C   0  0  0  0  0  0  0  0  0  0  0  0
    2.7143  -52.3051  -25.6079 C   0  0  0  0  0  0  0  0  0  0  0  0
    2.2124  -51.0427  -25.7827 C   0  0  0  0  0  0  0  0  0  0  0  0
    2.9223  -49.8980  -25.4085 C   0  0  0  0  0  0  0  0  0  0  0  0
    4.7353  -48.5083  -23.5205 H   0  0  0  0  0  0  0  0  0  0  0  0
    0.7618  -50.6348  -21.9731 N   0  0  0  0  0  0  0  0  0  0  0  0
    0.2598  -50.0159  -22.6563 H   0  0  0  0  0  0  0  0  0  0  0  0
    2.0873  -50.2387  -21.6680 C   0  0  0  0  0  0  0  0  0  0  0  0
    3.1203  -51.0749  -21.3749 C   0  0  0  0  0  0  0  0  0  0  0  0
    4.3882  -50.6184  -21.0517 C   0  0  0  0  0  0  0  0  0  0  0  0
    4.6545  -49.2786  -21.0155 C   0  0  0  0  0  0  0  0  0  0  0  0
    3.6322  -48.3924  -21.3082 C   0  0  0  0  0  0  0  0  0  0  0  0
    4.0385  -46.5320  -21.2493 Br  0  0  0  0  0  0  0  0  0  0  0  0
    2.3836  -48.8668  -21.6254 C   0  0  0  0  0  0  0  0  0  0  0  0
 17 18  1  0  0  0
 18 19  2  0  0  0
 19 20  1  0  0  0
 20 21  2  0  0  0
 21 15  1  0  0  0
 15 13  1  0  0  0
 13 14  2  0  0  0
 13 11  1  0  0  0
 11  1  1  0  0  0
  1  2  2  0  0  0
  2  3  1  0  0  0
  3  4  2  0  0  0
  4  5  1  0  0  0
  5  6  2  0  0  0
  6  7  1  0  0  0
  7  8  2  0  0  0
  8 25  1  0  0  0
 25 27  1  0  0  0
 27 28  2  0  0  0
 28 29  1  0  0  0
 29 30  2  0  0  0
 30 31  1  0  0  0
 31 32  1  0  0  0
 31 33  2  0  0  0
  8  9  1  0  0  0
  9 10  2  0  0  0
 21 22  1  0  0  0
 22 23  2  0  0  0
 23 18  1  0  0  0
 10  1  1  0  0  0
  9  4  1  0  0  0
 33 27  1  0  0  0
 17 24  1  0  0  0
 15 16  1  0  0  0
 11 12  1  0  0  0
 25 26  1  0  0  0
M  END
> <minimizedAffinity>
-7.64147

> <CNNscore>
0.4476387501

> <CNNaffinity>
7.0258989334

> <CNN_VS>
3.1450645924

> <CNNaffinity_variance>
0.1150892526

$$$$
[H]Oc1c([H])c([H])c(N([H])C(=S)N([H])c2c([H])c([H])c3nc([H])nc(N([H])c4c([H])c([H])c([H])c(Br)c4[H])c3c2[H])c([H])c1[H]


 33 36  0  0  0  0  0  0  0  0999 V2000
    4.0914  -52.2286  -24.5480 C   0  0  0  0  0  0  0  0  0  0  0  0
    5.4262  -52.1786  -24.1047 C   0  0  0  0  0  0  0  0  0  0  0  0
    5.7536  -51.6744  -22.8754 C   0  0  0  0  0  0  0  0  0  0  0  0
    4.8062  -51.1968  -22.0209 C   0  0  0  0  0  0  0  0  0  0  0  0
    5.1085  -50.6936  -20.8038 N   0  0  0  0  0  0  0  0  0  0  0  0
    4.1558  -50.2267  -19.9797 C   0  0  0  0  0  0  0  0  0  0  0  0
    2.8691  -50.2404  -20.3289 N   0  0  0  0  0  0  0  0  0  0  0  0
    2.4940  -50.7362  -21.5468 C   0  0  0  0  0  0  0  0  0  0  0  0
    3.4625  -51.2207  -22.4079 C   0  0  0  0  0  0  0  0  0  0  0  0
    3.1566  -51.7388  -23.6660 C   0  0  0  0  0  0  0  0  0  0  0  0
    3.8010  -52.7206  -25.8405 N   0  0  0  0  0  0  0  0  0  0  0  0
    4.2417  -53.6497  -26.0661 H   0  0  0  0  0  0  0  0  0  0  0  0
    3.0231  -52.0742  -26.8119 C   0  0  0  0  0  0  0  0  0  0  0  0
    3.1276  -50.4156  -26.9526 S   0  0  0  0  0  0  0  0  0  0  0  0
    2.1069  -52.6907  -27.6772 N   0  0  0  0  0  0  0  0  0  0  0  0
    2.5168  -53.2912  -28.4679 H   0  0  0  0  0  0  0  0  0  0  0  0
   -3.5088  -52.3496  -27.8320 O   0  0  0  0  0  0  0  0  0  0  0  0
   -2.1045  -52.4444  -27.7860 C   0  0  0  0  0  0  0  0  0  0  0  0
   -1.3670  -52.6754  -28.9255 C   0  0  0  0  0  0  0  0  0  0  0  0
    0.0015  -52.7614  -28.8366 C   0  0  0  0  0  0  0  0  0  0  0  0
    0.6955  -52.6268  -27.6451 C   0  0  0  0  0  0  0  0  0  0  0  0
   -0.0668  -52.3967  -26.5306 C   0  0  0  0  0  0  0  0  0  0  0  0
   -1.4607  -52.3041  -26.5849 C   0  0  0  0  0  0  0  0  0  0  0  0
   -3.9191  -51.4244  -27.9866 H   0  0  0  0  0  0  0  0  0  0  0  0
    1.1340  -50.7977  -21.9098 N   0  0  0  0  0  0  0  0  0  0  0  0
    0.6393  -50.0553  -22.4630 H   0  0  0  0  0  0  0  0  0  0  0  0
    0.3308  -51.9048  -21.5408 C   0  0  0  0  0  0  0  0  0  0  0  0
   -0.1575  -52.1537  -20.2951 C   0  0  0  0  0  0  0  0  0  0  0  0
   -0.9114  -53.2768  -19.9940 C   0  0  0  0  0  0  0  0  0  0  0  0
   -1.2002  -54.1978  -20.9612 C   0  0  0  0  0  0  0  0  0  0  0  0
   -0.7240  -53.9831  -22.2430 C   0  0  0  0  0  0  0  0  0  0  0  0
   -1.1459  -55.2866  -23.5668 Br  0  0  0  0  0  0  0  0  0  0  0  0
    0.0215  -52.8638  -22.5188 C   0  0  0  0  0  0  0  0  0  0  0  0
 17 18  1  0  0  0
 18 19  2  0  0  0
 19 20  1  0  0  0
 20 21  2  0  0  0
 21 15  1  0  0  0
 15 13  1  0  0  0
 13 14  2  0  0  0
 13 11  1  0  0  0
 11  1  1  0  0  0
  1  2  2  0  0  0
  2  3  1  0  0  0
  3  4  2  0  0  0
  4  5  1  0  0  0
  5  6  2  0  0  0
  6  7  1  0  0  0
  7  8  2  0  0  0
  8 25  1  0  0  0
 25 27  1  0  0  0
 27 28  2  0  0  0
 28 29  1  0  0  0
 29 30  2  0  0  0
 30 31  1  0  0  0
 31 32  1  0  0  0
 31 33  2  0  0  0
  8  9  1  0  0  0
  9 10  2  0  0  0
 21 22  1  0  0  0
 22 23  2  0  0  0
 23 18  1  0  0  0
 10  1  1  0  0  0
  9  4  1  0  0  0
 33 27  1  0  0  0
 17 24  1  0  0  0
 15 16  1  0  0  0
 11 12  1  0  0  0
 25 26  1  0  0  0
M  END
> <minimizedAffinity>
-9.07264

> <CNNscore>
0.3971284330

> <CNNaffinity>
6.9480295181

> <CNN_VS>
2.7592601776

> <CNNaffinity_variance>
0.2104530782

$$$$
[H]Oc1c([H])c([H])c(N([H])C(=S)N([H])c2c([H])c([H])c3nc([H])nc(N([H])c4c([H])c([H])c([H])c(Br)c4[H])c3c2[H])c([H])c1[H]


 33 36  0  0  0  0  0  0  0  0999 V2000
    0.4318  -50.8268  -20.3075 C   0  0  0  0  0  0  0  0  0  0  0  0
    0.4676  -51.8793  -19.3739 C   0  0  0  0  0  0  0  0  0  0  0  0
    0.1286  -53.1580  -19.7236 C   0  0  0  0  0  0  0  0  0  0  0  0
   -0.2596  -53.4759  -20.9901 C   0  0  0  0  0  0  0  0  0  0  0  0
   -0.5997  -54.7316  -21.3555 N   0  0  0  0  0  0  0  0  0  0  0  0
   -0.9813  -55.0194  -22.6112 C   0  0  0  0  0  0  0  0  0  0  0  0
   -1.0403  -54.0760  -23.5514 N   0  0  0  0  0  0  0  0  0  0  0  0
   -0.7092  -52.7843  -23.2491 C   0  0  0  0  0  0  0  0  0  0  0  0
   -0.3145  -52.4704  -21.9607 C   0  0  0  0  0  0  0  0  0  0  0  0
    0.0353  -51.1760  -21.5773 C   0  0  0  0  0  0  0  0  0  0  0  0
    0.7517  -49.5137  -19.8947 N   0  0  0  0  0  0  0  0  0  0  0  0
    0.1249  -48.7647  -20.2877 H   0  0  0  0  0  0  0  0  0  0  0  0
    1.8156  -49.1505  -19.0564 C   0  0  0  0  0  0  0  0  0  0  0  0
    3.3702  -49.2135  -19.6571 S   0  0  0  0  0  0  0  0  0  0  0  0
    1.7100  -48.7672  -17.7109 N   0  0  0  0  0  0  0  0  0  0  0  0
    1.0955  -47.9123  -17.4983 H   0  0  0  0  0  0  0  0  0  0  0  0
    4.2047  -50.8862  -13.1324 O   0  0  0  0  0  0  0  0  0  0  0  0
    3.5717  -50.3639  -14.2768 C   0  0  0  0  0  0  0  0  0  0  0  0
    3.1465  -49.0552  -14.3227 C   0  0  0  0  0  0  0  0  0  0  0  0
    2.5327  -48.5855  -15.4588 C   0  0  0  0  0  0  0  0  0  0  0  0
    2.3124  -49.3665  -16.5817 C   0  0  0  0  0  0  0  0  0  0  0  0
    2.7479  -50.6628  -16.5046 C   0  0  0  0  0  0  0  0  0  0  0  0
    3.3755  -51.1735  -15.3645 C   0  0  0  0  0  0  0  0  0  0  0  0
    5.2244  -50.8129  -13.0767 H   0  0  0  0  0  0  0  0  0  0  0  0
   -0.7242  -51.7867  -24.2440 N   0  0  0  0  0  0  0  0  0  0  0  0
   -0.8995  -50.7694  -24.0536 H   0  0  0  0  0  0  0  0  0  0  0  0
   -0.4906  -52.1100  -25.6033 C   0  0  0  0  0  0  0  0  0  0  0  0
   -1.4483  -52.3364  -26.5435 C   0  0  0  0  0  0  0  0  0  0  0  0
   -1.1501  -52.6825  -27.8518 C   0  0  0  0  0  0  0  0  0  0  0  0
    0.1488  -52.8113  -28.2562 C   0  0  0  0  0  0  0  0  0  0  0  0
    1.1550  -52.5887  -27.3320 C   0  0  0  0  0  0  0  0  0  0  0  0
    2.9542  -52.7760  -27.9298 Br  0  0  0  0  0  0  0  0  0  0  0  0
    0.8366  -52.2473  -26.0409 C   0  0  0  0  0  0  0  0  0  0  0  0
 17 18  1  0  0  0
 18 19  2  0  0  0
 19 20  1  0  0  0
 20 21  2  0  0  0
 21 15  1  0  0  0
 15 13  1  0  0  0
 13 14  2  0  0  0
 13 11  1  0  0  0
 11  1  1  0  0  0
  1  2  2  0  0  0
  2  3  1  0  0  0
  3  4  2  0  0  0
  4  5  1  0  0  0
  5  6  2  0  0  0
  6  7  1  0  0  0
  7  8  2  0  0  0
  8 25  1  0  0  0
 25 27  1  0  0  0
 27 28  2  0  0  0
 28 29  1  0  0  0
 29 30  2  0  0  0
 30 31  1  0  0  0
 31 32  1  0  0  0
 31 33  2  0  0  0
  8  9  1  0  0  0
  9 10  2  0  0  0
 21 22  1  0  0  0
 22 23  2  0  0  0
 23 18  1  0  0  0
 10  1  1  0  0  0
  9  4  1  0  0  0
 33 27  1  0  0  0
 17 24  1  0  0  0
 15 16  1  0  0  0
 11 12  1  0  0  0
 25 26  1  0  0  0
M  END
> <minimizedAffinity>
-7.44571

> <CNNscore>
0.3915195763

> <CNNaffinity>
6.6421842575

> <CNN_VS>
2.6005451679

> <CNNaffinity_variance>
0.4044443071

$$$$
[H]Oc1c([H])c([H])c(N([H])C(=S)N([H])c2c([H])c([H])c3nc([H])nc(N([H])c4c([H])c([H])c([H])c(Br)c4[H])c3c2[H])c([H])c1[H]


 33 36  0  0  0  0  0  0  0  0999 V2000
    1.2734  -51.9835  -22.2695 C   0  0  0  0  0  0  0  0  0  0  0  0
    1.4970  -50.9533  -23.2020 C   0  0  0  0  0  0  0  0  0  0  0  0
    1.8275  -49.6867  -22.8035 C   0  0  0  0  0  0  0  0  0  0  0  0
    1.9566  -49.3599  -21.4873 C   0  0  0  0  0  0  0  0  0  0  0  0
    2.2807  -48.1152  -21.0729 N   0  0  0  0  0  0  0  0  0  0  0  0
    2.4002  -47.8174  -19.7683 C   0  0  0  0  0  0  0  0  0  0  0  0
    2.2037  -48.7397  -18.8257 N   0  0  0  0  0  0  0  0  0  0  0  0
    1.8733  -50.0194  -19.1761 C   0  0  0  0  0  0  0  0  0  0  0  0
    1.7458  -50.3431  -20.5153 C   0  0  0  0  0  0  0  0  0  0  0  0
    1.4092  -51.6252  -20.9486 C   0  0  0  0  0  0  0  0  0  0  0  0
    0.8953  -53.2676  -22.7223 N   0  0  0  0  0  0  0  0  0  0  0  0
    1.6994  -53.9010  -22.9683 H   0  0  0  0  0  0  0  0  0  0  0  0
   -0.4189  -53.7289  -22.8858 C   0  0  0  0  0  0  0  0  0  0  0  0
   -1.3438  -54.0191  -21.5287 S   0  0  0  0  0  0  0  0  0  0  0  0
   -1.0432  -54.0202  -24.1080 N   0  0  0  0  0  0  0  0  0  0  0  0
   -1.9504  -54.5937  -24.0633 H   0  0  0  0  0  0  0  0  0  0  0  0
    0.8027  -52.7666  -29.2750 O   0  0  0  0  0  0  0  0  0  0  0  0
    0.3297  -53.0778  -27.9856 C   0  0  0  0  0  0  0  0  0  0  0  0
    0.4888  -54.3369  -27.4515 C   0  0  0  0  0  0  0  0  0  0  0  0
    0.0119  -54.5988  -26.1898 C   0  0  0  0  0  0  0  0  0  0  0  0
   -0.6317  -53.6525  -25.4090 C   0  0  0  0  0  0  0  0  0  0  0  0
   -0.7730  -52.4102  -25.9684 C   0  0  0  0  0  0  0  0  0  0  0  0
   -0.3005  -52.1095  -27.2493 C   0  0  0  0  0  0  0  0  0  0  0  0
    1.7592  -52.4111  -29.3586 H   0  0  0  0  0  0  0  0  0  0  0  0
    1.7069  -51.0140  -18.1920 N   0  0  0  0  0  0  0  0  0  0  0  0
    2.4413  -51.7206  -17.9407 H   0  0  0  0  0  0  0  0  0  0  0  0
    0.5001  -51.1171  -17.4573 C   0  0  0  0  0  0  0  0  0  0  0  0
   -0.4021  -52.1321  -17.5472 C   0  0  0  0  0  0  0  0  0  0  0  0
   -1.5828  -52.1545  -16.8221 C   0  0  0  0  0  0  0  0  0  0  0  0
   -1.8915  -51.1335  -15.9680 C   0  0  0  0  0  0  0  0  0  0  0  0
   -1.0008  -50.0811  -15.8451 C   0  0  0  0  0  0  0  0  0  0  0  0
   -1.4622  -48.6751  -14.6452 Br  0  0  0  0  0  0  0  0  0  0  0  0
    0.1628  -50.0792  -16.5736 C   0  0  0  0  0  0  0  0  0  0  0  0
 17 18  1  0  0  0
 18 19  2  0  0  0
 19 20  1  0  0  0
 20 21  2  0  0  0
 21 15  1  0  0  0
 15 13  1  0  0  0
 13 14  2  0  0  0
 13 11  1  0  0  0
 11  1  1  0  0  0
  1  2  2  0  0  0
  2  3  1  0  0  0
  3  4  2  0  0  0
  4  5  1  0  0  0
  5  6  2  0  0  0
  6  7  1  0  0  0
  7  8  2  0  0  0
  8 25  1  0  0  0
 25 27  1  0  0  0
 27 28  2  0  0  0
 28 29  1  0  0  0
 29 30  2  0  0  0
 30 31  1  0  0  0
 31 32  1  0  0  0
 31 33  2  0  0  0
  8  9  1  0  0  0
  9 10  2  0  0  0
 21 22  1  0  0  0
 22 23  2  0  0  0
 23 18  1  0  0  0
 10  1  1  0  0  0
  9  4  1  0  0  0
 33 27  1  0  0  0
 17 24  1  0  0  0
 15 16  1  0  0  0
 11 12  1  0  0  0
 25 26  1  0  0  0
M  END
> <minimizedAffinity>
-7.64245

> <CNNscore>
0.3653858006

> <CNNaffinity>
6.9831113815

> <CNN_VS>
2.5515296459

> <CNNaffinity_variance>
0.2640352845

$$$$
[H]Oc1c([H])c([H])c(N([H])C(=S)N([H])c2c([H])c([H])c3nc([H])nc(N([H])c4c([H])c([H])c([H])c(Br)c4[H])c3c2[H])c([H])c1[H]


 33 36  0  0  0  0  0  0  0  0999 V2000
   -0.7879  -53.2617  -21.8627 C   0  0  0  0  0  0  0  0  0  0  0  0
   -1.4324  -54.4987  -22.0502 C   0  0  0  0  0  0  0  0  0  0  0  0
   -1.3361  -55.1841  -23.2306 C   0  0  0  0  0  0  0  0  0  0  0  0
   -0.6133  -54.7048  -24.2811 C   0  0  0  0  0  0  0  0  0  0  0  0
   -0.5067  -55.3650  -25.4553 N   0  0  0  0  0  0  0  0  0  0  0  0
    0.2110  -54.8701  -26.4775 C   0  0  0  0  0  0  0  0  0  0  0  0
    0.8498  -53.7043  -26.3759 N   0  0  0  0  0  0  0  0  0  0  0  0
    0.7838  -52.9846  -25.2151 C   0  0  0  0  0  0  0  0  0  0  0  0
    0.0487  -53.4795  -24.1526 C   0  0  0  0  0  0  0  0  0  0  0  0
   -0.0667  -52.8014  -22.9395 C   0  0  0  0  0  0  0  0  0  0  0  0
   -0.9458  -52.5681  -20.6416 N   0  0  0  0  0  0  0  0  0  0  0  0
   -1.7853  -51.9341  -20.6019 H   0  0  0  0  0  0  0  0  0  0  0  0
   -0.0857  -52.6409  -19.5363 C   0  0  0  0  0  0  0  0  0  0  0  0
    1.5114  -52.2013  -19.7302 S   0  0  0  0  0  0  0  0  0  0  0  0
   -0.4285  -53.0977  -18.2549 N   0  0  0  0  0  0  0  0  0  0  0  0
    0.1247  -53.9370  -17.8765 H   0  0  0  0  0  0  0  0  0  0  0  0
   -4.1550  -50.9848  -14.6045 O   0  0  0  0  0  0  0  0  0  0  0  0
   -3.2298  -51.5106  -15.5268 C   0  0  0  0  0  0  0  0  0  0  0  0
   -1.9591  -50.9922  -15.6376 C   0  0  0  0  0  0  0  0  0  0  0  0
   -1.0874  -51.5343  -16.5509 C   0  0  0  0  0  0  0  0  0  0  0  0
   -1.4185  -52.5917  -17.3826 C   0  0  0  0  0  0  0  0  0  0  0  0
   -2.6891  -53.0851  -17.2470 C   0  0  0  0  0  0  0  0  0  0  0  0
   -3.6015  -52.5573  -16.3288 C   0  0  0  0  0  0  0  0  0  0  0  0
   -4.1748  -51.3916  -13.6651 H   0  0  0  0  0  0  0  0  0  0  0  0
    1.4906  -51.7733  -25.0793 N   0  0  0  0  0  0  0  0  0  0  0  0
    1.1707  -50.8580  -25.4814 H   0  0  0  0  0  0  0  0  0  0  0  0
    2.7120  -51.7188  -24.3637 C   0  0  0  0  0  0  0  0  0  0  0  0
    3.7432  -52.5992  -24.4812 C   0  0  0  0  0  0  0  0  0  0  0  0
    4.9003  -52.5068  -23.7242 C   0  0  0  0  0  0  0  0  0  0  0  0
    5.0525  -51.5025  -22.8101 C   0  0  0  0  0  0  0  0  0  0  0  0
    4.0280  -50.5840  -22.6591 C   0  0  0  0  0  0  0  0  0  0  0  0
    4.2737  -49.1968  -21.3767 Br  0  0  0  0  0  0  0  0  0  0  0  0
    2.8902  -50.6951  -23.4192 C   0  0  0  0  0  0  0  0  0  0  0  0
 17 18  1  0  0  0
 18 19  2  0  0  0
 19 20  1  0  0  0
 20 21  2  0  0  0
 21 15  1  0  0  0
 15 13  1  0  0  0
 13 14  2  0  0  0
 13 11  1  0  0  0
 11  1  1  0  0  0
  1  2  2  0  0  0
  2  3  1  0  0  0
  3  4  2  0  0  0
  4  5  1  0  0  0
  5  6  2  0  0  0
  6  7  1  0  0  0
  7  8  2  0  0  0
  8 25  1  0  0  0
 25 27  1  0  0  0
 27 28  2  0  0  0
 28 29  1  0  0  0
 29 30  2  0  0  0
 30 31  1  0  0  0
 31 32  1  0  0  0
 31 33  2  0  0  0
  8  9  1  0  0  0
  9 10  2  0  0  0
 21 22  1  0  0  0
 22 23  2  0  0  0
 23 18  1  0  0  0
 10  1  1  0  0  0
  9  4  1  0  0  0
 33 27  1  0  0  0
 17 24  1  0  0  0
 15 16  1  0  0  0
 11 12  1  0  0  0
 25 26  1  0  0  0
M  END
> <minimizedAffinity>
-8.24666

> <CNNscore>
0.3383648098

> <CNNaffinity>
6.7718186378

> <CNN_VS>
2.2913451195

> <CNNaffinity_variance>
0.0428584516

$$$$
[H]Oc1c([H])c([H])c(N([H])C(=S)N([H])c2c([H])c([H])c3nc([H])nc(N([H])c4c([H])c([H])c([H])c(Br)c4[H])c3c2[H])c([H])c1[H]


 33 36  0  0  0  0  0  0  0  0999 V2000
    1.0579  -51.8645  -25.5651 C   0  0  0  0  0  0  0  0  0  0  0  0
    0.9046  -53.0411  -26.3221 C   0  0  0  0  0  0  0  0  0  0  0  0
    0.2435  -54.1310  -25.8249 C   0  0  0  0  0  0  0  0  0  0  0  0
   -0.2986  -54.1321  -24.5750 C   0  0  0  0  0  0  0  0  0  0  0  0
   -0.9539  -55.1980  -24.0648 N   0  0  0  0  0  0  0  0  0  0  0  0
   -1.4781  -55.1750  -22.8280 C   0  0  0  0  0  0  0  0  0  0  0  0
   -1.3738  -54.0969  -22.0506 N   0  0  0  0  0  0  0  0  0  0  0  0
   -0.7233  -52.9834  -22.5053 C   0  0  0  0  0  0  0  0  0  0  0  0
   -0.1771  -52.9903  -23.7765 C   0  0  0  0  0  0  0  0  0  0  0  0
    0.5022  -51.8941  -24.3073 C   0  0  0  0  0  0  0  0  0  0  0  0
    1.7820  -50.7762  -26.1017 N   0  0  0  0  0  0  0  0  0  0  0  0
    1.4925  -50.4922  -27.0732 H   0  0  0  0  0  0  0  0  0  0  0  0
    2.8320  -50.0943  -25.4698 C   0  0  0  0  0  0  0  0  0  0  0  0
    3.5648  -48.8277  -26.2700 S   0  0  0  0  0  0  0  0  0  0  0  0
    3.3749  -50.4014  -24.2131 N   0  0  0  0  0  0  0  0  0  0  0  0
    3.9698  -51.2933  -24.1479 H   0  0  0  0  0  0  0  0  0  0  0  0
    2.6393  -47.3681  -19.5297 O   0  0  0  0  0  0  0  0  0  0  0  0
    2.8253  -48.1367  -20.6949 C   0  0  0  0  0  0  0  0  0  0  0  0
    1.8194  -48.2789  -21.6243 C   0  0  0  0  0  0  0  0  0  0  0  0
    2.0422  -49.0383  -22.7475 C   0  0  0  0  0  0  0  0  0  0  0  0
    3.2421  -49.6814  -23.0043 C   0  0  0  0  0  0  0  0  0  0  0  0
    4.2224  -49.5193  -22.0614 C   0  0  0  0  0  0  0  0  0  0  0  0
    4.0296  -48.7544  -20.9072 C   0  0  0  0  0  0  0  0  0  0  0  0
    2.8764  -46.3730  -19.5725 H   0  0  0  0  0  0  0  0  0  0  0  0
   -0.6449  -51.8222  -21.7112 N   0  0  0  0  0  0  0  0  0  0  0  0
   -1.3328  -51.0308  -21.7580 H   0  0  0  0  0  0  0  0  0  0  0  0
    0.3993  -51.6532  -20.7689 C   0  0  0  0  0  0  0  0  0  0  0  0
    1.6315  -52.2273  -20.8349 C   0  0  0  0  0  0  0  0  0  0  0  0
    2.5983  -52.0462  -19.8587 C   0  0  0  0  0  0  0  0  0  0  0  0
    2.3438  -51.2641  -18.7674 C   0  0  0  0  0  0  0  0  0  0  0  0
    1.1030  -50.6599  -18.6610 C   0  0  0  0  0  0  0  0  0  0  0  0
    0.7824  -49.5758  -17.1275 Br  0  0  0  0  0  0  0  0  0  0  0  0
    0.1599  -50.8536  -19.6396 C   0  0  0  0  0  0  0  0  0  0  0  0
 17 18  1  0  0  0
 18 19  2  0  0  0
 19 20  1  0  0  0
 20 21  2  0  0  0
 21 15  1  0  0  0
 15 13  1  0  0  0
 13 14  2  0  0  0
 13 11  1  0  0  0
 11  1  1  0  0  0
  1  2  2  0  0  0
  2  3  1  0  0  0
  3  4  2  0  0  0
  4  5  1  0  0  0
  5  6  2  0  0  0
  6  7  1  0  0  0
  7  8  2  0  0  0
  8 25  1  0  0  0
 25 27  1  0  0  0
 27 28  2  0  0  0
 28 29  1  0  0  0
 29 30  2  0  0  0
 30 31  1  0  0  0
 31 32  1  0  0  0
 31 33  2  0  0  0
  8  9  1  0  0  0
  9 10  2  0  0  0
 21 22  1  0  0  0
 22 23  2  0  0  0
 23 18  1  0  0  0
 10  1  1  0  0  0
  9  4  1  0  0  0
 33 27  1  0  0  0
 17 24  1  0  0  0
 15 16  1  0  0  0
 11 12  1  0  0  0
 25 26  1  0  0  0
M  END
> <minimizedAffinity>
-7.00011

> <CNNscore>
0.3169579208

> <CNNaffinity>
6.7791891098

> <CNN_VS>
2.1487176418

> <CNNaffinity_variance>
0.1583500206

$$$$
[H]Oc1c([H])c([H])c(N([H])C(=S)N([H])c2c([H])c([H])c3nc([H])nc(N([H])c4c([H])c([H])c([H])c(Br)c4[H])c3c2[H])c([H])c1[H]


 33 36  0  0  0  0  0  0  0  0999 V2000
    0.0544  -52.6642  -20.4950 C   0  0  0  0  0  0  0  0  0  0  0  0
    0.7678  -51.6388  -21.1433 C   0  0  0  0  0  0  0  0  0  0  0  0
    1.2022  -50.5313  -20.4673 C   0  0  0  0  0  0  0  0  0  0  0  0
    0.9666  -50.3659  -19.1357 C   0  0  0  0  0  0  0  0  0  0  0  0
    1.3855  -49.2795  -18.4500 N   0  0  0  0  0  0  0  0  0  0  0  0
    1.1388  -49.1387  -17.1369 C   0  0  0  0  0  0  0  0  0  0  0  0
    0.4691  -50.0673  -16.4537 N   0  0  0  0  0  0  0  0  0  0  0  0
    0.0169  -51.1919  -17.0865 C   0  0  0  0  0  0  0  0  0  0  0  0
    0.2619  -51.3526  -18.4388 C   0  0  0  0  0  0  0  0  0  0  0  0
   -0.1700  -52.4704  -19.1519 C   0  0  0  0  0  0  0  0  0  0  0  0
   -0.4101  -53.7722  -21.2389 N   0  0  0  0  0  0  0  0  0  0  0  0
   -0.5015  -54.6644  -20.6876 H   0  0  0  0  0  0  0  0  0  0  0  0
   -0.7190  -53.7742  -22.6069 C   0  0  0  0  0  0  0  0  0  0  0  0
   -1.2250  -55.1969  -23.3148 S   0  0  0  0  0  0  0  0  0  0  0  0
   -0.6041  -52.6808  -23.4785 N   0  0  0  0  0  0  0  0  0  0  0  0
   -0.9815  -51.7391  -23.1257 H   0  0  0  0  0  0  0  0  0  0  0  0
    1.3392  -52.6214  -28.7602 O   0  0  0  0  0  0  0  0  0  0  0  0
    0.8608  -52.6279  -27.4358 C   0  0  0  0  0  0  0  0  0  0  0  0
   -0.4450  -52.3008  -27.1468 C   0  0  0  0  0  0  0  0  0  0  0  0
   -0.8711  -52.3190  -25.8407 C   0  0  0  0  0  0  0  0  0  0  0  0
   -0.0482  -52.6535  -24.7775 C   0  0  0  0  0  0  0  0  0  0  0  0
    1.2441  -52.9748  -25.0984 C   0  0  0  0  0  0  0  0  0  0  0  0
    1.7110  -52.9659  -26.4161 C   0  0  0  0  0  0  0  0  0  0  0  0
    1.2632  -53.4891  -29.2985 H   0  0  0  0  0  0  0  0  0  0  0  0
   -0.6529  -52.2014  -16.3671 N   0  0  0  0  0  0  0  0  0  0  0  0
   -0.1951  -53.0825  -16.0264 H   0  0  0  0  0  0  0  0  0  0  0  0
   -2.0274  -52.0783  -16.0473 C   0  0  0  0  0  0  0  0  0  0  0  0
   -3.0531  -52.6994  -16.6912 C   0  0  0  0  0  0  0  0  0  0  0  0
   -4.3819  -52.5084  -16.3474 C   0  0  0  0  0  0  0  0  0  0  0  0
   -4.7193  -51.6694  -15.3229 C   0  0  0  0  0  0  0  0  0  0  0  0
   -3.7068  -51.0180  -14.6400 C   0  0  0  0  0  0  0  0  0  0  0  0
   -4.2127  -49.8565  -13.2170 Br  0  0  0  0  0  0  0  0  0  0  0  0
   -2.3972  -51.2216  -14.9979 C   0  0  0  0  0  0  0  0  0  0  0  0
 17 18  1  0  0  0
 18 19  2  0  0  0
 19 20  1  0  0  0
 20 21  2  0  0  0
 21 15  1  0  0  0
 15 13  1  0  0  0
 13 14  2  0  0  0
 13 11  1  0  0  0
 11  1  1  0  0  0
  1  2  2  0  0  0
  2  3  1  0  0  0
  3  4  2  0  0  0
  4  5  1  0  0  0
  5  6  2  0  0  0
  6  7  1  0  0  0
  7  8  2  0  0  0
  8 25  1  0  0  0
 25 27  1  0  0  0
 27 28  2  0  0  0
 28 29  1  0  0  0
 29 30  2  0  0  0
 30 31  1  0  0  0
 31 32  1  0  0  0
 31 33  2  0  0  0
  8  9  1  0  0  0
  9 10  2  0  0  0
 21 22  1  0  0  0
 22 23  2  0  0  0
 23 18  1  0  0  0
 10  1  1  0  0  0
  9  4  1  0  0  0
 33 27  1  0  0  0
 17 24  1  0  0  0
 15 16  1  0  0  0
 11 12  1  0  0  0
 25 26  1  0  0  0
M  END
> <minimizedAffinity>
-8.22925

> <CNNscore>
0.2918039560

> <CNNaffinity>
6.7271094322

> <CNN_VS>
1.9629971981

> <CNNaffinity_variance>
0.1552945971

$$$$
[H]OC(C([H])([H])[H])(C([H])([H])[H])C([H])([H])Oc1c([H])c([H])c(N([H])c2nc([H])c(F)c(N([H])c3c([H])c([H])c([H])c(N([H])C(=O)C([H])=C([H])[H])c3[H])n2)c([H])c1F


 37 39  0  0  0  0  0  0  0  0999 V2000
   -1.1495  -53.9766  -21.1615 C   0  0  0  0  0  0  0  0  0  0  0  0
   -1.7689  -54.9527  -21.9090 N   0  0  0  0  0  0  0  0  0  0  0  0
   -1.5173  -55.1318  -23.2031 C   0  0  0  0  0  0  0  0  0  0  0  0
   -0.6165  -54.3456  -23.8762 C   0  0  0  0  0  0  0  0  0  0  0  0
   -0.3653  -54.5392  -25.2082 F   0  0  0  0  0  0  0  0  0  0  0  0
    0.0255  -53.3474  -23.1387 C   0  0  0  0  0  0  0  0  0  0  0  0
   -0.2769  -53.2177  -21.8149 N   0  0  0  0  0  0  0  0  0  0  0  0
   -1.5481  -53.8634  -19.8090 N   0  0  0  0  0  0  0  0  0  0  0  0
   -2.3312  -54.5291  -19.4494 H   0  0  0  0  0  0  0  0  0  0  0  0
   -0.0584  -51.1442  -16.9069 C   0  0  0  0  0  0  0  0  0  0  0  0
    0.4809  -51.2166  -18.1736 C   0  0  0  0  0  0  0  0  0  0  0  0
   -0.0056  -52.1073  -19.0992 C   0  0  0  0  0  0  0  0  0  0  0  0
   -1.0665  -52.9879  -18.8203 C   0  0  0  0  0  0  0  0  0  0  0  0
   -1.5912  -52.9025  -17.5590 C   0  0  0  0  0  0  0  0  0  0  0  0
   -1.0978  -51.9948  -16.6092 C   0  0  0  0  0  0  0  0  0  0  0  0
   -1.6454  -51.9508  -15.3876 F   0  0  0  0  0  0  0  0  0  0  0  0
    0.4215  -50.2474  -15.9527 O   0  0  0  0  0  0  0  0  0  0  0  0
    0.4215  -48.8622  -16.2443 C   0  0  0  0  0  0  0  0  0  0  0  0
    2.5595  -48.8578  -15.0762 C   0  0  0  0  0  0  0  0  0  0  0  0
    1.2833  -48.0766  -15.3076 C   0  0  0  0  0  0  0  0  0  0  0  0
    0.6173  -47.8804  -13.9555 C   0  0  0  0  0  0  0  0  0  0  0  0
    1.6000  -46.8116  -15.7980 O   0  0  0  0  0  0  0  0  0  0  0  0
    2.5733  -46.7456  -15.9393 H   0  0  0  0  0  0  0  0  0  0  0  0
    0.9010  -52.5144  -23.8463 N   0  0  0  0  0  0  0  0  0  0  0  0
    0.4909  -51.9978  -24.6980 H   0  0  0  0  0  0  0  0  0  0  0  0
    2.2660  -52.2400  -23.6112 C   0  0  0  0  0  0  0  0  0  0  0  0
    3.2726  -52.7680  -24.3852 C   0  0  0  0  0  0  0  0  0  0  0  0
    4.5963  -52.5122  -24.1176 C   0  0  0  0  0  0  0  0  0  0  0  0
    4.9235  -51.6936  -23.0320 C   0  0  0  0  0  0  0  0  0  0  0  0
    3.9620  -51.1352  -22.2214 C   0  0  0  0  0  0  0  0  0  0  0  0
    2.6533  -51.4406  -22.5559 C   0  0  0  0  0  0  0  0  0  0  0  0
    4.2075  -50.3065  -21.1047 N   0  0  0  0  0  0  0  0  0  0  0  0
    4.0284  -50.5694  -19.7597 C   0  0  0  0  0  0  0  0  0  0  0  0
    3.5931  -51.6512  -19.3243 O   0  0  0  0  0  0  0  0  0  0  0  0
    4.5911  -49.3333  -21.3399 H   0  0  0  0  0  0  0  0  0  0  0  0
    4.3525  -49.5548  -18.7467 C   0  0  0  0  0  0  0  0  0  0  0  0
    3.5521  -48.5340  -18.5797 C   0  0  0  0  0  0  0  0  0  0  0  0
 19 20  1  0  0  0
 20 21  1  0  0  0
 20 22  1  0  0  0
 20 18  1  0  0  0
 18 17  1  0  0  0
 17 10  1  0  0  0
 10 11  2  0  0  0
 11 12  1  0  0  0
 12 13  2  0  0  0
 13  8  1  0  0  0
  8  1  1  0  0  0
  1  2  2  0  0  0
  2  3  1  0  0  0
  3  4  2  0  0  0
  4  5  1  0  0  0
  4  6  1  0  0  0
  6 24  1  0  0  0
 24 26  1  0  0  0
 26 27  2  0  0  0
 27 28  1  0  0  0
 28 29  2  0  0  0
 29 30  1  0  0  0
 30 32  1  0  0  0
 32 33  1  0  0  0
 33 34  2  0  0  0
 33 36  1  0  0  0
 36 37  2  0  0  0
 30 31  2  0  0  0
  6  7  2  0  0  0
 13 14  1  0  0  0
 14 15  2  0  0  0
 15 16  1  0  0  0
 15 10  1  0  0  0
  7  1  1  0  0  0
 31 26  1  0  0  0
 22 23  1  0  0  0
  8  9  1  0  0  0
 24 25  1  0  0  0
 32 35  1  0  0  0
M  END
> <minimizedAffinity>
-7.49263

> <CNNscore>
0.7867219448

> <CNNaffinity>
7.2150664330

> <CNN_VS>
5.6762509346

> <CNNaffinity_variance>
0.0391384885

$$$$
[H]OC(C([H])([H])[H])(C([H])([H])[H])C([H])([H])Oc1c([H])c([H])c(N([H])c2nc([H])c(F)c(N([H])c3c([H])c([H])c([H])c(N([H])C(=O)C([H])=C([H])[H])c3[H])n2)c([H])c1F


 37 39  0  0  0  0  0  0  0  0999 V2000
   -0.8709  -53.8447  -20.8104 C   0  0  0  0  0  0  0  0  0  0  0  0
   -1.6624  -54.6028  -21.6435 N   0  0  0  0  0  0  0  0  0  0  0  0
   -1.4283  -54.7141  -22.9484 C   0  0  0  0  0  0  0  0  0  0  0  0
   -0.3734  -54.0728  -23.5472 C   0  0  0  0  0  0  0  0  0  0  0  0
   -0.1419  -54.1948  -24.8912 F   0  0  0  0  0  0  0  0  0  0  0  0
    0.4449  -53.2969  -22.7220 C   0  0  0  0  0  0  0  0  0  0  0  0
    0.1504  -53.2259  -21.3920 N   0  0  0  0  0  0  0  0  0  0  0  0
   -1.2635  -53.7727  -19.4533 N   0  0  0  0  0  0  0  0  0  0  0  0
   -1.9111  -54.5578  -19.0660 H   0  0  0  0  0  0  0  0  0  0  0  0
   -0.2233  -50.7717  -16.6341 C   0  0  0  0  0  0  0  0  0  0  0  0
    0.3989  -50.8574  -17.8613 C   0  0  0  0  0  0  0  0  0  0  0  0
    0.0582  -51.8389  -18.7598 C   0  0  0  0  0  0  0  0  0  0  0  0
   -0.9301  -52.8034  -18.4914 C   0  0  0  0  0  0  0  0  0  0  0  0
   -1.5387  -52.7036  -17.2695 C   0  0  0  0  0  0  0  0  0  0  0  0
   -1.1942  -51.7032  -16.3476 C   0  0  0  0  0  0  0  0  0  0  0  0
   -1.8193  -51.6489  -15.1641 F   0  0  0  0  0  0  0  0  0  0  0  0
    0.1085  -49.7832  -15.7079 O   0  0  0  0  0  0  0  0  0  0  0  0
   -0.5126  -48.5145  -15.7985 C   0  0  0  0  0  0  0  0  0  0  0  0
   -2.8300  -48.3947  -15.0565 C   0  0  0  0  0  0  0  0  0  0  0  0
   -1.3898  -48.2175  -14.6240 C   0  0  0  0  0  0  0  0  0  0  0  0
   -1.2304  -46.7834  -14.1465 C   0  0  0  0  0  0  0  0  0  0  0  0
   -1.1311  -49.0457  -13.5339 O   0  0  0  0  0  0  0  0  0  0  0  0
   -1.9248  -49.5975  -13.3417 H   0  0  0  0  0  0  0  0  0  0  0  0
    1.4852  -52.6017  -23.3508 N   0  0  0  0  0  0  0  0  0  0  0  0
    2.0659  -53.1530  -24.0715 H   0  0  0  0  0  0  0  0  0  0  0  0
    1.8992  -51.2621  -23.1843 C   0  0  0  0  0  0  0  0  0  0  0  0
    2.4034  -50.5078  -24.2176 C   0  0  0  0  0  0  0  0  0  0  0  0
    2.8300  -49.2154  -24.0244 C   0  0  0  0  0  0  0  0  0  0  0  0
    2.7463  -48.6572  -22.7450 C   0  0  0  0  0  0  0  0  0  0  0  0
    2.2505  -49.3605  -21.6713 C   0  0  0  0  0  0  0  0  0  0  0  0
    1.8423  -50.6548  -21.9471 C   0  0  0  0  0  0  0  0  0  0  0  0
    2.1395  -48.8745  -20.3501 N   0  0  0  0  0  0  0  0  0  0  0  0
    3.1139  -48.7392  -19.3793 C   0  0  0  0  0  0  0  0  0  0  0  0
    4.3055  -49.0530  -19.5552 O   0  0  0  0  0  0  0  0  0  0  0  0
    1.1538  -48.5643  -20.0642 H   0  0  0  0  0  0  0  0  0  0  0  0
    2.7819  -48.2023  -18.0519 C   0  0  0  0  0  0  0  0  0  0  0  0
    3.5890  -47.3431  -17.4853 C   0  0  0  0  0  0  0  0  0  0  0  0
 19 20  1  0  0  0
 20 21  1  0  0  0
 20 22  1  0  0  0
 20 18  1  0  0  0
 18 17  1  0  0  0
 17 10  1  0  0  0
 10 11  2  0  0  0
 11 12  1  0  0  0
 12 13  2  0  0  0
 13  8  1  0  0  0
  8  1  1  0  0  0
  1  2  2  0  0  0
  2  3  1  0  0  0
  3  4  2  0  0  0
  4  5  1  0  0  0
  4  6  1  0  0  0
  6 24  1  0  0  0
 24 26  1  0  0  0
 26 27  2  0  0  0
 27 28  1  0  0  0
 28 29  2  0  0  0
 29 30  1  0  0  0
 30 32  1  0  0  0
 32 33  1  0  0  0
 33 34  2  0  0  0
 33 36  1  0  0  0
 36 37  2  0  0  0
 30 31  2  0  0  0
  6  7  2  0  0  0
 13 14  1  0  0  0
 14 15  2  0  0  0
 15 16  1  0  0  0
 15 10  1  0  0  0
  7  1  1  0  0  0
 31 26  1  0  0  0
 22 23  1  0  0  0
  8  9  1  0  0  0
 24 25  1  0  0  0
 32 35  1  0  0  0
M  END
> <minimizedAffinity>
-6.63013

> <CNNscore>
0.6025999188

> <CNNaffinity>
6.9749321938

> <CNN_VS>
4.2030935287

> <CNNaffinity_variance>
0.0854805186

$$$$
[H]OC(C([H])([H])[H])(C([H])([H])[H])C([H])([H])Oc1c([H])c([H])c(N([H])c2nc([H])c(F)c(N([H])c3c([H])c([H])c([H])c(N([H])C(=O)C([H])=C([H])[H])c3[H])n2)c([H])c1F


 37 39  0  0  0  0  0  0  0  0999 V2000
   -1.0218  -53.5739  -21.0134 C   0  0  0  0  0  0  0  0  0  0  0  0
   -1.2290  -54.8257  -21.5475 N   0  0  0  0  0  0  0  0  0  0  0  0
   -1.1102  -55.0783  -22.8483 C   0  0  0  0  0  0  0  0  0  0  0  0
   -0.7711  -54.0956  -23.7437 C   0  0  0  0  0  0  0  0  0  0  0  0
   -0.6515  -54.3671  -25.0804 F   0  0  0  0  0  0  0  0  0  0  0  0
   -0.5555  -52.8159  -23.2256 C   0  0  0  0  0  0  0  0  0  0  0  0
   -0.6923  -52.6245  -21.8819 N   0  0  0  0  0  0  0  0  0  0  0  0
   -1.2317  -53.4344  -19.6215 N   0  0  0  0  0  0  0  0  0  0  0  0
   -1.9930  -54.0572  -19.1542 H   0  0  0  0  0  0  0  0  0  0  0  0
    0.7039  -50.9253  -16.7941 C   0  0  0  0  0  0  0  0  0  0  0  0
   -0.3966  -51.6829  -16.4541 C   0  0  0  0  0  0  0  0  0  0  0  0
   -1.0178  -52.4833  -17.3816 C   0  0  0  0  0  0  0  0  0  0  0  0
   -0.5797  -52.5806  -18.7148 C   0  0  0  0  0  0  0  0  0  0  0  0
    0.5143  -51.8231  -19.0356 C   0  0  0  0  0  0  0  0  0  0  0  0
    1.1525  -51.0033  -18.0922 C   0  0  0  0  0  0  0  0  0  0  0  0
    2.2197  -50.2804  -18.4566 F   0  0  0  0  0  0  0  0  0  0  0  0
    1.3483  -50.1060  -15.8676 O   0  0  0  0  0  0  0  0  0  0  0  0
    1.9637  -50.6931  -14.7360 C   0  0  0  0  0  0  0  0  0  0  0  0
    3.9988  -52.0049  -15.0058 C   0  0  0  0  0  0  0  0  0  0  0  0
    3.4563  -50.6089  -14.7836 C   0  0  0  0  0  0  0  0  0  0  0  0
    4.0365  -50.0971  -13.4754 C   0  0  0  0  0  0  0  0  0  0  0  0
    3.9176  -49.7691  -15.7951 O   0  0  0  0  0  0  0  0  0  0  0  0
    4.4343  -50.2933  -16.4506 H   0  0  0  0  0  0  0  0  0  0  0  0
   -0.2648  -51.8080  -24.1533 N   0  0  0  0  0  0  0  0  0  0  0  0
   -1.1022  -51.2454  -24.5310 H   0  0  0  0  0  0  0  0  0  0  0  0
    0.9816  -51.4057  -24.6808 C   0  0  0  0  0  0  0  0  0  0  0  0
    1.3285  -51.6030  -25.9968 C   0  0  0  0  0  0  0  0  0  0  0  0
    2.5604  -51.2315  -26.4803 C   0  0  0  0  0  0  0  0  0  0  0  0
    3.4801  -50.6376  -25.6102 C   0  0  0  0  0  0  0  0  0  0  0  0
    3.1919  -50.4128  -24.2836 C   0  0  0  0  0  0  0  0  0  0  0  0
    1.9317  -50.8151  -23.8737 C   0  0  0  0  0  0  0  0  0  0  0  0
    4.0642  -49.8275  -23.3401 N   0  0  0  0  0  0  0  0  0  0  0  0
    4.8779  -50.4339  -22.4018 C   0  0  0  0  0  0  0  0  0  0  0  0
    4.9525  -51.6676  -22.2536 O   0  0  0  0  0  0  0  0  0  0  0  0
    4.0984  -48.7560  -23.3602 H   0  0  0  0  0  0  0  0  0  0  0  0
    5.7204  -49.6288  -21.5059 C   0  0  0  0  0  0  0  0  0  0  0  0
    6.8696  -50.1056  -21.1028 C   0  0  0  0  0  0  0  0  0  0  0  0
 19 20  1  0  0  0
 20 21  1  0  0  0
 20 22  1  0  0  0
 20 18  1  0  0  0
 18 17  1  0  0  0
 17 10  1  0  0  0
 10 11  2  0  0  0
 11 12  1  0  0  0
 12 13  2  0  0  0
 13  8  1  0  0  0
  8  1  1  0  0  0
  1  2  2  0  0  0
  2  3  1  0  0  0
  3  4  2  0  0  0
  4  5  1  0  0  0
  4  6  1  0  0  0
  6 24  1  0  0  0
 24 26  1  0  0  0
 26 27  2  0  0  0
 27 28  1  0  0  0
 28 29  2  0  0  0
 29 30  1  0  0  0
 30 32  1  0  0  0
 32 33  1  0  0  0
 33 34  2  0  0  0
 33 36  1  0  0  0
 36 37  2  0  0  0
 30 31  2  0  0  0
  6  7  2  0  0  0
 13 14  1  0  0  0
 14 15  2  0  0  0
 15 16  1  0  0  0
 15 10  1  0  0  0
  7  1  1  0  0  0
 31 26  1  0  0  0
 22 23  1  0  0  0
  8  9  1  0  0  0
 24 25  1  0  0  0
 32 35  1  0  0  0
M  END
> <minimizedAffinity>
-7.29248

> <CNNscore>
0.5123810172

> <CNNaffinity>
7.0225882530

> <CNN_VS>
3.5982408524

> <CNNaffinity_variance>
0.0977123007

$$$$
[H]OC(C([H])([H])[H])(C([H])([H])[H])C([H])([H])Oc1c([H])c([H])c(N([H])c2nc([H])c(F)c(N([H])c3c([H])c([H])c([H])c(N([H])C(=O)C([H])=C([H])[H])c3[H])n2)c([H])c1F


 37 39  0  0  0  0  0  0  0  0999 V2000
   -0.7752  -54.2463  -22.4367 C   0  0  0  0  0  0  0  0  0  0  0  0
   -1.0417  -55.4687  -23.0113 N   0  0  0  0  0  0  0  0  0  0  0  0
   -0.8580  -55.7063  -24.3074 C   0  0  0  0  0  0  0  0  0  0  0  0
   -0.3876  -54.7369  -25.1568 C   0  0  0  0  0  0  0  0  0  0  0  0
   -0.2022  -54.9930  -26.4890 F   0  0  0  0  0  0  0  0  0  0  0  0
   -0.1096  -53.4872  -24.5969 C   0  0  0  0  0  0  0  0  0  0  0  0
   -0.3187  -53.3099  -23.2607 N   0  0  0  0  0  0  0  0  0  0  0  0
   -1.0640  -54.1160  -21.0581 N   0  0  0  0  0  0  0  0  0  0  0  0
   -1.8509  -54.7413  -20.6392 H   0  0  0  0  0  0  0  0  0  0  0  0
    0.6812  -51.6062  -18.1101 C   0  0  0  0  0  0  0  0  0  0  0  0
   -0.5966  -52.1045  -17.9706 C   0  0  0  0  0  0  0  0  0  0  0  0
   -1.1514  -52.9082  -18.9366 C   0  0  0  0  0  0  0  0  0  0  0  0
   -0.4645  -53.2687  -20.1101 C   0  0  0  0  0  0  0  0  0  0  0  0
    0.8029  -52.7666  -20.2326 C   0  0  0  0  0  0  0  0  0  0  0  0
    1.3744  -51.9447  -19.2490 C   0  0  0  0  0  0  0  0  0  0  0  0
    2.6187  -51.4779  -19.4166 F   0  0  0  0  0  0  0  0  0  0  0  0
    1.2622  -50.7884  -17.1413 O   0  0  0  0  0  0  0  0  0  0  0  0
    1.0329  -49.3923  -17.1871 C   0  0  0  0  0  0  0  0  0  0  0  0
    2.3860  -48.3463  -18.9221 C   0  0  0  0  0  0  0  0  0  0  0  0
    2.2840  -48.6109  -17.4348 C   0  0  0  0  0  0  0  0  0  0  0  0
    3.5257  -49.3849  -17.0233 C   0  0  0  0  0  0  0  0  0  0  0  0
    2.3081  -47.3987  -16.7485 O   0  0  0  0  0  0  0  0  0  0  0  0
    2.3211  -46.6535  -17.3935 H   0  0  0  0  0  0  0  0  0  0  0  0
    0.3167  -52.4884  -25.4811 N   0  0  0  0  0  0  0  0  0  0  0  0
   -0.3502  -52.2468  -26.2919 H   0  0  0  0  0  0  0  0  0  0  0  0
    1.5091  -51.7323  -25.4740 C   0  0  0  0  0  0  0  0  0  0  0  0
    1.9366  -51.0114  -26.5642 C   0  0  0  0  0  0  0  0  0  0  0  0
    3.1176  -50.3083  -26.5446 C   0  0  0  0  0  0  0  0  0  0  0  0
    3.8999  -50.3278  -25.3856 C   0  0  0  0  0  0  0  0  0  0  0  0
    3.5257  -51.0292  -24.2625 C   0  0  0  0  0  0  0  0  0  0  0  0
    2.3245  -51.7113  -24.3616 C   0  0  0  0  0  0  0  0  0  0  0  0
    4.2594  -51.1063  -23.0585 N   0  0  0  0  0  0  0  0  0  0  0  0
    4.4388  -50.1505  -22.0765 C   0  0  0  0  0  0  0  0  0  0  0  0
    3.9411  -49.0107  -22.1297 O   0  0  0  0  0  0  0  0  0  0  0  0
    4.7443  -52.0466  -22.8843 H   0  0  0  0  0  0  0  0  0  0  0  0
    5.2499  -50.4405  -20.8855 C   0  0  0  0  0  0  0  0  0  0  0  0
    5.6911  -49.4520  -20.1514 C   0  0  0  0  0  0  0  0  0  0  0  0
 19 20  1  0  0  0
 20 21  1  0  0  0
 20 22  1  0  0  0
 20 18  1  0  0  0
 18 17  1  0  0  0
 17 10  1  0  0  0
 10 11  2  0  0  0
 11 12  1  0  0  0
 12 13  2  0  0  0
 13  8  1  0  0  0
  8  1  1  0  0  0
  1  2  2  0  0  0
  2  3  1  0  0  0
  3  4  2  0  0  0
  4  5  1  0  0  0
  4  6  1  0  0  0
  6 24  1  0  0  0
 24 26  1  0  0  0
 26 27  2  0  0  0
 27 28  1  0  0  0
 28 29  2  0  0  0
 29 30  1  0  0  0
 30 32  1  0  0  0
 32 33  1  0  0  0
 33 34  2  0  0  0
 33 36  1  0  0  0
 36 37  2  0  0  0
 30 31  2  0  0  0
  6  7  2  0  0  0
 13 14  1  0  0  0
 14 15  2  0  0  0
 15 16  1  0  0  0
 15 10  1  0  0  0
  7  1  1  0  0  0
 31 26  1  0  0  0
 22 23  1  0  0  0
  8  9  1  0  0  0
 24 25  1  0  0  0
 32 35  1  0  0  0
M  END
> <minimizedAffinity>
-6.14474

> <CNNscore>
0.4798614085

> <CNNaffinity>
7.2551603317

> <CNN_VS>
3.4814715385

> <CNNaffinity_variance>
0.1459282935

$$$$
[H]OC(C([H])([H])[H])(C([H])([H])[H])C([H])([H])Oc1c([H])c([H])c(N([H])c2nc([H])c(F)c(N([H])c3c([H])c([H])c([H])c(N([H])C(=O)C([H])=C([H])[H])c3[H])n2)c([H])c1F


 37 39  0  0  0  0  0  0  0  0999 V2000
   -0.3311  -52.8287  -19.2347 C   0  0  0  0  0  0  0  0  0  0  0  0
   -1.0510  -52.9836  -18.0715 N   0  0  0  0  0  0  0  0  0  0  0  0
   -1.0187  -52.0918  -17.0848 C   0  0  0  0  0  0  0  0  0  0  0  0
   -0.2577  -50.9532  -17.1690 C   0  0  0  0  0  0  0  0  0  0  0  0
   -0.2323  -50.0420  -16.1473 F   0  0  0  0  0  0  0  0  0  0  0  0
    0.4823  -50.7732  -18.3406 C   0  0  0  0  0  0  0  0  0  0  0  0
    0.4038  -51.7251  -19.3145 N   0  0  0  0  0  0  0  0  0  0  0  0
   -0.4173  -53.8778  -20.1796 N   0  0  0  0  0  0  0  0  0  0  0  0
   -0.4531  -54.9002  -19.8066 H   0  0  0  0  0  0  0  0  0  0  0  0
   -0.6571  -53.7072  -24.4163 C   0  0  0  0  0  0  0  0  0  0  0  0
   -1.0645  -54.8211  -23.7135 C   0  0  0  0  0  0  0  0  0  0  0  0
   -0.9729  -54.8654  -22.3437 C   0  0  0  0  0  0  0  0  0  0  0  0
   -0.4665  -53.7966  -21.5821 C   0  0  0  0  0  0  0  0  0  0  0  0
   -0.0675  -52.6982  -22.2948 C   0  0  0  0  0  0  0  0  0  0  0  0
   -0.1584  -52.6478  -23.6943 C   0  0  0  0  0  0  0  0  0  0  0  0
    0.2464  -51.5494  -24.3455 F   0  0  0  0  0  0  0  0  0  0  0  0
   -0.7413  -53.6427  -25.8068 O   0  0  0  0  0  0  0  0  0  0  0  0
    0.1916  -54.3639  -26.5901 C   0  0  0  0  0  0  0  0  0  0  0  0
    1.2881  -52.3010  -27.2813 C   0  0  0  0  0  0  0  0  0  0  0  0
    0.6668  -53.5893  -27.7781 C   0  0  0  0  0  0  0  0  0  0  0  0
   -0.4782  -53.2154  -28.7051 C   0  0  0  0  0  0  0  0  0  0  0  0
    1.6015  -54.2879  -28.5393 O   0  0  0  0  0  0  0  0  0  0  0  0
    2.4645  -53.8119  -28.5221 H   0  0  0  0  0  0  0  0  0  0  0  0
    1.2989  -49.6369  -18.3943 N   0  0  0  0  0  0  0  0  0  0  0  0
    1.4112  -49.0811  -17.4784 H   0  0  0  0  0  0  0  0  0  0  0  0
    2.0137  -49.0958  -19.4852 C   0  0  0  0  0  0  0  0  0  0  0  0
    2.5087  -47.8128  -19.4844 C   0  0  0  0  0  0  0  0  0  0  0  0
    3.1740  -47.2969  -20.5709 C   0  0  0  0  0  0  0  0  0  0  0  0
    3.3512  -48.0997  -21.7022 C   0  0  0  0  0  0  0  0  0  0  0  0
    2.8801  -49.3911  -21.7635 C   0  0  0  0  0  0  0  0  0  0  0  0
    2.2211  -49.8368  -20.6300 C   0  0  0  0  0  0  0  0  0  0  0  0
    3.0102  -50.2626  -22.8670 N   0  0  0  0  0  0  0  0  0  0  0  0
    4.0971  -51.0166  -23.2673 C   0  0  0  0  0  0  0  0  0  0  0  0
    5.1854  -51.0256  -22.6632 O   0  0  0  0  0  0  0  0  0  0  0  0
    2.1343  -50.3503  -23.4791 H   0  0  0  0  0  0  0  0  0  0  0  0
    4.0198  -51.8705  -24.4612 C   0  0  0  0  0  0  0  0  0  0  0  0
    3.3207  -52.9750  -24.4179 C   0  0  0  0  0  0  0  0  0  0  0  0
 19 20  1  0  0  0
 20 21  1  0  0  0
 20 22  1  0  0  0
 20 18  1  0  0  0
 18 17  1  0  0  0
 17 10  1  0  0  0
 10 11  2  0  0  0
 11 12  1  0  0  0
 12 13  2  0  0  0
 13  8  1  0  0  0
  8  1  1  0  0  0
  1  2  2  0  0  0
  2  3  1  0  0  0
  3  4  2  0  0  0
  4  5  1  0  0  0
  4  6  1  0  0  0
  6 24  1  0  0  0
 24 26  1  0  0  0
 26 27  2  0  0  0
 27 28  1  0  0  0
 28 29  2  0  0  0
 29 30  1  0  0  0
 30 32  1  0  0  0
 32 33  1  0  0  0
 33 34  2  0  0  0
 33 36  1  0  0  0
 36 37  2  0  0  0
 30 31  2  0  0  0
  6  7  2  0  0  0
 13 14  1  0  0  0
 14 15  2  0  0  0
 15 16  1  0  0  0
 15 10  1  0  0  0
  7  1  1  0  0  0
 31 26  1  0  0  0
 22 23  1  0  0  0
  8  9  1  0  0  0
 24 25  1  0  0  0
 32 35  1  0  0  0
M  END
> <minimizedAffinity>
-8.15657

> <CNNscore>
0.3811439276

> <CNNaffinity>
7.1424942017

> <CNN_VS>
2.7223184109

> <CNNaffinity_variance>
0.1390490979

$$$$
[H]OC(C([H])([H])[H])(C([H])([H])[H])C([H])([H])Oc1c([H])c([H])c(N([H])c2nc([H])c(F)c(N([H])c3c([H])c([H])c([H])c(N([H])C(=O)C([H])=C([H])[H])c3[H])n2)c([H])c1F


 37 39  0  0  0  0  0  0  0  0999 V2000
   -0.2714  -52.6106  -19.0244 C   0  0  0  0  0  0  0  0  0  0  0  0
   -0.9569  -52.7494  -17.8386 N   0  0  0  0  0  0  0  0  0  0  0  0
   -0.9606  -51.8077  -16.8987 C   0  0  0  0  0  0  0  0  0  0  0  0
   -0.2739  -50.6305  -17.0573 C   0  0  0  0  0  0  0  0  0  0  0  0
   -0.2851  -49.6683  -16.0833 F   0  0  0  0  0  0  0  0  0  0  0  0
    0.4299  -50.4659  -18.2532 C   0  0  0  0  0  0  0  0  0  0  0  0
    0.3915  -51.4696  -19.1762 N   0  0  0  0  0  0  0  0  0  0  0  0
   -0.3109  -53.7101  -19.9134 N   0  0  0  0  0  0  0  0  0  0  0  0
   -0.2340  -54.7113  -19.4921 H   0  0  0  0  0  0  0  0  0  0  0  0
   -0.6180  -53.6130  -24.1480 C   0  0  0  0  0  0  0  0  0  0  0  0
   -0.2147  -52.5093  -23.4271 C   0  0  0  0  0  0  0  0  0  0  0  0
   -0.1284  -52.5527  -22.0569 C   0  0  0  0  0  0  0  0  0  0  0  0
   -0.4403  -53.7053  -21.3131 C   0  0  0  0  0  0  0  0  0  0  0  0
   -0.8379  -54.7922  -22.0439 C   0  0  0  0  0  0  0  0  0  0  0  0
   -0.9283  -54.7532  -23.4438 C   0  0  0  0  0  0  0  0  0  0  0  0
   -1.3235  -55.8442  -24.1130 F   0  0  0  0  0  0  0  0  0  0  0  0
   -0.7127  -53.5891  -25.5392 O   0  0  0  0  0  0  0  0  0  0  0  0
    0.1113  -52.7024  -26.2731 C   0  0  0  0  0  0  0  0  0  0  0  0
    2.1135  -52.8574  -27.6524 C   0  0  0  0  0  0  0  0  0  0  0  0
    0.6837  -53.3327  -27.5028 C   0  0  0  0  0  0  0  0  0  0  0  0
   -0.0689  -52.9152  -28.7556 C   0  0  0  0  0  0  0  0  0  0  0  0
    0.6637  -54.7250  -27.4551 O   0  0  0  0  0  0  0  0  0  0  0  0
    1.5870  -55.0697  -27.4653 H   0  0  0  0  0  0  0  0  0  0  0  0
    1.1728  -49.2859  -18.3825 N   0  0  0  0  0  0  0  0  0  0  0  0
    0.9680  -48.5074  -17.6667 H   0  0  0  0  0  0  0  0  0  0  0  0
    2.1701  -48.9516  -19.3245 C   0  0  0  0  0  0  0  0  0  0  0  0
    2.7852  -47.7220  -19.3485 C   0  0  0  0  0  0  0  0  0  0  0  0
    3.7310  -47.4082  -20.2952 C   0  0  0  0  0  0  0  0  0  0  0  0
    4.0745  -48.3657  -21.2548 C   0  0  0  0  0  0  0  0  0  0  0  0
    3.4954  -49.6136  -21.2826 C   0  0  0  0  0  0  0  0  0  0  0  0
    2.5524  -49.8523  -20.2968 C   0  0  0  0  0  0  0  0  0  0  0  0
    3.7796  -50.6317  -22.2189 N   0  0  0  0  0  0  0  0  0  0  0  0
    3.2085  -50.8732  -23.4541 C   0  0  0  0  0  0  0  0  0  0  0  0
    2.2999  -50.1735  -23.9382 O   0  0  0  0  0  0  0  0  0  0  0  0
    4.5538  -51.3126  -21.9249 H   0  0  0  0  0  0  0  0  0  0  0  0
    3.6588  -52.0013  -24.2820 C   0  0  0  0  0  0  0  0  0  0  0  0
    4.9359  -52.2723  -24.3600 C   0  0  0  0  0  0  0  0  0  0  0  0
 19 20  1  0  0  0
 20 21  1  0  0  0
 20 22  1  0  0  0
 20 18  1  0  0  0
 18 17  1  0  0  0
 17 10  1  0  0  0
 10 11  2  0  0  0
 11 12  1  0  0  0
 12 13  2  0  0  0
 13  8  1  0  0  0
  8  1  1  0  0  0
  1  2  2  0  0  0
  2  3  1  0  0  0
  3  4  2  0  0  0
  4  5  1  0  0  0
  4  6  1  0  0  0
  6 24  1  0  0  0
 24 26  1  0  0  0
 26 27  2  0  0  0
 27 28  1  0  0  0
 28 29  2  0  0  0
 29 30  1  0  0  0
 30 32  1  0  0  0
 32 33  1  0  0  0
 33 34  2  0  0  0
 33 36  1  0  0  0
 36 37  2  0  0  0
 30 31  2  0  0  0
  6  7  2  0  0  0
 13 14  1  0  0  0
 14 15  2  0  0  0
 15 16  1  0  0  0
 15 10  1  0  0  0
  7  1  1  0  0  0
 31 26  1  0  0  0
 22 23  1  0  0  0
  8  9  1  0  0  0
 24 25  1  0  0  0
 32 35  1  0  0  0
M  END
> <minimizedAffinity>
-8.10896

> <CNNscore>
0.3393780291

> <CNNaffinity>
7.0414276123

> <CNN_VS>
2.3897058964

> <CNNaffinity_variance>
0.0993611738

$$$$
[H]OC(C([H])([H])[H])(C([H])([H])[H])C([H])([H])Oc1c([H])c([H])c(N([H])c2nc([H])c(F)c(N([H])c3c([H])c([H])c([H])c(N([H])C(=O)C([H])=C([H])[H])c3[H])n2)c([H])c1F


 37 39  0  0  0  0  0  0  0  0999 V2000
   -1.8013  -52.8893  -17.6402 C   0  0  0  0  0  0  0  0  0  0  0  0
   -3.0805  -52.8365  -17.1342 N   0  0  0  0  0  0  0  0  0  0  0  0
   -3.3677  -52.2569  -15.9717 C   0  0  0  0  0  0  0  0  0  0  0  0
   -2.3956  -51.6718  -15.2001 C   0  0  0  0  0  0  0  0  0  0  0  0
   -2.7029  -51.0779  -14.0053 F   0  0  0  0  0  0  0  0  0  0  0  0
   -1.0886  -51.7124  -15.6927 C   0  0  0  0  0  0  0  0  0  0  0  0
   -0.8622  -52.3211  -16.8923 N   0  0  0  0  0  0  0  0  0  0  0  0
   -1.6296  -53.5807  -18.8623 N   0  0  0  0  0  0  0  0  0  0  0  0
   -2.0318  -54.5896  -18.9398 H   0  0  0  0  0  0  0  0  0  0  0  0
    0.3839  -52.2321  -22.3499 C   0  0  0  0  0  0  0  0  0  0  0  0
    0.6435  -51.6887  -21.1098 C   0  0  0  0  0  0  0  0  0  0  0  0
   -0.0219  -52.1290  -19.9916 C   0  0  0  0  0  0  0  0  0  0  0  0
   -0.9942  -53.1446  -20.0379 C   0  0  0  0  0  0  0  0  0  0  0  0
   -1.2391  -53.6740  -21.2762 C   0  0  0  0  0  0  0  0  0  0  0  0
   -0.5626  -53.2277  -22.4219 C   0  0  0  0  0  0  0  0  0  0  0  0
   -0.8394  -53.7780  -23.6113 F   0  0  0  0  0  0  0  0  0  0  0  0
    1.0481  -51.7988  -23.4971 O   0  0  0  0  0  0  0  0  0  0  0  0
    2.1978  -52.4983  -23.9360 C   0  0  0  0  0  0  0  0  0  0  0  0
    4.2989  -51.8841  -22.8669 C   0  0  0  0  0  0  0  0  0  0  0  0
    3.3990  -51.6151  -24.0544 C   0  0  0  0  0  0  0  0  0  0  0  0
    3.0247  -50.1424  -24.0184 C   0  0  0  0  0  0  0  0  0  0  0  0
    4.1130  -51.8298  -25.2314 O   0  0  0  0  0  0  0  0  0  0  0  0
    5.0136  -52.1672  -25.0153 H   0  0  0  0  0  0  0  0  0  0  0  0
   -0.0956  -51.1625  -14.8727 N   0  0  0  0  0  0  0  0  0  0  0  0
   -0.4319  -50.5349  -14.0643 H   0  0  0  0  0  0  0  0  0  0  0  0
    1.3074  -51.3066  -14.9419 C   0  0  0  0  0  0  0  0  0  0  0  0
    2.0295  -51.9964  -13.9965 C   0  0  0  0  0  0  0  0  0  0  0  0
    3.3985  -52.0964  -14.0676 C   0  0  0  0  0  0  0  0  0  0  0  0
    4.0697  -51.4817  -15.1294 C   0  0  0  0  0  0  0  0  0  0  0  0
    3.4033  -50.7785  -16.1066 C   0  0  0  0  0  0  0  0  0  0  0  0
    2.0269  -50.7234  -15.9640 C   0  0  0  0  0  0  0  0  0  0  0  0
    4.0047  -50.1242  -17.2040 N   0  0  0  0  0  0  0  0  0  0  0  0
    4.0251  -50.4851  -18.5380 C   0  0  0  0  0  0  0  0  0  0  0  0
    3.4766  -51.5116  -18.9793 O   0  0  0  0  0  0  0  0  0  0  0  0
    4.5168  -49.2139  -16.9620 H   0  0  0  0  0  0  0  0  0  0  0  0
    4.7159  -49.6503  -19.5312 C   0  0  0  0  0  0  0  0  0  0  0  0
    4.0164  -49.0132  -20.4342 C   0  0  0  0  0  0  0  0  0  0  0  0
 19 20  1  0  0  0
 20 21  1  0  0  0
 20 22  1  0  0  0
 20 18  1  0  0  0
 18 17  1  0  0  0
 17 10  1  0  0  0
 10 11  2  0  0  0
 11 12  1  0  0  0
 12 13  2  0  0  0
 13  8  1  0  0  0
  8  1  1  0  0  0
  1  2  2  0  0  0
  2  3  1  0  0  0
  3  4  2  0  0  0
  4  5  1  0  0  0
  4  6  1  0  0  0
  6 24  1  0  0  0
 24 26  1  0  0  0
 26 27  2  0  0  0
 27 28  1  0  0  0
 28 29  2  0  0  0
 29 30  1  0  0  0
 30 32  1  0  0  0
 32 33  1  0  0  0
 33 34  2  0  0  0
 33 36  1  0  0  0
 36 37  2  0  0  0
 30 31  2  0  0  0
  6  7  2  0  0  0
 13 14  1  0  0  0
 14 15  2  0  0  0
 15 16  1  0  0  0
 15 10  1  0  0  0
  7  1  1  0  0  0
 31 26  1  0  0  0
 22 23  1  0  0  0
  8  9  1  0  0  0
 24 25  1  0  0  0
 32 35  1  0  0  0
M  END
> <minimizedAffinity>
-7.01787

> <CNNscore>
0.3326772451

> <CNNaffinity>
6.7726120949

> <CNN_VS>
2.2530939579

> <CNNaffinity_variance>
0.0924914330

$$$$
[H]OC(C([H])([H])[H])(C([H])([H])[H])C([H])([H])Oc1c([H])c([H])c(N([H])c2nc([H])c(F)c(N([H])c3c([H])c([H])c([H])c(N([H])C(=O)C([H])=C([H])[H])c3[H])n2)c([H])c1F


 37 39  0  0  0  0  0  0  0  0999 V2000
   -0.7663  -53.3701  -21.4850 C   0  0  0  0  0  0  0  0  0  0  0  0
   -1.0040  -54.7065  -21.7150 N   0  0  0  0  0  0  0  0  0  0  0  0
   -1.0165  -55.2320  -22.9371 C   0  0  0  0  0  0  0  0  0  0  0  0
   -0.7913  -54.4649  -24.0522 C   0  0  0  0  0  0  0  0  0  0  0  0
   -0.8064  -55.0167  -25.3053 F   0  0  0  0  0  0  0  0  0  0  0  0
   -0.5474  -53.1048  -23.8446 C   0  0  0  0  0  0  0  0  0  0  0  0
   -0.5472  -52.6298  -22.5659 N   0  0  0  0  0  0  0  0  0  0  0  0
   -0.8326  -52.9352  -20.1406 N   0  0  0  0  0  0  0  0  0  0  0  0
   -1.7373  -53.1555  -19.5761 H   0  0  0  0  0  0  0  0  0  0  0  0
    2.1365  -50.7967  -17.9848 C   0  0  0  0  0  0  0  0  0  0  0  0
    2.4223  -51.4271  -19.1771 C   0  0  0  0  0  0  0  0  0  0  0  0
    1.4538  -52.1226  -19.8591 C   0  0  0  0  0  0  0  0  0  0  0  0
    0.1310  -52.2351  -19.3940 C   0  0  0  0  0  0  0  0  0  0  0  0
   -0.1364  -51.6028  -18.2099 C   0  0  0  0  0  0  0  0  0  0  0  0
    0.8493  -50.8913  -17.5087 C   0  0  0  0  0  0  0  0  0  0  0  0
    0.5370  -50.2904  -16.3530 F   0  0  0  0  0  0  0  0  0  0  0  0
    3.1055  -50.0862  -17.2770 O   0  0  0  0  0  0  0  0  0  0  0  0
    3.9785  -49.2207  -17.9789 C   0  0  0  0  0  0  0  0  0  0  0  0
    3.0363  -47.5535  -19.4849 C   0  0  0  0  0  0  0  0  0  0  0  0
    3.4611  -47.8195  -18.0561 C   0  0  0  0  0  0  0  0  0  0  0  0
    4.5315  -46.8004  -17.7015 C   0  0  0  0  0  0  0  0  0  0  0  0
    2.3809  -47.5953  -17.2052 O   0  0  0  0  0  0  0  0  0  0  0  0
    1.5798  -47.3793  -17.7371 H   0  0  0  0  0  0  0  0  0  0  0  0
   -0.3742  -52.3199  -24.9913 N   0  0  0  0  0  0  0  0  0  0  0  0
   -1.2701  -52.0179  -25.5077 H   0  0  0  0  0  0  0  0  0  0  0  0
    0.8172  -51.8523  -25.5877 C   0  0  0  0  0  0  0  0  0  0  0  0
    1.3947  -52.4683  -26.6730 C   0  0  0  0  0  0  0  0  0  0  0  0
    2.5723  -52.0136  -27.2169 C   0  0  0  0  0  0  0  0  0  0  0  0
    3.1945  -50.8963  -26.6511 C   0  0  0  0  0  0  0  0  0  0  0  0
    2.6657  -50.2364  -25.5656 C   0  0  0  0  0  0  0  0  0  0  0  0
    1.4789  -50.7555  -25.0758 C   0  0  0  0  0  0  0  0  0  0  0  0
    3.2331  -49.1092  -24.9318 N   0  0  0  0  0  0  0  0  0  0  0  0
    3.9774  -49.0371  -23.7695 C   0  0  0  0  0  0  0  0  0  0  0  0
    4.2651  -50.0304  -23.0766 O   0  0  0  0  0  0  0  0  0  0  0  0
    3.0603  -48.1759  -25.4304 H   0  0  0  0  0  0  0  0  0  0  0  0
    4.4811  -47.7462  -23.2792 C   0  0  0  0  0  0  0  0  0  0  0  0
    5.6332  -47.6977  -22.6621 C   0  0  0  0  0  0  0  0  0  0  0  0
 19 20  1  0  0  0
 20 21  1  0  0  0
 20 22  1  0  0  0
 20 18  1  0  0  0
 18 17  1  0  0  0
 17 10  1  0  0  0
 10 11  2  0  0  0
 11 12  1  0  0  0
 12 13  2  0  0  0
 13  8  1  0  0  0
  8  1  1  0  0  0
  1  2  2  0  0  0
  2  3  1  0  0  0
  3  4  2  0  0  0
  4  5  1  0  0  0
  4  6  1  0  0  0
  6 24  1  0  0  0
 24 26  1  0  0  0
 26 27  2  0  0  0
 27 28  1  0  0  0
 28 29  2  0  0  0
 29 30  1  0  0  0
 30 32  1  0  0  0
 32 33  1  0  0  0
 33 34  2  0  0  0
 33 36  1  0  0  0
 36 37  2  0  0  0
 30 31  2  0  0  0
  6  7  2  0  0  0
 13 14  1  0  0  0
 14 15  2  0  0  0
 15 16  1  0  0  0
 15 10  1  0  0  0
  7  1  1  0  0  0
 31 26  1  0  0  0
 22 23  1  0  0  0
  8  9  1  0  0  0
 24 25  1  0  0  0
 32 35  1  0  0  0
M  END
> <minimizedAffinity>
-6.38780

> <CNNscore>
0.3039460778

> <CNNaffinity>
6.8148279190

> <CNN_VS>
2.0713403225

> <CNNaffinity_variance>
0.1037275344

$$$$
[H]OC(C([H])([H])[H])(C([H])([H])[H])C([H])([H])Oc1c([H])c([H])c(N([H])c2nc([H])c(F)c(N([H])c3c([H])c([H])c([H])c(N([H])C(=O)C([H])=C([H])[H])c3[H])n2)c([H])c1F


 37 39  0  0  0  0  0  0  0  0999 V2000
   -0.2528  -53.9105  -23.9395 C   0  0  0  0  0  0  0  0  0  0  0  0
   -1.3475  -54.7274  -23.7673 N   0  0  0  0  0  0  0  0  0  0  0  0
   -1.9342  -54.8995  -22.5857 C   0  0  0  0  0  0  0  0  0  0  0  0
   -1.4779  -54.2666  -21.4571 C   0  0  0  0  0  0  0  0  0  0  0  0
   -2.0900  -54.4510  -20.2462 F   0  0  0  0  0  0  0  0  0  0  0  0
   -0.3675  -53.4316  -21.6063 C   0  0  0  0  0  0  0  0  0  0  0  0
    0.1863  -53.2979  -22.8458 N   0  0  0  0  0  0  0  0  0  0  0  0
    0.3030  -53.8586  -25.2392 N   0  0  0  0  0  0  0  0  0  0  0  0
    0.0865  -54.6796  -25.9210 H   0  0  0  0  0  0  0  0  0  0  0  0
    2.7907  -50.8146  -26.8459 C   0  0  0  0  0  0  0  0  0  0  0  0
    1.9803  -50.5847  -25.7546 C   0  0  0  0  0  0  0  0  0  0  0  0
    1.1743  -51.5765  -25.2511 C   0  0  0  0  0  0  0  0  0  0  0  0
    1.1239  -52.8682  -25.8060 C   0  0  0  0  0  0  0  0  0  0  0  0
    1.9350  -53.0801  -26.8879 C   0  0  0  0  0  0  0  0  0  0  0  0
    2.7601  -52.0704  -27.4067 C   0  0  0  0  0  0  0  0  0  0  0  0
    3.5353  -52.3283  -28.4683 F   0  0  0  0  0  0  0  0  0  0  0  0
    3.6157  -49.8211  -27.3725 O   0  0  0  0  0  0  0  0  0  0  0  0
    4.1451  -48.8326  -26.5086 C   0  0  0  0  0  0  0  0  0  0  0  0
    3.7258  -46.4331  -26.4634 C   0  0  0  0  0  0  0  0  0  0  0  0
    4.4295  -47.5444  -27.2134 C   0  0  0  0  0  0  0  0  0  0  0  0
    3.8921  -47.5462  -28.6352 C   0  0  0  0  0  0  0  0  0  0  0  0
    5.7912  -47.2591  -27.2883 O   0  0  0  0  0  0  0  0  0  0  0  0
    5.9853  -46.4362  -26.7816 H   0  0  0  0  0  0  0  0  0  0  0  0
    0.1250  -52.8341  -20.4396 N   0  0  0  0  0  0  0  0  0  0  0  0
    0.2089  -53.4681  -19.5726 H   0  0  0  0  0  0  0  0  0  0  0  0
    0.5385  -51.5022  -20.2186 C   0  0  0  0  0  0  0  0  0  0  0  0
    0.4955  -50.5398  -21.2000 C   0  0  0  0  0  0  0  0  0  0  0  0
    0.9333  -49.2573  -20.9705 C   0  0  0  0  0  0  0  0  0  0  0  0
    1.4327  -48.9264  -19.7069 C   0  0  0  0  0  0  0  0  0  0  0  0
    1.5005  -49.8444  -18.6841 C   0  0  0  0  0  0  0  0  0  0  0  0
    1.0411  -51.1134  -18.9943 C   0  0  0  0  0  0  0  0  0  0  0  0
    1.9963  -49.5941  -17.3858 N   0  0  0  0  0  0  0  0  0  0  0  0
    3.0727  -50.1633  -16.7320 C   0  0  0  0  0  0  0  0  0  0  0  0
    3.7992  -51.0376  -17.2393 O   0  0  0  0  0  0  0  0  0  0  0  0
    1.4569  -48.8516  -16.8315 H   0  0  0  0  0  0  0  0  0  0  0  0
    3.4236  -49.7528  -15.3649 C   0  0  0  0  0  0  0  0  0  0  0  0
    3.6913  -50.6660  -14.4677 C   0  0  0  0  0  0  0  0  0  0  0  0
 19 20  1  0  0  0
 20 21  1  0  0  0
 20 22  1  0  0  0
 20 18  1  0  0  0
 18 17  1  0  0  0
 17 10  1  0  0  0
 10 11  2  0  0  0
 11 12  1  0  0  0
 12 13  2  0  0  0
 13  8  1  0  0  0
  8  1  1  0  0  0
  1  2  2  0  0  0
  2  3  1  0  0  0
  3  4  2  0  0  0
  4  5  1  0  0  0
  4  6  1  0  0  0
  6 24  1  0  0  0
 24 26  1  0  0  0
 26 27  2  0  0  0
 27 28  1  0  0  0
 28 29  2  0  0  0
 29 30  1  0  0  0
 30 32  1  0  0  0
 32 33  1  0  0  0
 33 34  2  0  0  0
 33 36  1  0  0  0
 36 37  2  0  0  0
 30 31  2  0  0  0
  6  7  2  0  0  0
 13 14  1  0  0  0
 14 15  2  0  0  0
 15 16  1  0  0  0
 15 10  1  0  0  0
  7  1  1  0  0  0
 31 26  1  0  0  0
 22 23  1  0  0  0
  8  9  1  0  0  0
 24 25  1  0  0  0
 32 35  1  0  0  0
M  END
> <minimizedAffinity>
-6.84740

> <CNNscore>
0.2332811505

> <CNNaffinity>
6.6831712723

> <CNN_VS>
1.5590578318

> <CNNaffinity_variance>
0.2293939590

$$$$
[H]OC(=O)c1oc2c([H])c(O[H])c([H])c(O[H])c2c(=O)c1-c1c([H])c([H])c(O[H])c([H])c1[H]


 27 29  0  0  0  0  0  0  0  0999 V2000
    1.2871  -51.8670  -24.1481 C   0  0  0  0  0  0  0  0  0  0  0  0
    1.2601  -51.8260  -22.8127 O   0  0  0  0  0  0  0  0  0  0  0  0
    0.4743  -52.5697  -22.0916 C   0  0  0  0  0  0  0  0  0  0  0  0
    0.4717  -52.5019  -20.7066 C   0  0  0  0  0  0  0  0  0  0  0  0
   -0.3481  -53.2766  -19.9408 C   0  0  0  0  0  0  0  0  0  0  0  0
   -0.3294  -53.1870  -18.5412 O   0  0  0  0  0  0  0  0  0  0  0  0
   -1.2094  -54.1609  -20.5154 C   0  0  0  0  0  0  0  0  0  0  0  0
   -1.2609  -54.2833  -21.9171 C   0  0  0  0  0  0  0  0  0  0  0  0
   -2.1238  -55.1680  -22.4729 O   0  0  0  0  0  0  0  0  0  0  0  0
   -0.4094  -53.4766  -22.6747 C   0  0  0  0  0  0  0  0  0  0  0  0
   -0.3879  -53.5250  -24.0450 C   0  0  0  0  0  0  0  0  0  0  0  0
   -1.1518  -54.3137  -24.6399 O   0  0  0  0  0  0  0  0  0  0  0  0
    0.4598  -52.7232  -24.8242 C   0  0  0  0  0  0  0  0  0  0  0  0
    0.2960  -52.5441  -18.1114 H   0  0  0  0  0  0  0  0  0  0  0  0
   -2.4525  -55.5347  -23.2640 H   0  0  0  0  0  0  0  0  0  0  0  0
    0.4120  -52.8607  -26.2710 C   0  0  0  0  0  0  0  0  0  0  0  0
   -0.6282  -52.2846  -26.9731 C   0  0  0  0  0  0  0  0  0  0  0  0
   -0.7134  -52.3823  -28.3524 C   0  0  0  0  0  0  0  0  0  0  0  0
    0.2632  -53.0718  -29.0513 C   0  0  0  0  0  0  0  0  0  0  0  0
    0.2233  -53.1997  -30.4473 O   0  0  0  0  0  0  0  0  0  0  0  0
    1.3221  -53.6615  -28.3671 C   0  0  0  0  0  0  0  0  0  0  0  0
    1.3872  -53.5518  -26.9938 C   0  0  0  0  0  0  0  0  0  0  0  0
   -0.5309  -52.7825  -30.9601 H   0  0  0  0  0  0  0  0  0  0  0  0
    3.5211  -51.3631  -24.9665 O   0  0  0  0  0  0  0  0  0  0  0  0
    2.1904  -51.0058  -24.8848 C   0  0  0  0  0  0  0  0  0  0  0  0
    1.8086  -49.9694  -25.4378 O   0  0  0  0  0  0  0  0  0  0  0  0
    3.8437  -51.7838  -25.8102 H   0  0  0  0  0  0  0  0  0  0  0  0
 24 25  1  0  0  0
 25 26  2  0  0  0
 25  1  1  0  0  0
  1  2  1  0  0  0
  2  3  1  0  0  0
  3  4  2  0  0  0
  4  5  1  0  0  0
  5  6  1  0  0  0
  5  7  2  0  0  0
  7  8  1  0  0  0
  8  9  1  0  0  0
  8 10  2  0  0  0
 10 11  1  0  0  0
 11 12  2  0  0  0
 11 13  1  0  0  0
 13 16  1  0  0  0
 16 17  2  0  0  0
 17 18  1  0  0  0
 18 19  2  0  0  0
 19 20  1  0  0  0
 19 21  1  0  0  0
 21 22  2  0  0  0
 13  1  2  0  0  0
 22 16  1  0  0  0
 10  3  1  0  0  0
 24 27  1  0  0  0
  6 14  1  0  0  0
  9 15  1  0  0  0
 20 23  1  0  0  0
M  END
> <minimizedAffinity>
-8.44859

> <CNNscore>
0.7202063203

> <CNNaffinity>
5.4892158508

> <CNN_VS>
3.9533679485

> <CNNaffinity_variance>
0.1222241968

$$$$
[H]OC(=O)c1oc2c([H])c(O[H])c([H])c(O[H])c2c(=O)c1-c1c([H])c([H])c(O[H])c([H])c1[H]


 27 29  0  0  0  0  0  0  0  0999 V2000
    1.1504  -51.3545  -23.2323 C   0  0  0  0  0  0  0  0  0  0  0  0
    1.4419  -51.2376  -24.5312 O   0  0  0  0  0  0  0  0  0  0  0  0
    1.1185  -52.1315  -25.4184 C   0  0  0  0  0  0  0  0  0  0  0  0
    1.4367  -51.9788  -26.7594 C   0  0  0  0  0  0  0  0  0  0  0  0
    1.1029  -52.9096  -27.6979 C   0  0  0  0  0  0  0  0  0  0  0  0
    1.4377  -52.7288  -29.0479 O   0  0  0  0  0  0  0  0  0  0  0  0
    0.4336  -54.0429  -27.3494 C   0  0  0  0  0  0  0  0  0  0  0  0
    0.0777  -54.2646  -26.0052 C   0  0  0  0  0  0  0  0  0  0  0  0
   -0.5882  -55.3977  -25.6751 O   0  0  0  0  0  0  0  0  0  0  0  0
    0.4333  -53.2935  -25.0670 C   0  0  0  0  0  0  0  0  0  0  0  0
    0.1301  -53.4212  -23.7356 C   0  0  0  0  0  0  0  0  0  0  0  0
   -0.4834  -54.4359  -23.3440 O   0  0  0  0  0  0  0  0  0  0  0  0
    0.4782  -52.4572  -22.7773 C   0  0  0  0  0  0  0  0  0  0  0  0
    1.9268  -51.9044  -29.3132 H   0  0  0  0  0  0  0  0  0  0  0  0
   -0.9758  -55.8947  -24.9887 H   0  0  0  0  0  0  0  0  0  0  0  0
    0.0989  -52.6842  -21.3921 C   0  0  0  0  0  0  0  0  0  0  0  0
   -1.2275  -52.9086  -21.0802 C   0  0  0  0  0  0  0  0  0  0  0  0
   -1.6369  -53.1366  -19.7765 C   0  0  0  0  0  0  0  0  0  0  0  0
   -0.7006  -53.1416  -18.7561 C   0  0  0  0  0  0  0  0  0  0  0  0
   -1.0630  -53.3673  -17.4202 O   0  0  0  0  0  0  0  0  0  0  0  0
    0.6426  -52.9179  -19.0442 C   0  0  0  0  0  0  0  0  0  0  0  0
    1.0280  -52.6931  -20.3492 C   0  0  0  0  0  0  0  0  0  0  0  0
   -2.0254  -53.5305  -17.1905 H   0  0  0  0  0  0  0  0  0  0  0  0
    2.8818  -50.1912  -21.9820 O   0  0  0  0  0  0  0  0  0  0  0  0
    1.5449  -50.3162  -22.3014 C   0  0  0  0  0  0  0  0  0  0  0  0
    0.7271  -49.5452  -21.7889 O   0  0  0  0  0  0  0  0  0  0  0  0
    3.4040  -49.4653  -22.4214 H   0  0  0  0  0  0  0  0  0  0  0  0
 24 25  1  0  0  0
 25 26  2  0  0  0
 25  1  1  0  0  0
  1  2  1  0  0  0
  2  3  1  0  0  0
  3  4  2  0  0  0
  4  5  1  0  0  0
  5  6  1  0  0  0
  5  7  2  0  0  0
  7  8  1  0  0  0
  8  9  1  0  0  0
  8 10  2  0  0  0
 10 11  1  0  0  0
 11 12  2  0  0  0
 11 13  1  0  0  0
 13 16  1  0  0  0
 16 17  2  0  0  0
 17 18  1  0  0  0
 18 19  2  0  0  0
 19 20  1  0  0  0
 19 21  1  0  0  0
 21 22  2  0  0  0
 13  1  2  0  0  0
 22 16  1  0  0  0
 10  3  1  0  0  0
 24 27  1  0  0  0
  6 14  1  0  0  0
  9 15  1  0  0  0
 20 23  1  0  0  0
M  END
> <minimizedAffinity>
-8.07092

> <CNNscore>
0.6582515240

> <CNNaffinity>
5.5942325592

> <CNN_VS>
3.6824121475

> <CNNaffinity_variance>
0.1465990990

$$$$
[H]OC(=O)c1oc2c([H])c(O[H])c([H])c(O[H])c2c(=O)c1-c1c([H])c([H])c(O[H])c([H])c1[H]


 27 29  0  0  0  0  0  0  0  0999 V2000
    1.6340  -51.4788  -20.5711 C   0  0  0  0  0  0  0  0  0  0  0  0
    0.8537  -52.5625  -20.6218 O   0  0  0  0  0  0  0  0  0  0  0  0
    0.3391  -53.0202  -21.7247 C   0  0  0  0  0  0  0  0  0  0  0  0
   -0.4672  -54.1483  -21.7418 C   0  0  0  0  0  0  0  0  0  0  0  0
   -1.0122  -54.6368  -22.8920 C   0  0  0  0  0  0  0  0  0  0  0  0
   -1.8243  -55.7803  -22.8797 O   0  0  0  0  0  0  0  0  0  0  0  0
   -0.7822  -54.0264  -24.0872 C   0  0  0  0  0  0  0  0  0  0  0  0
    0.0272  -52.8757  -24.1453 C   0  0  0  0  0  0  0  0  0  0  0  0
    0.2461  -52.2803  -25.3427 O   0  0  0  0  0  0  0  0  0  0  0  0
    0.5712  -52.3992  -22.9509 C   0  0  0  0  0  0  0  0  0  0  0  0
    1.3713  -51.2862  -22.9076 C   0  0  0  0  0  0  0  0  0  0  0  0
    1.6250  -50.6754  -23.9668 O   0  0  0  0  0  0  0  0  0  0  0  0
    1.9275  -50.7914  -21.7183 C   0  0  0  0  0  0  0  0  0  0  0  0
   -1.9987  -56.2338  -22.0119 H   0  0  0  0  0  0  0  0  0  0  0  0
    0.6667  -51.5815  -25.7934 H   0  0  0  0  0  0  0  0  0  0  0  0
    2.7723  -49.6098  -21.7838 C   0  0  0  0  0  0  0  0  0  0  0  0
    4.1359  -49.7589  -21.9425 C   0  0  0  0  0  0  0  0  0  0  0  0
    4.9810  -48.6636  -22.0174 C   0  0  0  0  0  0  0  0  0  0  0  0
    4.4542  -47.3857  -21.9322 C   0  0  0  0  0  0  0  0  0  0  0  0
    5.2660  -46.2443  -22.0024 O   0  0  0  0  0  0  0  0  0  0  0  0
    3.0830  -47.2084  -21.7721 C   0  0  0  0  0  0  0  0  0  0  0  0
    2.2602  -48.3129  -21.7001 C   0  0  0  0  0  0  0  0  0  0  0  0
    6.2567  -46.3493  -22.1175 H   0  0  0  0  0  0  0  0  0  0  0  0
    3.3852  -51.5329  -18.8845 O   0  0  0  0  0  0  0  0  0  0  0  0
    2.1711  -51.0272  -19.3030 C   0  0  0  0  0  0  0  0  0  0  0  0
    1.5798  -50.2095  -18.5907 O   0  0  0  0  0  0  0  0  0  0  0  0
    4.1951  -50.9633  -18.9961 H   0  0  0  0  0  0  0  0  0  0  0  0
 24 25  1  0  0  0
 25 26  2  0  0  0
 25  1  1  0  0  0
  1  2  1  0  0  0
  2  3  1  0  0  0
  3  4  2  0  0  0
  4  5  1  0  0  0
  5  6  1  0  0  0
  5  7  2  0  0  0
  7  8  1  0  0  0
  8  9  1  0  0  0
  8 10  2  0  0  0
 10 11  1  0  0  0
 11 12  2  0  0  0
 11 13  1  0  0  0
 13 16  1  0  0  0
 16 17  2  0  0  0
 17 18  1  0  0  0
 18 19  2  0  0  0
 19 20  1  0  0  0
 19 21  1  0  0  0
 21 22  2  0  0  0
 13  1  2  0  0  0
 22 16  1  0  0  0
 10  3  1  0  0  0
 24 27  1  0  0  0
  6 14  1  0  0  0
  9 15  1  0  0  0
 20 23  1  0  0  0
M  END
> <minimizedAffinity>
-7.00382

> <CNNscore>
0.6170217991

> <CNNaffinity>
5.2412662506

> <CNN_VS>
3.2339756489

> <CNNaffinity_variance>
0.1441123933

$$$$
[H]OC(=O)c1oc2c([H])c(O[H])c([H])c(O[H])c2c(=O)c1-c1c([H])c([H])c(O[H])c([H])c1[H]


 27 29  0  0  0  0  0  0  0  0999 V2000
    1.4823  -50.3463  -21.3419 C   0  0  0  0  0  0  0  0  0  0  0  0
    1.1411  -50.8439  -22.5342 O   0  0  0  0  0  0  0  0  0  0  0  0
    0.4852  -51.9568  -22.6818 C   0  0  0  0  0  0  0  0  0  0  0  0
    0.1469  -52.4452  -23.9349 C   0  0  0  0  0  0  0  0  0  0  0  0
   -0.5402  -53.6108  -24.1012 C   0  0  0  0  0  0  0  0  0  0  0  0
   -0.8691  -54.0809  -25.3811 O   0  0  0  0  0  0  0  0  0  0  0  0
   -0.9270  -54.3523  -23.0267 C   0  0  0  0  0  0  0  0  0  0  0  0
   -0.6177  -53.9172  -21.7237 C   0  0  0  0  0  0  0  0  0  0  0  0
   -1.0100  -54.6669  -20.6652 O   0  0  0  0  0  0  0  0  0  0  0  0
    0.0868  -52.7197  -21.5852 C   0  0  0  0  0  0  0  0  0  0  0  0
    0.4330  -52.2159  -20.3576 C   0  0  0  0  0  0  0  0  0  0  0  0
    0.1106  -52.8435  -19.3273 O   0  0  0  0  0  0  0  0  0  0  0  0
    1.1405  -51.0149  -20.1970 C   0  0  0  0  0  0  0  0  0  0  0  0
   -0.5912  -53.5470  -26.1728 H   0  0  0  0  0  0  0  0  0  0  0  0
   -1.0187  -54.7494  -19.7371 H   0  0  0  0  0  0  0  0  0  0  0  0
    1.4479  -50.5630  -18.8496 C   0  0  0  0  0  0  0  0  0  0  0  0
    2.6367  -50.9459  -18.2605 C   0  0  0  0  0  0  0  0  0  0  0  0
    2.9773  -50.5353  -16.9819 C   0  0  0  0  0  0  0  0  0  0  0  0
    2.1111  -49.7217  -16.2709 C   0  0  0  0  0  0  0  0  0  0  0  0
    2.4085  -49.2787  -14.9740 O   0  0  0  0  0  0  0  0  0  0  0  0
    0.9065  -49.3218  -16.8423 C   0  0  0  0  0  0  0  0  0  0  0  0
    0.5877  -49.7423  -18.1165 C   0  0  0  0  0  0  0  0  0  0  0  0
    3.2711  -49.5551  -14.5434 H   0  0  0  0  0  0  0  0  0  0  0  0
    3.5947  -49.1450  -21.2454 O   0  0  0  0  0  0  0  0  0  0  0  0
    2.2153  -49.0989  -21.2563 C   0  0  0  0  0  0  0  0  0  0  0  0
    1.6474  -48.0039  -21.1935 O   0  0  0  0  0  0  0  0  0  0  0  0
    4.0788  -48.9301  -22.0894 H   0  0  0  0  0  0  0  0  0  0  0  0
 24 25  1  0  0  0
 25 26  2  0  0  0
 25  1  1  0  0  0
  1  2  1  0  0  0
  2  3  1  0  0  0
  3  4  2  0  0  0
  4  5  1  0  0  0
  5  6  1  0  0  0
  5  7  2  0  0  0
  7  8  1  0  0  0
  8  9  1  0  0  0
  8 10  2  0  0  0
 10 11  1  0  0  0
 11 12  2  0  0  0
 11 13  1  0  0  0
 13 16  1  0  0  0
 16 17  2  0  0  0
 17 18  1  0  0  0
 18 19  2  0  0  0
 19 20  1  0  0  0
 19 21  1  0  0  0
 21 22  2  0  0  0
 13  1  2  0  0  0
 22 16  1  0  0  0
 10  3  1  0  0  0
 24 27  1  0  0  0
  6 14  1  0  0  0
  9 15  1  0  0  0
 20 23  1  0  0  0
M  END
> <minimizedAffinity>
-7.09490

> <CNNscore>
0.6050097346

> <CNNaffinity>
4.9520602226

> <CNN_VS>
2.9960446358

> <CNNaffinity_variance>
0.1115061268

$$$$
[H]OC(=O)c1oc2c([H])c(O[H])c([H])c(O[H])c2c(=O)c1-c1c([H])c([H])c(O[H])c([H])c1[H]


 27 29  0  0  0  0  0  0  0  0999 V2000
    2.0599  -51.3891  -22.1487 C   0  0  0  0  0  0  0  0  0  0  0  0
    1.4833  -52.2125  -23.0292 O   0  0  0  0  0  0  0  0  0  0  0  0
    0.5323  -53.0414  -22.7143 C   0  0  0  0  0  0  0  0  0  0  0  0
   -0.0446  -53.8828  -23.6536 C   0  0  0  0  0  0  0  0  0  0  0  0
   -1.0419  -54.7558  -23.3345 C   0  0  0  0  0  0  0  0  0  0  0  0
   -1.6072  -55.5953  -24.3055 O   0  0  0  0  0  0  0  0  0  0  0  0
   -1.5177  -54.8365  -22.0613 C   0  0  0  0  0  0  0  0  0  0  0  0
   -0.9787  -54.0119  -21.0553 C   0  0  0  0  0  0  0  0  0  0  0  0
   -1.4634  -54.1047  -19.7933 O   0  0  0  0  0  0  0  0  0  0  0  0
    0.0416  -53.1281  -21.4125 C   0  0  0  0  0  0  0  0  0  0  0  0
    0.6280  -52.2861  -20.5025 C   0  0  0  0  0  0  0  0  0  0  0  0
    0.2413  -52.3059  -19.3153 O   0  0  0  0  0  0  0  0  0  0  0  0
    1.6540  -51.3911  -20.8411 C   0  0  0  0  0  0  0  0  0  0  0  0
   -1.2669  -55.5445  -25.2386 H   0  0  0  0  0  0  0  0  0  0  0  0
   -1.4079  -53.7887  -18.9184 H   0  0  0  0  0  0  0  0  0  0  0  0
    2.2001  -50.5329  -19.8020 C   0  0  0  0  0  0  0  0  0  0  0  0
    3.2645  -50.9790  -19.0439 C   0  0  0  0  0  0  0  0  0  0  0  0
    3.8236  -50.1954  -18.0475 C   0  0  0  0  0  0  0  0  0  0  0  0
    3.3091  -48.9339  -17.7994 C   0  0  0  0  0  0  0  0  0  0  0  0
    3.8385  -48.1015  -16.8027 O   0  0  0  0  0  0  0  0  0  0  0  0
    2.2363  -48.4609  -18.5496 C   0  0  0  0  0  0  0  0  0  0  0  0
    1.6953  -49.2578  -19.5367 C   0  0  0  0  0  0  0  0  0  0  0  0
    4.6116  -48.4226  -16.2504 H   0  0  0  0  0  0  0  0  0  0  0  0
    4.4253  -50.9137  -22.4545 O   0  0  0  0  0  0  0  0  0  0  0  0
    3.1163  -50.4926  -22.5740 C   0  0  0  0  0  0  0  0  0  0  0  0
    2.8826  -49.3715  -23.0368 O   0  0  0  0  0  0  0  0  0  0  0  0
    4.8914  -51.2372  -23.2735 H   0  0  0  0  0  0  0  0  0  0  0  0
 24 25  1  0  0  0
 25 26  2  0  0  0
 25  1  1  0  0  0
  1  2  1  0  0  0
  2  3  1  0  0  0
  3  4  2  0  0  0
  4  5  1  0  0  0
  5  6  1  0  0  0
  5  7  2  0  0  0
  7  8  1  0  0  0
  8  9  1  0  0  0
  8 10  2  0  0  0
 10 11  1  0  0  0
 11 12  2  0  0  0
 11 13  1  0  0  0
 13 16  1  0  0  0
 16 17  2  0  0  0
 17 18  1  0  0  0
 18 19  2  0  0  0
 19 20  1  0  0  0
 19 21  1  0  0  0
 21 22  2  0  0  0
 13  1  2  0  0  0
 22 16  1  0  0  0
 10  3  1  0  0  0
 24 27  1  0  0  0
  6 14  1  0  0  0
  9 15  1  0  0  0
 20 23  1  0  0  0
M  END
> <minimizedAffinity>
-7.06361

> <CNNscore>
0.5871044397

> <CNNaffinity>
4.9613046646

> <CNN_VS>
2.9128038883

> <CNNaffinity_variance>
0.0838043541

$$$$
[H]OC(=O)c1oc2c([H])c(O[H])c([H])c(O[H])c2c(=O)c1-c1c([H])c([H])c(O[H])c([H])c1[H]


 27 29  0  0  0  0  0  0  0  0999 V2000
    1.8619  -50.0748  -22.3021 C   0  0  0  0  0  0  0  0  0  0  0  0
    1.3489  -50.5562  -23.4382 O   0  0  0  0  0  0  0  0  0  0  0  0
    0.7114  -51.6871  -23.5105 C   0  0  0  0  0  0  0  0  0  0  0  0
    0.1913  -52.1577  -24.7068 C   0  0  0  0  0  0  0  0  0  0  0  0
   -0.4785  -53.3420  -24.7942 C   0  0  0  0  0  0  0  0  0  0  0  0
   -0.9941  -53.7934  -26.0179 O   0  0  0  0  0  0  0  0  0  0  0  0
   -0.6656  -54.1206  -23.6930 C   0  0  0  0  0  0  0  0  0  0  0  0
   -0.1646  -53.7054  -22.4443 C   0  0  0  0  0  0  0  0  0  0  0  0
   -0.3594  -54.4921  -21.3583 O   0  0  0  0  0  0  0  0  0  0  0  0
    0.5170  -52.4882  -22.3863 C   0  0  0  0  0  0  0  0  0  0  0  0
    1.0403  -52.0012  -21.2160 C   0  0  0  0  0  0  0  0  0  0  0  0
    0.9062  -52.6629  -20.1655 O   0  0  0  0  0  0  0  0  0  0  0  0
    1.7282  -50.7809  -21.1366 C   0  0  0  0  0  0  0  0  0  0  0  0
   -0.8629  -53.2323  -26.8285 H   0  0  0  0  0  0  0  0  0  0  0  0
   -0.2167  -54.5963  -20.4433 H   0  0  0  0  0  0  0  0  0  0  0  0
    2.2340  -50.3499  -19.8433 C   0  0  0  0  0  0  0  0  0  0  0  0
    3.5242  -50.6777  -19.4762 C   0  0  0  0  0  0  0  0  0  0  0  0
    4.0533  -50.2840  -18.2578 C   0  0  0  0  0  0  0  0  0  0  0  0
    3.2771  -49.5441  -17.3816 C   0  0  0  0  0  0  0  0  0  0  0  0
    3.7650  -49.1211  -16.1367 O   0  0  0  0  0  0  0  0  0  0  0  0
    1.9734  -49.2008  -17.7280 C   0  0  0  0  0  0  0  0  0  0  0  0
    1.4670  -49.6031  -18.9460 C   0  0  0  0  0  0  0  0  0  0  0  0
    4.7016  -49.3576  -15.8672 H   0  0  0  0  0  0  0  0  0  0  0  0
    3.9027  -48.7922  -22.6249 O   0  0  0  0  0  0  0  0  0  0  0  0
    2.5614  -48.8056  -22.2995 C   0  0  0  0  0  0  0  0  0  0  0  0
    1.9981  -47.7433  -22.0171 O   0  0  0  0  0  0  0  0  0  0  0  0
    4.1609  -48.4988  -23.5415 H   0  0  0  0  0  0  0  0  0  0  0  0
 24 25  1  0  0  0
 25 26  2  0  0  0
 25  1  1  0  0  0
  1  2  1  0  0  0
  2  3  1  0  0  0
  3  4  2  0  0  0
  4  5  1  0  0  0
  5  6  1  0  0  0
  5  7  2  0  0  0
  7  8  1  0  0  0
  8  9  1  0  0  0
  8 10  2  0  0  0
 10 11  1  0  0  0
 11 12  2  0  0  0
 11 13  1  0  0  0
 13 16  1  0  0  0
 16 17  2  0  0  0
 17 18  1  0  0  0
 18 19  2  0  0  0
 19 20  1  0  0  0
 19 21  1  0  0  0
 21 22  2  0  0  0
 13  1  2  0  0  0
 22 16  1  0  0  0
 10  3  1  0  0  0
 24 27  1  0  0  0
  6 14  1  0  0  0
  9 15  1  0  0  0
 20 23  1  0  0  0
M  END
> <minimizedAffinity>
-6.83169

> <CNNscore>
0.5636756420

> <CNNaffinity>
4.9883437157

> <CNN_VS>
2.8118078709

> <CNNaffinity_variance>
0.1384439170

$$$$
[H]OC(=O)c1oc2c([H])c(O[H])c([H])c(O[H])c2c(=O)c1-c1c([H])c([H])c(O[H])c([H])c1[H]


 27 29  0  0  0  0  0  0  0  0999 V2000
    2.0329  -51.2732  -22.0658 C   0  0  0  0  0  0  0  0  0  0  0  0
    1.5425  -51.3334  -20.8241 O   0  0  0  0  0  0  0  0  0  0  0  0
    0.5691  -52.1233  -20.4788 C   0  0  0  0  0  0  0  0  0  0  0  0
    0.0839  -52.1606  -19.1803 C   0  0  0  0  0  0  0  0  0  0  0  0
   -0.9363  -52.9846  -18.8073 C   0  0  0  0  0  0  0  0  0  0  0  0
   -1.4070  -53.0015  -17.4862 O   0  0  0  0  0  0  0  0  0  0  0  0
   -1.5273  -53.8157  -19.7094 C   0  0  0  0  0  0  0  0  0  0  0  0
   -1.0858  -53.8310  -21.0464 C   0  0  0  0  0  0  0  0  0  0  0  0
   -1.6848  -54.6641  -21.9316 O   0  0  0  0  0  0  0  0  0  0  0  0
   -0.0395  -52.9761  -21.3983 C   0  0  0  0  0  0  0  0  0  0  0  0
    0.4581  -52.9206  -22.6751 C   0  0  0  0  0  0  0  0  0  0  0  0
   -0.0363  -53.6558  -23.5552 O   0  0  0  0  0  0  0  0  0  0  0  0
    1.5086  -52.0690  -23.0489 C   0  0  0  0  0  0  0  0  0  0  0  0
   -0.9823  -52.3982  -16.8193 H   0  0  0  0  0  0  0  0  0  0  0  0
   -1.7110  -54.9671  -22.8124 H   0  0  0  0  0  0  0  0  0  0  0  0
    1.9694  -52.0960  -24.4277 C   0  0  0  0  0  0  0  0  0  0  0  0
    1.3430  -51.3020  -25.3679 C   0  0  0  0  0  0  0  0  0  0  0  0
    1.7503  -51.2880  -26.6920 C   0  0  0  0  0  0  0  0  0  0  0  0
    2.8098  -52.0858  -27.0906 C   0  0  0  0  0  0  0  0  0  0  0  0
    3.2608  -52.1082  -28.4183 O   0  0  0  0  0  0  0  0  0  0  0  0
    3.4580  -52.8953  -26.1622 C   0  0  0  0  0  0  0  0  0  0  0  0
    3.0359  -52.8935  -24.8492 C   0  0  0  0  0  0  0  0  0  0  0  0
    2.8079  -51.5328  -29.1035 H   0  0  0  0  0  0  0  0  0  0  0  0
    2.8114  -49.1069  -22.8505 O   0  0  0  0  0  0  0  0  0  0  0  0
    3.1196  -50.3660  -22.3761 C   0  0  0  0  0  0  0  0  0  0  0  0
    4.3045  -50.6827  -22.2300 O   0  0  0  0  0  0  0  0  0  0  0  0
    2.8598  -48.3407  -22.2154 H   0  0  0  0  0  0  0  0  0  0  0  0
 24 25  1  0  0  0
 25 26  2  0  0  0
 25  1  1  0  0  0
  1  2  1  0  0  0
  2  3  1  0  0  0
  3  4  2  0  0  0
  4  5  1  0  0  0
  5  6  1  0  0  0
  5  7  2  0  0  0
  7  8  1  0  0  0
  8  9  1  0  0  0
  8 10  2  0  0  0
 10 11  1  0  0  0
 11 12  2  0  0  0
 11 13  1  0  0  0
 13 16  1  0  0  0
 16 17  2  0  0  0
 17 18  1  0  0  0
 18 19  2  0  0  0
 19 20  1  0  0  0
 19 21  1  0  0  0
 21 22  2  0  0  0
 13  1  2  0  0  0
 22 16  1  0  0  0
 10  3  1  0  0  0
 24 27  1  0  0  0
  6 14  1  0  0  0
  9 15  1  0  0  0
 20 23  1  0  0  0
M  END
> <minimizedAffinity>
-8.14995

> <CNNscore>
0.5592668653

> <CNNaffinity>
5.1494612694

> <CNN_VS>
2.8799231052

> <CNNaffinity_variance>
0.0780535042

$$$$
[H]OC(=O)c1oc2c([H])c(O[H])c([H])c(O[H])c2c(=O)c1-c1c([H])c([H])c(O[H])c([H])c1[H]


 27 29  0  0  0  0  0  0  0  0999 V2000
   -0.4492  -53.7101  -23.4753 C   0  0  0  0  0  0  0  0  0  0  0  0
   -0.4855  -53.5738  -22.1464 O   0  0  0  0  0  0  0  0  0  0  0  0
    0.0010  -52.5427  -21.5213 C   0  0  0  0  0  0  0  0  0  0  0  0
   -0.0533  -52.4329  -20.1400 C   0  0  0  0  0  0  0  0  0  0  0  0
    0.4538  -51.3566  -19.4744 C   0  0  0  0  0  0  0  0  0  0  0  0
    0.3850  -51.2720  -18.0760 O   0  0  0  0  0  0  0  0  0  0  0  0
    1.0423  -50.3317  -20.1506 C   0  0  0  0  0  0  0  0  0  0  0  0
    1.1326  -50.3757  -21.5551 C   0  0  0  0  0  0  0  0  0  0  0  0
    1.7213  -49.3476  -22.2129 O   0  0  0  0  0  0  0  0  0  0  0  0
    0.6044  -51.4908  -22.2087 C   0  0  0  0  0  0  0  0  0  0  0  0
    0.6456  -51.6228  -23.5732 C   0  0  0  0  0  0  0  0  0  0  0  0
    1.1708  -50.7203  -24.2581 O   0  0  0  0  0  0  0  0  0  0  0  0
    0.1208  -52.7348  -24.2489 C   0  0  0  0  0  0  0  0  0  0  0  0
   -0.0427  -52.0153  -17.5723 H   0  0  0  0  0  0  0  0  0  0  0  0
    1.9690  -49.0003  -23.0414 H   0  0  0  0  0  0  0  0  0  0  0  0
    0.2055  -52.7712  -25.7000 C   0  0  0  0  0  0  0  0  0  0  0  0
   -0.8904  -52.3988  -26.4530 C   0  0  0  0  0  0  0  0  0  0  0  0
   -0.8560  -52.4101  -27.8379 C   0  0  0  0  0  0  0  0  0  0  0  0
    0.3006  -52.8026  -28.4905 C   0  0  0  0  0  0  0  0  0  0  0  0
    0.3873  -52.8317  -29.8900 O   0  0  0  0  0  0  0  0  0  0  0  0
    1.4191  -53.1828  -27.7545 C   0  0  0  0  0  0  0  0  0  0  0  0
    1.3627  -53.1639  -26.3766 C   0  0  0  0  0  0  0  0  0  0  0  0
   -0.4070  -52.5619  -30.4396 H   0  0  0  0  0  0  0  0  0  0  0  0
   -2.2060  -55.3858  -23.6190 O   0  0  0  0  0  0  0  0  0  0  0  0
   -1.0117  -54.8898  -24.1017 C   0  0  0  0  0  0  0  0  0  0  0  0
   -0.4592  -55.4606  -25.0474 O   0  0  0  0  0  0  0  0  0  0  0  0
   -3.0383  -55.1851  -24.1286 H   0  0  0  0  0  0  0  0  0  0  0  0
 24 25  1  0  0  0
 25 26  2  0  0  0
 25  1  1  0  0  0
  1  2  1  0  0  0
  2  3  1  0  0  0
  3  4  2  0  0  0
  4  5  1  0  0  0
  5  6  1  0  0  0
  5  7  2  0  0  0
  7  8  1  0  0  0
  8  9  1  0  0  0
  8 10  2  0  0  0
 10 11  1  0  0  0
 11 12  2  0  0  0
 11 13  1  0  0  0
 13 16  1  0  0  0
 16 17  2  0  0  0
 17 18  1  0  0  0
 18 19  2  0  0  0
 19 20  1  0  0  0
 19 21  1  0  0  0
 21 22  2  0  0  0
 13  1  2  0  0  0
 22 16  1  0  0  0
 10  3  1  0  0  0
 24 27  1  0  0  0
  6 14  1  0  0  0
  9 15  1  0  0  0
 20 23  1  0  0  0
M  END
> <minimizedAffinity>
-8.80885

> <CNNscore>
0.5529834032

> <CNNaffinity>
5.3990602493

> <CNN_VS>
2.9855906963

> <CNNaffinity_variance>
0.1519235671

$$$$
[H]OC(=O)c1oc2c([H])c(O[H])c([H])c(O[H])c2c(=O)c1-c1c([H])c([H])c(O[H])c([H])c1[H]


 27 29  0  0  0  0  0  0  0  0999 V2000
   -0.3990  -53.5508  -23.2373 C   0  0  0  0  0  0  0  0  0  0  0  0
   -1.0253  -53.7970  -22.0828 O   0  0  0  0  0  0  0  0  0  0  0  0
   -0.6754  -53.2584  -20.9522 C   0  0  0  0  0  0  0  0  0  0  0  0
   -1.3476  -53.5359  -19.7714 C   0  0  0  0  0  0  0  0  0  0  0  0
   -0.9892  -52.9773  -18.5806 C   0  0  0  0  0  0  0  0  0  0  0  0
   -1.6875  -53.2761  -17.4015 O   0  0  0  0  0  0  0  0  0  0  0  0
    0.0590  -52.1116  -18.5033 C   0  0  0  0  0  0  0  0  0  0  0  0
    0.7875  -51.7837  -19.6627 C   0  0  0  0  0  0  0  0  0  0  0  0
    1.8279  -50.9206  -19.5685 O   0  0  0  0  0  0  0  0  0  0  0  0
    0.3969  -52.3717  -20.8674 C   0  0  0  0  0  0  0  0  0  0  0  0
    1.0450  -52.1135  -22.0481 C   0  0  0  0  0  0  0  0  0  0  0  0
    2.0161  -51.3284  -22.0522 O   0  0  0  0  0  0  0  0  0  0  0  0
    0.6683  -52.6938  -23.2688 C   0  0  0  0  0  0  0  0  0  0  0  0
   -2.4547  -53.9073  -17.4468 H   0  0  0  0  0  0  0  0  0  0  0  0
    2.5065  -50.4746  -20.0258 H   0  0  0  0  0  0  0  0  0  0  0  0
    1.4157  -52.3437  -24.4658 C   0  0  0  0  0  0  0  0  0  0  0  0
    1.0979  -51.1871  -25.1499 C   0  0  0  0  0  0  0  0  0  0  0  0
    1.7856  -50.8077  -26.2912 C   0  0  0  0  0  0  0  0  0  0  0  0
    2.8175  -51.6011  -26.7638 C   0  0  0  0  0  0  0  0  0  0  0  0
    3.5447  -51.2620  -27.9141 O   0  0  0  0  0  0  0  0  0  0  0  0
    3.1575  -52.7720  -26.0925 C   0  0  0  0  0  0  0  0  0  0  0  0
    2.4596  -53.1305  -24.9583 C   0  0  0  0  0  0  0  0  0  0  0  0
    3.3162  -50.4227  -28.4131 H   0  0  0  0  0  0  0  0  0  0  0  0
   -0.8215  -55.5684  -24.5279 O   0  0  0  0  0  0  0  0  0  0  0  0
   -0.8461  -54.1901  -24.4587 C   0  0  0  0  0  0  0  0  0  0  0  0
   -1.2457  -53.5438  -25.4325 O   0  0  0  0  0  0  0  0  0  0  0  0
   -1.6795  -56.0603  -24.4072 H   0  0  0  0  0  0  0  0  0  0  0  0
 24 25  1  0  0  0
 25 26  2  0  0  0
 25  1  1  0  0  0
  1  2  1  0  0  0
  2  3  1  0  0  0
  3  4  2  0  0  0
  4  5  1  0  0  0
  5  6  1  0  0  0
  5  7  2  0  0  0
  7  8  1  0  0  0
  8  9  1  0  0  0
  8 10  2  0  0  0
 10 11  1  0  0  0
 11 12  2  0  0  0
 11 13  1  0  0  0
 13 16  1  0  0  0
 16 17  2  0  0  0
 17 18  1  0  0  0
 18 19  2  0  0  0
 19 20  1  0  0  0
 19 21  1  0  0  0
 21 22  2  0  0  0
 13  1  2  0  0  0
 22 16  1  0  0  0
 10  3  1  0  0  0
 24 27  1  0  0  0
  6 14  1  0  0  0
  9 15  1  0  0  0
 20 23  1  0  0  0
M  END
> <minimizedAffinity>
-8.56725

> <CNNscore>
0.5485560298

> <CNNaffinity>
5.2777085304

> <CNN_VS>
2.8951189518

> <CNNaffinity_variance>
0.1291738003

$$$$
[H]C([H])=C([H])C(=O)N([H])c1c([H])c([H])c([H])c(N([H])c2nc(N([H])c3c([H])nc(OC([H])([H])C([H])([H])OC([H])([H])[H])c([H])c3[H])nc([H])c2F)c1[H]


 34 36  0  0  0  0  0  0  0  0999 V2000
   -0.9469  -54.1363  -21.2735 C   0  0  0  0  0  0  0  0  0  0  0  0
   -1.6170  -54.9916  -22.0333 N   0  0  0  0  0  0  0  0  0  0  0  0
   -1.4650  -55.0748  -23.3462 C   0  0  0  0  0  0  0  0  0  0  0  0
   -0.5801  -54.2524  -23.9882 C   0  0  0  0  0  0  0  0  0  0  0  0
   -0.4149  -54.3274  -25.3296 F   0  0  0  0  0  0  0  0  0  0  0  0
    0.1577  -53.3289  -23.2490 C   0  0  0  0  0  0  0  0  0  0  0  0
   -0.0725  -53.3304  -21.9434 N   0  0  0  0  0  0  0  0  0  0  0  0
   -1.0494  -53.9852  -19.8802 N   0  0  0  0  0  0  0  0  0  0  0  0
   -1.4621  -54.8068  -19.3394 H   0  0  0  0  0  0  0  0  0  0  0  0
    0.0475  -50.7058  -17.4105 C   0  0  0  0  0  0  0  0  0  0  0  0
   -0.7933  -51.7257  -16.9632 C   0  0  0  0  0  0  0  0  0  0  0  0
   -1.1314  -52.7626  -17.7812 C   0  0  0  0  0  0  0  0  0  0  0  0
   -0.6671  -52.8797  -19.1119 C   0  0  0  0  0  0  0  0  0  0  0  0
    0.1566  -51.8486  -19.4983 C   0  0  0  0  0  0  0  0  0  0  0  0
    0.4818  -50.8252  -18.6704 N   0  0  0  0  0  0  0  0  0  0  0  0
    0.3945  -49.6572  -16.5942 O   0  0  0  0  0  0  0  0  0  0  0  0
    1.6607  -49.3827  -16.0671 C   0  0  0  0  0  0  0  0  0  0  0  0
    2.4566  -50.5774  -15.6982 C   0  0  0  0  0  0  0  0  0  0  0  0
    2.3632  -50.0182  -13.4580 C   0  0  0  0  0  0  0  0  0  0  0  0
    2.2452  -51.0166  -14.3988 O   0  0  0  0  0  0  0  0  0  0  0  0
    1.0482  -52.4764  -23.9190 N   0  0  0  0  0  0  0  0  0  0  0  0
    0.6595  -52.0287  -24.8233 H   0  0  0  0  0  0  0  0  0  0  0  0
    2.3632  -52.1448  -23.5626 C   0  0  0  0  0  0  0  0  0  0  0  0
    3.4086  -52.7372  -24.2971 C   0  0  0  0  0  0  0  0  0  0  0  0
    4.7163  -52.4959  -24.0149 C   0  0  0  0  0  0  0  0  0  0  0  0
    5.0331  -51.6300  -22.9594 C   0  0  0  0  0  0  0  0  0  0  0  0
    4.0670  -51.0281  -22.2146 C   0  0  0  0  0  0  0  0  0  0  0  0
    2.7161  -51.3112  -22.5463 C   0  0  0  0  0  0  0  0  0  0  0  0
    4.2627  -50.1306  -21.1525 N   0  0  0  0  0  0  0  0  0  0  0  0
    4.0640  -50.4392  -19.7845 C   0  0  0  0  0  0  0  0  0  0  0  0
    3.6948  -51.5504  -19.3436 O   0  0  0  0  0  0  0  0  0  0  0  0
    4.5834  -49.1201  -21.3597 H   0  0  0  0  0  0  0  0  0  0  0  0
    4.2978  -49.4040  -18.7628 C   0  0  0  0  0  0  0  0  0  0  0  0
    5.2535  -48.5086  -18.8912 C   0  0  0  0  0  0  0  0  0  0  0  0
 19 20  1  0  0  0
 20 18  1  0  0  0
 18 17  1  0  0  0
 17 16  1  0  0  0
 16 10  1  0  0  0
 10 11  2  0  0  0
 11 12  1  0  0  0
 12 13  2  0  0  0
 13  8  1  0  0  0
  8  1  1  0  0  0
  1  2  2  0  0  0
  2  3  1  0  0  0
  3  4  2  0  0  0
  4  5  1  0  0  0
  4  6  1  0  0  0
  6 21  1  0  0  0
 21 23  1  0  0  0
 23 24  2  0  0  0
 24 25  1  0  0  0
 25 26  2  0  0  0
 26 27  1  0  0  0
 27 29  1  0  0  0
 29 30  1  0  0  0
 30 31  2  0  0  0
 30 33  1  0  0  0
 33 34  2  0  0  0
 27 28  2  0  0  0
  6  7  2  0  0  0
 13 14  1  0  0  0
 14 15  2  0  0  0
 15 10  1  0  0  0
  7  1  1  0  0  0
 28 23  1  0  0  0
  8  9  1  0  0  0
 21 22  1  0  0  0
 29 32  1  0  0  0
M  END
> <minimizedAffinity>
-6.92046

> <CNNscore>
0.8658043742

> <CNNaffinity>
6.9272933006

> <CNN_VS>
5.9976806641

> <CNNaffinity_variance>
0.0217655227

$$$$
[H]C([H])=C([H])C(=O)N([H])c1c([H])c([H])c([H])c(N([H])c2nc(N([H])c3c([H])nc(OC([H])([H])C([H])([H])OC([H])([H])[H])c([H])c3[H])nc([H])c2F)c1[H]


 34 36  0  0  0  0  0  0  0  0999 V2000
   -0.1047  -53.9267  -25.5397 C   0  0  0  0  0  0  0  0  0  0  0  0
   -0.2053  -54.3031  -26.8070 N   0  0  0  0  0  0  0  0  0  0  0  0
    0.6601  -53.9473  -27.7443 C   0  0  0  0  0  0  0  0  0  0  0  0
    1.7262  -53.1508  -27.4275 C   0  0  0  0  0  0  0  0  0  0  0  0
    2.6181  -52.7802  -28.3758 F   0  0  0  0  0  0  0  0  0  0  0  0
    1.8922  -52.7186  -26.1124 C   0  0  0  0  0  0  0  0  0  0  0  0
    0.9689  -53.1332  -25.2560 N   0  0  0  0  0  0  0  0  0  0  0  0
   -0.9763  -54.2589  -24.4888 N   0  0  0  0  0  0  0  0  0  0  0  0
   -1.8365  -54.8352  -24.7452 H   0  0  0  0  0  0  0  0  0  0  0  0
   -0.5927  -53.0830  -20.4234 C   0  0  0  0  0  0  0  0  0  0  0  0
   -0.4974  -52.1699  -21.4743 C   0  0  0  0  0  0  0  0  0  0  0  0
   -0.6197  -52.5786  -22.7692 C   0  0  0  0  0  0  0  0  0  0  0  0
   -0.8467  -53.9256  -23.1358 C   0  0  0  0  0  0  0  0  0  0  0  0
   -0.9321  -54.7797  -22.0614 C   0  0  0  0  0  0  0  0  0  0  0  0
   -0.8076  -54.3546  -20.7798 N   0  0  0  0  0  0  0  0  0  0  0  0
   -0.4713  -52.6813  -19.1157 O   0  0  0  0  0  0  0  0  0  0  0  0
   -1.3138  -53.0146  -18.0500 C   0  0  0  0  0  0  0  0  0  0  0  0
   -1.1024  -52.2228  -16.8149 C   0  0  0  0  0  0  0  0  0  0  0  0
   -3.3607  -52.5720  -16.4714 C   0  0  0  0  0  0  0  0  0  0  0  0
   -2.2747  -51.7593  -16.2347 O   0  0  0  0  0  0  0  0  0  0  0  0
    2.9777  -51.8859  -25.8014 N   0  0  0  0  0  0  0  0  0  0  0  0
    3.3475  -51.2902  -26.6246 H   0  0  0  0  0  0  0  0  0  0  0  0
    3.6321  -51.7401  -24.5699 C   0  0  0  0  0  0  0  0  0  0  0  0
    4.9379  -52.2555  -24.4584 C   0  0  0  0  0  0  0  0  0  0  0  0
    5.6467  -52.1823  -23.3009 C   0  0  0  0  0  0  0  0  0  0  0  0
    5.0586  -51.5745  -22.1835 C   0  0  0  0  0  0  0  0  0  0  0  0
    3.8009  -51.0582  -22.2302 C   0  0  0  0  0  0  0  0  0  0  0  0
    3.0997  -51.1587  -23.4604 C   0  0  0  0  0  0  0  0  0  0  0  0
    3.1195  -50.4109  -21.1869 N   0  0  0  0  0  0  0  0  0  0  0  0
    2.6909  -51.0350  -19.9898 C   0  0  0  0  0  0  0  0  0  0  0  0
    2.8675  -52.2401  -19.7032 O   0  0  0  0  0  0  0  0  0  0  0  0
    2.8844  -49.3602  -21.2737 H   0  0  0  0  0  0  0  0  0  0  0  0
    1.9770  -50.2451  -18.9717 C   0  0  0  0  0  0  0  0  0  0  0  0
    2.0868  -50.5107  -17.6877 C   0  0  0  0  0  0  0  0  0  0  0  0
 19 20  1  0  0  0
 20 18  1  0  0  0
 18 17  1  0  0  0
 17 16  1  0  0  0
 16 10  1  0  0  0
 10 11  2  0  0  0
 11 12  1  0  0  0
 12 13  2  0  0  0
 13  8  1  0  0  0
  8  1  1  0  0  0
  1  2  2  0  0  0
  2  3  1  0  0  0
  3  4  2  0  0  0
  4  5  1  0  0  0
  4  6  1  0  0  0
  6 21  1  0  0  0
 21 23  1  0  0  0
 23 24  2  0  0  0
 24 25  1  0  0  0
 25 26  2  0  0  0
 26 27  1  0  0  0
 27 29  1  0  0  0
 29 30  1  0  0  0
 30 31  2  0  0  0
 30 33  1  0  0  0
 33 34  2  0  0  0
 27 28  2  0  0  0
  6  7  2  0  0  0
 13 14  1  0  0  0
 14 15  2  0  0  0
 15 10  1  0  0  0
  7  1  1  0  0  0
 28 23  1  0  0  0
  8  9  1  0  0  0
 21 22  1  0  0  0
 29 32  1  0  0  0
M  END
> <minimizedAffinity>
-7.15296

> <CNNscore>
0.7965956330

> <CNNaffinity>
7.2989974022

> <CNN_VS>
5.8143496513

> <CNNaffinity_variance>
0.0344122574

$$$$
[H]C([H])=C([H])C(=O)N([H])c1c([H])c([H])c([H])c(N([H])c2nc(N([H])c3c([H])nc(OC([H])([H])C([H])([H])OC([H])([H])[H])c([H])c3[H])nc([H])c2F)c1[H]


 34 36  0  0  0  0  0  0  0  0999 V2000
   -1.0113  -53.9225  -21.1176 C   0  0  0  0  0  0  0  0  0  0  0  0
   -1.4183  -54.8867  -21.9315 N   0  0  0  0  0  0  0  0  0  0  0  0
   -1.1911  -54.8840  -23.2362 C   0  0  0  0  0  0  0  0  0  0  0  0
   -0.5042  -53.8501  -23.8111 C   0  0  0  0  0  0  0  0  0  0  0  0
   -0.2649  -53.8353  -25.1434 F   0  0  0  0  0  0  0  0  0  0  0  0
   -0.0472  -52.8025  -23.0127 C   0  0  0  0  0  0  0  0  0  0  0  0
   -0.3294  -52.9060  -21.7214 N   0  0  0  0  0  0  0  0  0  0  0  0
   -1.2107  -53.8501  -19.7285 N   0  0  0  0  0  0  0  0  0  0  0  0
   -1.7967  -54.6254  -19.2887 H   0  0  0  0  0  0  0  0  0  0  0  0
    0.1798  -50.9748  -16.9256 C   0  0  0  0  0  0  0  0  0  0  0  0
   -0.8434  -51.8742  -16.6235 C   0  0  0  0  0  0  0  0  0  0  0  0
   -1.2715  -52.7822  -17.5461 C   0  0  0  0  0  0  0  0  0  0  0  0
   -0.7244  -52.8783  -18.8467 C   0  0  0  0  0  0  0  0  0  0  0  0
    0.2788  -51.9694  -19.0884 C   0  0  0  0  0  0  0  0  0  0  0  0
    0.6912  -51.0734  -18.1580 N   0  0  0  0  0  0  0  0  0  0  0  0
    0.6185  -50.0567  -16.0032 O   0  0  0  0  0  0  0  0  0  0  0  0
    1.8727  -50.0161  -15.3853 C   0  0  0  0  0  0  0  0  0  0  0  0
    2.0443  -48.9312  -14.3900 C   0  0  0  0  0  0  0  0  0  0  0  0
    1.1930  -46.8024  -14.6785 C   0  0  0  0  0  0  0  0  0  0  0  0
    0.9436  -48.0943  -14.2726 O   0  0  0  0  0  0  0  0  0  0  0  0
    0.6390  -51.7371  -23.6146 N   0  0  0  0  0  0  0  0  0  0  0  0
    0.4481  -51.6090  -24.6712 H   0  0  0  0  0  0  0  0  0  0  0  0
    1.5322  -50.8354  -23.0185 C   0  0  0  0  0  0  0  0  0  0  0  0
    1.0274  -49.9774  -22.0224 C   0  0  0  0  0  0  0  0  0  0  0  0
    1.8084  -49.0547  -21.4006 C   0  0  0  0  0  0  0  0  0  0  0  0
    3.1585  -48.9551  -21.7628 C   0  0  0  0  0  0  0  0  0  0  0  0
    3.7031  -49.7565  -22.7175 C   0  0  0  0  0  0  0  0  0  0  0  0
    2.8484  -50.7042  -23.3393 C   0  0  0  0  0  0  0  0  0  0  0  0
    5.0402  -49.7623  -23.1465 N   0  0  0  0  0  0  0  0  0  0  0  0
    6.1170  -50.3434  -22.4331 C   0  0  0  0  0  0  0  0  0  0  0  0
    6.0177  -50.9312  -21.3330 O   0  0  0  0  0  0  0  0  0  0  0  0
    5.3024  -49.2927  -24.0834 H   0  0  0  0  0  0  0  0  0  0  0  0
    7.4796  -50.2766  -22.9891 C   0  0  0  0  0  0  0  0  0  0  0  0
    7.6983  -49.9639  -24.2483 C   0  0  0  0  0  0  0  0  0  0  0  0
 19 20  1  0  0  0
 20 18  1  0  0  0
 18 17  1  0  0  0
 17 16  1  0  0  0
 16 10  1  0  0  0
 10 11  2  0  0  0
 11 12  1  0  0  0
 12 13  2  0  0  0
 13  8  1  0  0  0
  8  1  1  0  0  0
  1  2  2  0  0  0
  2  3  1  0  0  0
  3  4  2  0  0  0
  4  5  1  0  0  0
  4  6  1  0  0  0
  6 21  1  0  0  0
 21 23  1  0  0  0
 23 24  2  0  0  0
 24 25  1  0  0  0
 25 26  2  0  0  0
 26 27  1  0  0  0
 27 29  1  0  0  0
 29 30  1  0  0  0
 30 31  2  0  0  0
 30 33  1  0  0  0
 33 34  2  0  0  0
 27 28  2  0  0  0
  6  7  2  0  0  0
 13 14  1  0  0  0
 14 15  2  0  0  0
 15 10  1  0  0  0
  7  1  1  0  0  0
 28 23  1  0  0  0
  8  9  1  0  0  0
 21 22  1  0  0  0
 29 32  1  0  0  0
M  END
> <minimizedAffinity>
-6.44867

> <CNNscore>
0.6836472154

> <CNNaffinity>
6.8527555466

> <CNN_VS>
4.6848673820

> <CNNaffinity_variance>
0.1037405282

$$$$
[H]C([H])=C([H])C(=O)N([H])c1c([H])c([H])c([H])c(N([H])c2nc(N([H])c3c([H])nc(OC([H])([H])C([H])([H])OC([H])([H])[H])c([H])c3[H])nc([H])c2F)c1[H]


 34 36  0  0  0  0  0  0  0  0999 V2000
   -0.9964  -54.0481  -21.4086 C   0  0  0  0  0  0  0  0  0  0  0  0
   -1.3834  -55.0859  -22.1373 N   0  0  0  0  0  0  0  0  0  0  0  0
   -1.2472  -55.1442  -23.4534 C   0  0  0  0  0  0  0  0  0  0  0  0
   -0.6826  -54.0991  -24.1319 C   0  0  0  0  0  0  0  0  0  0  0  0
   -0.5372  -54.1461  -25.4769 F   0  0  0  0  0  0  0  0  0  0  0  0
   -0.2534  -52.9757  -23.4267 C   0  0  0  0  0  0  0  0  0  0  0  0
   -0.4374  -53.0225  -22.1146 N   0  0  0  0  0  0  0  0  0  0  0  0
   -1.1048  -53.9081  -20.0146 N   0  0  0  0  0  0  0  0  0  0  0  0
   -1.7233  -54.6157  -19.5098 H   0  0  0  0  0  0  0  0  0  0  0  0
    0.8631  -50.9507  -17.6827 C   0  0  0  0  0  0  0  0  0  0  0  0
    1.3497  -51.3658  -18.9229 C   0  0  0  0  0  0  0  0  0  0  0  0
    0.6985  -52.3209  -19.6457 C   0  0  0  0  0  0  0  0  0  0  0  0
   -0.4899  -52.9476  -19.2036 C   0  0  0  0  0  0  0  0  0  0  0  0
   -0.9228  -52.5001  -17.9776 C   0  0  0  0  0  0  0  0  0  0  0  0
   -0.2614  -51.5488  -17.2730 N   0  0  0  0  0  0  0  0  0  0  0  0
    1.5114  -49.9890  -16.9471 O   0  0  0  0  0  0  0  0  0  0  0  0
    0.9253  -48.9680  -16.1918 C   0  0  0  0  0  0  0  0  0  0  0  0
    1.8737  -47.9605  -15.6603 C   0  0  0  0  0  0  0  0  0  0  0  0
    4.0530  -47.5202  -16.2898 C   0  0  0  0  0  0  0  0  0  0  0  0
    2.7198  -47.4214  -16.6191 O   0  0  0  0  0  0  0  0  0  0  0  0
    0.3063  -51.9008  -24.1338 N   0  0  0  0  0  0  0  0  0  0  0  0
   -0.4093  -51.2047  -24.5492 H   0  0  0  0  0  0  0  0  0  0  0  0
    1.6623  -51.6291  -24.3654 C   0  0  0  0  0  0  0  0  0  0  0  0
    2.6002  -52.6052  -23.9770 C   0  0  0  0  0  0  0  0  0  0  0  0
    3.9378  -52.4265  -24.1399 C   0  0  0  0  0  0  0  0  0  0  0  0
    4.3972  -51.2327  -24.7126 C   0  0  0  0  0  0  0  0  0  0  0  0
    3.5396  -50.2535  -25.1076 C   0  0  0  0  0  0  0  0  0  0  0  0
    2.1521  -50.4852  -24.9168 C   0  0  0  0  0  0  0  0  0  0  0  0
    3.8803  -49.0312  -25.7092 N   0  0  0  0  0  0  0  0  0  0  0  0
    3.9505  -48.8083  -27.1062 C   0  0  0  0  0  0  0  0  0  0  0  0
    3.7135  -49.6668  -27.9850 O   0  0  0  0  0  0  0  0  0  0  0  0
    4.1171  -48.1788  -25.0895 H   0  0  0  0  0  0  0  0  0  0  0  0
    4.3277  -47.4775  -27.6133 C   0  0  0  0  0  0  0  0  0  0  0  0
    3.7410  -46.9459  -28.6642 C   0  0  0  0  0  0  0  0  0  0  0  0
 19 20  1  0  0  0
 20 18  1  0  0  0
 18 17  1  0  0  0
 17 16  1  0  0  0
 16 10  1  0  0  0
 10 11  2  0  0  0
 11 12  1  0  0  0
 12 13  2  0  0  0
 13  8  1  0  0  0
  8  1  1  0  0  0
  1  2  2  0  0  0
  2  3  1  0  0  0
  3  4  2  0  0  0
  4  5  1  0  0  0
  4  6  1  0  0  0
  6 21  1  0  0  0
 21 23  1  0  0  0
 23 24  2  0  0  0
 24 25  1  0  0  0
 25 26  2  0  0  0
 26 27  1  0  0  0
 27 29  1  0  0  0
 29 30  1  0  0  0
 30 31  2  0  0  0
 30 33  1  0  0  0
 33 34  2  0  0  0
 27 28  2  0  0  0
  6  7  2  0  0  0
 13 14  1  0  0  0
 14 15  2  0  0  0
 15 10  1  0  0  0
  7  1  1  0  0  0
 28 23  1  0  0  0
  8  9  1  0  0  0
 21 22  1  0  0  0
 29 32  1  0  0  0
M  END
> <minimizedAffinity>
-6.55752

> <CNNscore>
0.6809739470

> <CNNaffinity>
7.0034942627

> <CNN_VS>
4.7691969872

> <CNNaffinity_variance>
0.1928266734

$$$$
[H]C([H])=C([H])C(=O)N([H])c1c([H])c([H])c([H])c(N([H])c2nc(N([H])c3c([H])nc(OC([H])([H])C([H])([H])OC([H])([H])[H])c([H])c3[H])nc([H])c2F)c1[H]


 34 36  0  0  0  0  0  0  0  0999 V2000
    1.3562  -52.3008  -22.5622 C   0  0  0  0  0  0  0  0  0  0  0  0
    0.5237  -52.8004  -23.4651 N   0  0  0  0  0  0  0  0  0  0  0  0
   -0.5533  -53.5050  -23.1530 C   0  0  0  0  0  0  0  0  0  0  0  0
   -0.8562  -53.7514  -21.8420 C   0  0  0  0  0  0  0  0  0  0  0  0
   -1.9542  -54.4698  -21.5094 F   0  0  0  0  0  0  0  0  0  0  0  0
   -0.0226  -53.2550  -20.8407 C   0  0  0  0  0  0  0  0  0  0  0  0
    1.0266  -52.5638  -21.2641 N   0  0  0  0  0  0  0  0  0  0  0  0
    2.5155  -51.5460  -22.8091 N   0  0  0  0  0  0  0  0  0  0  0  0
    3.4209  -52.0924  -22.9485 H   0  0  0  0  0  0  0  0  0  0  0  0
    2.7597  -47.3055  -22.9360 C   0  0  0  0  0  0  0  0  0  0  0  0
    1.9455  -47.9771  -22.0231 C   0  0  0  0  0  0  0  0  0  0  0  0
    1.8844  -49.3390  -22.0103 C   0  0  0  0  0  0  0  0  0  0  0  0
    2.6233  -50.1536  -22.8994 C   0  0  0  0  0  0  0  0  0  0  0  0
    3.4072  -49.4395  -23.7750 C   0  0  0  0  0  0  0  0  0  0  0  0
    3.4549  -48.0844  -23.7728 N   0  0  0  0  0  0  0  0  0  0  0  0
    2.8286  -45.9341  -22.9567 O   0  0  0  0  0  0  0  0  0  0  0  0
    2.5730  -45.0937  -24.0453 C   0  0  0  0  0  0  0  0  0  0  0  0
    3.7757  -44.6567  -24.7935 C   0  0  0  0  0  0  0  0  0  0  0  0
    3.2335  -45.2712  -26.9540 C   0  0  0  0  0  0  0  0  0  0  0  0
    3.5118  -44.2364  -26.0894 O   0  0  0  0  0  0  0  0  0  0  0  0
   -0.3310  -53.5298  -19.4999 N   0  0  0  0  0  0  0  0  0  0  0  0
   -0.4231  -54.5796  -19.2578 H   0  0  0  0  0  0  0  0  0  0  0  0
   -0.5348  -52.6183  -18.4540 C   0  0  0  0  0  0  0  0  0  0  0  0
    0.1727  -51.4015  -18.5002 C   0  0  0  0  0  0  0  0  0  0  0  0
    0.0592  -50.4627  -17.5236 C   0  0  0  0  0  0  0  0  0  0  0  0
   -0.7889  -50.7147  -16.4368 C   0  0  0  0  0  0  0  0  0  0  0  0
   -1.4980  -51.8712  -16.3370 C   0  0  0  0  0  0  0  0  0  0  0  0
   -1.3466  -52.8216  -17.3806 C   0  0  0  0  0  0  0  0  0  0  0  0
   -2.3900  -52.2236  -15.3113 N   0  0  0  0  0  0  0  0  0  0  0  0
   -3.7736  -51.9209  -15.3020 C   0  0  0  0  0  0  0  0  0  0  0  0
   -4.3821  -51.3067  -16.2064 O   0  0  0  0  0  0  0  0  0  0  0  0
   -2.0255  -52.7615  -14.4483 H   0  0  0  0  0  0  0  0  0  0  0  0
   -4.6036  -52.3415  -14.1599 C   0  0  0  0  0  0  0  0  0  0  0  0
   -4.8644  -53.6095  -13.9240 C   0  0  0  0  0  0  0  0  0  0  0  0
 19 20  1  0  0  0
 20 18  1  0  0  0
 18 17  1  0  0  0
 17 16  1  0  0  0
 16 10  1  0  0  0
 10 11  2  0  0  0
 11 12  1  0  0  0
 12 13  2  0  0  0
 13  8  1  0  0  0
  8  1  1  0  0  0
  1  2  2  0  0  0
  2  3  1  0  0  0
  3  4  2  0  0  0
  4  5  1  0  0  0
  4  6  1  0  0  0
  6 21  1  0  0  0
 21 23  1  0  0  0
 23 24  2  0  0  0
 24 25  1  0  0  0
 25 26  2  0  0  0
 26 27  1  0  0  0
 27 29  1  0  0  0
 29 30  1  0  0  0
 30 31  2  0  0  0
 30 33  1  0  0  0
 33 34  2  0  0  0
 27 28  2  0  0  0
  6  7  2  0  0  0
 13 14  1  0  0  0
 14 15  2  0  0  0
 15 10  1  0  0  0
  7  1  1  0  0  0
 28 23  1  0  0  0
  8  9  1  0  0  0
 21 22  1  0  0  0
 29 32  1  0  0  0
M  END
> <minimizedAffinity>
-6.63246

> <CNNscore>
0.6476317048

> <CNNaffinity>
6.7115125656

> <CNN_VS>
4.3465881348

> <CNNaffinity_variance>
0.0158521365

$$$$
[H]C([H])=C([H])C(=O)N([H])c1c([H])c([H])c([H])c(N([H])c2nc(N([H])c3c([H])nc(OC([H])([H])C([H])([H])OC([H])([H])[H])c([H])c3[H])nc([H])c2F)c1[H]


 34 36  0  0  0  0  0  0  0  0999 V2000
   -0.6228  -54.0535  -21.3497 C   0  0  0  0  0  0  0  0  0  0  0  0
   -1.1037  -55.0522  -22.0770 N   0  0  0  0  0  0  0  0  0  0  0  0
   -1.1662  -55.0271  -23.3996 C   0  0  0  0  0  0  0  0  0  0  0  0
   -0.7213  -53.9312  -24.0870 C   0  0  0  0  0  0  0  0  0  0  0  0
   -0.7792  -53.8928  -25.4389 F   0  0  0  0  0  0  0  0  0  0  0  0
   -0.2030  -52.8447  -23.3838 C   0  0  0  0  0  0  0  0  0  0  0  0
   -0.1872  -52.9754  -22.0646 N   0  0  0  0  0  0  0  0  0  0  0  0
   -0.5219  -54.0013  -19.9491 N   0  0  0  0  0  0  0  0  0  0  0  0
   -0.6012  -54.9294  -19.4293 H   0  0  0  0  0  0  0  0  0  0  0  0
    0.1600  -50.4912  -17.6532 C   0  0  0  0  0  0  0  0  0  0  0  0
    0.7806  -50.7075  -18.8842 C   0  0  0  0  0  0  0  0  0  0  0  0
    0.5456  -51.8466  -19.5954 C   0  0  0  0  0  0  0  0  0  0  0  0
   -0.3234  -52.8697  -19.1500 C   0  0  0  0  0  0  0  0  0  0  0  0
   -0.9064  -52.6034  -17.9334 C   0  0  0  0  0  0  0  0  0  0  0  0
   -0.6602  -51.4642  -17.2402 N   0  0  0  0  0  0  0  0  0  0  0  0
    0.3898  -49.3469  -16.9293 O   0  0  0  0  0  0  0  0  0  0  0  0
    0.0982  -49.1315  -15.5783 C   0  0  0  0  0  0  0  0  0  0  0  0
   -1.2495  -48.5757  -15.3106 C   0  0  0  0  0  0  0  0  0  0  0  0
   -0.3436  -46.6139  -14.4918 C   0  0  0  0  0  0  0  0  0  0  0  0
   -1.2962  -47.1887  -15.3030 O   0  0  0  0  0  0  0  0  0  0  0  0
    0.2324  -51.7175  -24.0968 N   0  0  0  0  0  0  0  0  0  0  0  0
   -0.5048  -51.2808  -24.7563 H   0  0  0  0  0  0  0  0  0  0  0  0
    1.4920  -51.1025  -24.0590 C   0  0  0  0  0  0  0  0  0  0  0  0
    2.2881  -51.1713  -25.2186 C   0  0  0  0  0  0  0  0  0  0  0  0
    3.5316  -50.6250  -25.2743 C   0  0  0  0  0  0  0  0  0  0  0  0
    4.0364  -49.9727  -24.1413 C   0  0  0  0  0  0  0  0  0  0  0  0
    3.3144  -49.8739  -22.9927 C   0  0  0  0  0  0  0  0  0  0  0  0
    2.0216  -50.4603  -22.9822 C   0  0  0  0  0  0  0  0  0  0  0  0
    3.7054  -49.2298  -21.8077 N   0  0  0  0  0  0  0  0  0  0  0  0
    4.2623  -49.8792  -20.6789 C   0  0  0  0  0  0  0  0  0  0  0  0
    4.4836  -51.1076  -20.5917 O   0  0  0  0  0  0  0  0  0  0  0  0
    3.5810  -48.1607  -21.7152 H   0  0  0  0  0  0  0  0  0  0  0  0
    4.6260  -49.0892  -19.4899 C   0  0  0  0  0  0  0  0  0  0  0  0
    4.0150  -49.2542  -18.3363 C   0  0  0  0  0  0  0  0  0  0  0  0
 19 20  1  0  0  0
 20 18  1  0  0  0
 18 17  1  0  0  0
 17 16  1  0  0  0
 16 10  1  0  0  0
 10 11  2  0  0  0
 11 12  1  0  0  0
 12 13  2  0  0  0
 13  8  1  0  0  0
  8  1  1  0  0  0
  1  2  2  0  0  0
  2  3  1  0  0  0
  3  4  2  0  0  0
  4  5  1  0  0  0
  4  6  1  0  0  0
  6 21  1  0  0  0
 21 23  1  0  0  0
 23 24  2  0  0  0
 24 25  1  0  0  0
 25 26  2  0  0  0
 26 27  1  0  0  0
 27 29  1  0  0  0
 29 30  1  0  0  0
 30 31  2  0  0  0
 30 33  1  0  0  0
 33 34  2  0  0  0
 27 28  2  0  0  0
  6  7  2  0  0  0
 13 14  1  0  0  0
 14 15  2  0  0  0
 15 10  1  0  0  0
  7  1  1  0  0  0
 28 23  1  0  0  0
  8  9  1  0  0  0
 21 22  1  0  0  0
 29 32  1  0  0  0
M  END
> <minimizedAffinity>
-6.27952

> <CNNscore>
0.6079040170

> <CNNaffinity>
6.8498206139

> <CNN_VS>
4.1640334129

> <CNNaffinity_variance>
0.0983157605

$$$$
[H]C([H])=C([H])C(=O)N([H])c1c([H])c([H])c([H])c(N([H])c2nc(N([H])c3c([H])nc(OC([H])([H])C([H])([H])OC([H])([H])[H])c([H])c3[H])nc([H])c2F)c1[H]


 34 36  0  0  0  0  0  0  0  0999 V2000
    0.4313  -53.9682  -26.2018 C   0  0  0  0  0  0  0  0  0  0  0  0
    0.2463  -53.6353  -27.4718 N   0  0  0  0  0  0  0  0  0  0  0  0
    1.1773  -53.0609  -28.2182 C   0  0  0  0  0  0  0  0  0  0  0  0
    2.4064  -52.7806  -27.6871 C   0  0  0  0  0  0  0  0  0  0  0  0
    3.3670  -52.1942  -28.4393 F   0  0  0  0  0  0  0  0  0  0  0  0
    2.6685  -53.1045  -26.3567 C   0  0  0  0  0  0  0  0  0  0  0  0
    1.6672  -53.6756  -25.7018 N   0  0  0  0  0  0  0  0  0  0  0  0
   -0.5005  -54.5777  -25.3445 N   0  0  0  0  0  0  0  0  0  0  0  0
   -1.0956  -55.3580  -25.7626 H   0  0  0  0  0  0  0  0  0  0  0  0
   -1.1975  -53.5224  -21.2877 C   0  0  0  0  0  0  0  0  0  0  0  0
   -0.6653  -52.6208  -22.2102 C   0  0  0  0  0  0  0  0  0  0  0  0
   -0.4481  -52.9907  -23.5044 C   0  0  0  0  0  0  0  0  0  0  0  0
   -0.7387  -54.2842  -23.9971 C   0  0  0  0  0  0  0  0  0  0  0  0
   -1.2604  -55.1292  -23.0459 C   0  0  0  0  0  0  0  0  0  0  0  0
   -1.4693  -54.7433  -21.7629 N   0  0  0  0  0  0  0  0  0  0  0  0
   -1.4205  -53.1595  -19.9820 O   0  0  0  0  0  0  0  0  0  0  0  0
   -0.4565  -52.9284  -18.9952 C   0  0  0  0  0  0  0  0  0  0  0  0
   -0.9995  -52.6299  -17.6487 C   0  0  0  0  0  0  0  0  0  0  0  0
   -3.0081  -52.4507  -16.5203 C   0  0  0  0  0  0  0  0  0  0  0  0
   -2.2518  -53.1788  -17.4112 O   0  0  0  0  0  0  0  0  0  0  0  0
    3.9255  -52.7951  -25.8156 N   0  0  0  0  0  0  0  0  0  0  0  0
    4.7686  -53.0514  -26.4422 H   0  0  0  0  0  0  0  0  0  0  0  0
    4.2133  -52.2058  -24.5762 C   0  0  0  0  0  0  0  0  0  0  0  0
    5.5571  -51.8874  -24.3001 C   0  0  0  0  0  0  0  0  0  0  0  0
    5.9400  -51.3335  -23.1193 C   0  0  0  0  0  0  0  0  0  0  0  0
    4.9659  -51.0712  -22.1465 C   0  0  0  0  0  0  0  0  0  0  0  0
    3.6524  -51.3566  -22.3555 C   0  0  0  0  0  0  0  0  0  0  0  0
    3.3008  -51.9347  -23.6034 C   0  0  0  0  0  0  0  0  0  0  0  0
    2.5901  -51.1204  -21.4680 N   0  0  0  0  0  0  0  0  0  0  0  0
    1.9442  -49.8722  -21.2922 C   0  0  0  0  0  0  0  0  0  0  0  0
    2.2306  -48.8206  -21.9067 O   0  0  0  0  0  0  0  0  0  0  0  0
    2.2169  -51.9278  -20.8551 H   0  0  0  0  0  0  0  0  0  0  0  0
    0.8429  -49.7524  -20.3211 C   0  0  0  0  0  0  0  0  0  0  0  0
    1.0659  -49.4916  -19.0508 C   0  0  0  0  0  0  0  0  0  0  0  0
 19 20  1  0  0  0
 20 18  1  0  0  0
 18 17  1  0  0  0
 17 16  1  0  0  0
 16 10  1  0  0  0
 10 11  2  0  0  0
 11 12  1  0  0  0
 12 13  2  0  0  0
 13  8  1  0  0  0
  8  1  1  0  0  0
  1  2  2  0  0  0
  2  3  1  0  0  0
  3  4  2  0  0  0
  4  5  1  0  0  0
  4  6  1  0  0  0
  6 21  1  0  0  0
 21 23  1  0  0  0
 23 24  2  0  0  0
 24 25  1  0  0  0
 25 26  2  0  0  0
 26 27  1  0  0  0
 27 29  1  0  0  0
 29 30  1  0  0  0
 30 31  2  0  0  0
 30 33  1  0  0  0
 33 34  2  0  0  0
 27 28  2  0  0  0
  6  7  2  0  0  0
 13 14  1  0  0  0
 14 15  2  0  0  0
 15 10  1  0  0  0
  7  1  1  0  0  0
 28 23  1  0  0  0
  8  9  1  0  0  0
 21 22  1  0  0  0
 29 32  1  0  0  0
M  END
> <minimizedAffinity>
-7.70973

> <CNNscore>
0.5789747834

> <CNNaffinity>
6.9364471436

> <CNN_VS>
4.0160279274

> <CNNaffinity_variance>
0.1526287645

$$$$
[H]C([H])=C([H])C(=O)N([H])c1c([H])c([H])c([H])c(N([H])c2nc(N([H])c3c([H])nc(OC([H])([H])C([H])([H])OC([H])([H])[H])c([H])c3[H])nc([H])c2F)c1[H]


 34 36  0  0  0  0  0  0  0  0999 V2000
   -0.3656  -53.6687  -20.5470 C   0  0  0  0  0  0  0  0  0  0  0  0
   -1.0588  -54.5305  -21.2781 N   0  0  0  0  0  0  0  0  0  0  0  0
   -1.1949  -54.4287  -22.5915 C   0  0  0  0  0  0  0  0  0  0  0  0
   -0.6045  -53.3944  -23.2646 C   0  0  0  0  0  0  0  0  0  0  0  0
   -0.7354  -53.2789  -24.6069 F   0  0  0  0  0  0  0  0  0  0  0  0
    0.1396  -52.4516  -22.5566 C   0  0  0  0  0  0  0  0  0  0  0  0
    0.2108  -52.6489  -21.2475 N   0  0  0  0  0  0  0  0  0  0  0  0
   -0.1735  -53.7051  -19.1555 N   0  0  0  0  0  0  0  0  0  0  0  0
    0.2541  -54.5965  -18.7551 H   0  0  0  0  0  0  0  0  0  0  0  0
   -0.9842  -50.5544  -16.4217 C   0  0  0  0  0  0  0  0  0  0  0  0
    0.0326  -50.4705  -17.3736 C   0  0  0  0  0  0  0  0  0  0  0  0
    0.2720  -51.5006  -18.2340 C   0  0  0  0  0  0  0  0  0  0  0  0
   -0.4738  -52.7022  -18.2267 C   0  0  0  0  0  0  0  0  0  0  0  0
   -1.4611  -52.7293  -17.2699 C   0  0  0  0  0  0  0  0  0  0  0  0
   -1.6844  -51.6946  -16.4224 N   0  0  0  0  0  0  0  0  0  0  0  0
   -1.2336  -49.5222  -15.5508 O   0  0  0  0  0  0  0  0  0  0  0  0
   -1.7285  -49.6211  -14.2462 C   0  0  0  0  0  0  0  0  0  0  0  0
   -2.9465  -48.8204  -13.9774 C   0  0  0  0  0  0  0  0  0  0  0  0
   -1.5415  -47.4700  -12.7357 C   0  0  0  0  0  0  0  0  0  0  0  0
   -2.6880  -47.5453  -13.4944 O   0  0  0  0  0  0  0  0  0  0  0  0
    0.7248  -51.3836  -23.2533 N   0  0  0  0  0  0  0  0  0  0  0  0
    0.1164  -50.4920  -23.3181 H   0  0  0  0  0  0  0  0  0  0  0  0
    1.9836  -51.3377  -23.8693 C   0  0  0  0  0  0  0  0  0  0  0  0
    3.0454  -52.0137  -23.2377 C   0  0  0  0  0  0  0  0  0  0  0  0
    4.3066  -52.0106  -23.7447 C   0  0  0  0  0  0  0  0  0  0  0  0
    4.5572  -51.3124  -24.9337 C   0  0  0  0  0  0  0  0  0  0  0  0
    3.5723  -50.6411  -25.5892 C   0  0  0  0  0  0  0  0  0  0  0  0
    2.2717  -50.6725  -25.0212 C   0  0  0  0  0  0  0  0  0  0  0  0
    3.6991  -49.9280  -26.7922 N   0  0  0  0  0  0  0  0  0  0  0  0
    4.0246  -48.5528  -26.8878 C   0  0  0  0  0  0  0  0  0  0  0  0
    4.2467  -47.7965  -25.9162 O   0  0  0  0  0  0  0  0  0  0  0  0
    3.5380  -50.4345  -27.7326 H   0  0  0  0  0  0  0  0  0  0  0  0
    4.1211  -47.9177  -28.2135 C   0  0  0  0  0  0  0  0  0  0  0  0
    3.3433  -46.9138  -28.5580 C   0  0  0  0  0  0  0  0  0  0  0  0
 19 20  1  0  0  0
 20 18  1  0  0  0
 18 17  1  0  0  0
 17 16  1  0  0  0
 16 10  1  0  0  0
 10 11  2  0  0  0
 11 12  1  0  0  0
 12 13  2  0  0  0
 13  8  1  0  0  0
  8  1  1  0  0  0
  1  2  2  0  0  0
  2  3  1  0  0  0
  3  4  2  0  0  0
  4  5  1  0  0  0
  4  6  1  0  0  0
  6 21  1  0  0  0
 21 23  1  0  0  0
 23 24  2  0  0  0
 24 25  1  0  0  0
 25 26  2  0  0  0
 26 27  1  0  0  0
 27 29  1  0  0  0
 29 30  1  0  0  0
 30 31  2  0  0  0
 30 33  1  0  0  0
 33 34  2  0  0  0
 27 28  2  0  0  0
  6  7  2  0  0  0
 13 14  1  0  0  0
 14 15  2  0  0  0
 15 10  1  0  0  0
  7  1  1  0  0  0
 28 23  1  0  0  0
  8  9  1  0  0  0
 21 22  1  0  0  0
 29 32  1  0  0  0
M  END
> <minimizedAffinity>
-6.24132

> <CNNscore>
0.5339953303

> <CNNaffinity>
6.7875571251

> <CNN_VS>
3.6245238781

> <CNNaffinity_variance>
0.3611135483

$$$$
[H]C([H])=C([H])C(=O)N([H])c1c([H])c([H])c([H])c(N([H])c2nc(N([H])c3c([H])nc(OC([H])([H])C([H])([H])OC([H])([H])[H])c([H])c3[H])nc([H])c2F)c1[H]


 34 36  0  0  0  0  0  0  0  0999 V2000
    0.4691  -53.9834  -26.2244 C   0  0  0  0  0  0  0  0  0  0  0  0
    0.3502  -53.7994  -27.5320 N   0  0  0  0  0  0  0  0  0  0  0  0
    1.2939  -53.2478  -28.2796 C   0  0  0  0  0  0  0  0  0  0  0  0
    2.4664  -52.8334  -27.7096 C   0  0  0  0  0  0  0  0  0  0  0  0
    3.4392  -52.2684  -28.4624 F   0  0  0  0  0  0  0  0  0  0  0  0
    2.6575  -52.9971  -26.3383 C   0  0  0  0  0  0  0  0  0  0  0  0
    1.6497  -53.5598  -25.6862 N   0  0  0  0  0  0  0  0  0  0  0  0
   -0.4807  -54.5583  -25.3630 N   0  0  0  0  0  0  0  0  0  0  0  0
   -1.1026  -55.3196  -25.7770 H   0  0  0  0  0  0  0  0  0  0  0  0
   -1.1415  -53.4650  -21.3102 C   0  0  0  0  0  0  0  0  0  0  0  0
   -0.6359  -52.5664  -22.2504 C   0  0  0  0  0  0  0  0  0  0  0  0
   -0.4298  -52.9485  -23.5428 C   0  0  0  0  0  0  0  0  0  0  0  0
   -0.7059  -54.2523  -24.0161 C   0  0  0  0  0  0  0  0  0  0  0  0
   -1.2016  -55.0938  -23.0481 C   0  0  0  0  0  0  0  0  0  0  0  0
   -1.3999  -54.6957  -21.7671 N   0  0  0  0  0  0  0  0  0  0  0  0
   -1.3531  -53.0899  -20.0061 O   0  0  0  0  0  0  0  0  0  0  0  0
   -0.3847  -52.9121  -19.0125 C   0  0  0  0  0  0  0  0  0  0  0  0
    0.1639  -51.5387  -18.9132 C   0  0  0  0  0  0  0  0  0  0  0  0
    2.2320  -52.0128  -19.8286 C   0  0  0  0  0  0  0  0  0  0  0  0
    1.5420  -51.4919  -18.7569 O   0  0  0  0  0  0  0  0  0  0  0  0
    3.8554  -52.5509  -25.7599 N   0  0  0  0  0  0  0  0  0  0  0  0
    4.7540  -52.8474  -26.2832 H   0  0  0  0  0  0  0  0  0  0  0  0
    4.0226  -51.7817  -24.5994 C   0  0  0  0  0  0  0  0  0  0  0  0
    4.8424  -52.3050  -23.5809 C   0  0  0  0  0  0  0  0  0  0  0  0
    5.0498  -51.6453  -22.4106 C   0  0  0  0  0  0  0  0  0  0  0  0
    4.4275  -50.4054  -22.2122 C   0  0  0  0  0  0  0  0  0  0  0  0
    3.6250  -49.8491  -23.1592 C   0  0  0  0  0  0  0  0  0  0  0  0
    3.4380  -50.5753  -24.3645 C   0  0  0  0  0  0  0  0  0  0  0  0
    2.9689  -48.6100  -23.0816 N   0  0  0  0  0  0  0  0  0  0  0  0
    3.5961  -47.3502  -23.2418 C   0  0  0  0  0  0  0  0  0  0  0  0
    4.8124  -47.1766  -23.4785 O   0  0  0  0  0  0  0  0  0  0  0  0
    1.9079  -48.5794  -22.8810 H   0  0  0  0  0  0  0  0  0  0  0  0
    2.7956  -46.1186  -23.1302 C   0  0  0  0  0  0  0  0  0  0  0  0
    2.4252  -45.4356  -24.1922 C   0  0  0  0  0  0  0  0  0  0  0  0
 19 20  1  0  0  0
 20 18  1  0  0  0
 18 17  1  0  0  0
 17 16  1  0  0  0
 16 10  1  0  0  0
 10 11  2  0  0  0
 11 12  1  0  0  0
 12 13  2  0  0  0
 13  8  1  0  0  0
  8  1  1  0  0  0
  1  2  2  0  0  0
  2  3  1  0  0  0
  3  4  2  0  0  0
  4  5  1  0  0  0
  4  6  1  0  0  0
  6 21  1  0  0  0
 21 23  1  0  0  0
 23 24  2  0  0  0
 24 25  1  0  0  0
 25 26  2  0  0  0
 26 27  1  0  0  0
 27 29  1  0  0  0
 29 30  1  0  0  0
 30 31  2  0  0  0
 30 33  1  0  0  0
 33 34  2  0  0  0
 27 28  2  0  0  0
  6  7  2  0  0  0
 13 14  1  0  0  0
 14 15  2  0  0  0
 15 10  1  0  0  0
  7  1  1  0  0  0
 28 23  1  0  0  0
  8  9  1  0  0  0
 21 22  1  0  0  0
 29 32  1  0  0  0
M  END
> <minimizedAffinity>
-7.52018

> <CNNscore>
0.4689906240

> <CNNaffinity>
6.8343276978

> <CNN_VS>
3.2052357197

> <CNNaffinity_variance>
0.1033533812

$$$$
[H]c1nc(N([H])[C@@]([H])(c2c([H])c([H])c([H])c([H])c2[H])C([H])([H])[H])c2c([H])c(-c3c([H])c([H])c(F)c([H])c3OC([H])([H])[H])sc2n1


 28 31  0  0  0  0  0  0  0  0999 V2000
    0.6399  -52.0685  -20.1654 C   0  0  0  0  0  0  0  0  0  0  0  0
    0.6618  -52.1757  -21.5253 C   0  0  0  0  0  0  0  0  0  0  0  0
   -0.0932  -53.1256  -22.1068 C   0  0  0  0  0  0  0  0  0  0  0  0
   -0.2164  -53.4058  -23.4807 C   0  0  0  0  0  0  0  0  0  0  0  0
   -1.0215  -54.3977  -23.8861 N   0  0  0  0  0  0  0  0  0  0  0  0
   -1.7470  -55.1765  -23.0774 C   0  0  0  0  0  0  0  0  0  0  0  0
   -1.6422  -54.9234  -21.7601 N   0  0  0  0  0  0  0  0  0  0  0  0
   -0.8361  -53.9244  -21.2926 C   0  0  0  0  0  0  0  0  0  0  0  0
   -0.4692  -53.3384  -19.7397 S   0  0  0  0  0  0  0  0  0  0  0  0
    2.6661  -51.1237  -19.0973 C   0  0  0  0  0  0  0  0  0  0  0  0
    3.1982  -50.2262  -18.1560 C   0  0  0  0  0  0  0  0  0  0  0  0
    2.4215  -49.4252  -17.3817 C   0  0  0  0  0  0  0  0  0  0  0  0
    2.9034  -48.5499  -16.4656 F   0  0  0  0  0  0  0  0  0  0  0  0
    1.0529  -49.4889  -17.5185 C   0  0  0  0  0  0  0  0  0  0  0  0
    0.5301  -50.3670  -18.4395 C   0  0  0  0  0  0  0  0  0  0  0  0
    1.3151  -51.1776  -19.2234 C   0  0  0  0  0  0  0  0  0  0  0  0
    4.2571  -51.4641  -20.9378 C   0  0  0  0  0  0  0  0  0  0  0  0
    3.5426  -51.8881  -19.8292 O   0  0  0  0  0  0  0  0  0  0  0  0
    0.4963  -52.6600  -24.4720 N   0  0  0  0  0  0  0  0  0  0  0  0
    0.5828  -51.6246  -24.4152 H   0  0  0  0  0  0  0  0  0  0  0  0
    1.1255  -53.3258  -25.5955 C   0  0  0  0  0  0  0  0  0  0  0  0
    2.5605  -52.9455  -25.7611 C   0  0  0  0  0  0  0  0  0  0  0  0
    0.3624  -53.0906  -26.8532 C   0  0  0  0  0  0  0  0  0  0  0  0
   -0.9448  -52.6219  -26.8289 C   0  0  0  0  0  0  0  0  0  0  0  0
   -1.6287  -52.4126  -28.0075 C   0  0  0  0  0  0  0  0  0  0  0  0
   -1.0507  -52.6567  -29.2356 C   0  0  0  0  0  0  0  0  0  0  0  0
    0.2401  -53.1196  -29.2587 C   0  0  0  0  0  0  0  0  0  0  0  0
    0.9284  -53.3305  -28.0851 C   0  0  0  0  0  0  0  0  0  0  0  0
 17 18  1  0  0  0
 18 10  1  0  0  0
 10 11  2  0  0  0
 11 12  1  0  0  0
 12 13  1  0  0  0
 12 14  2  0  0  0
 14 15  1  0  0  0
 15 16  2  0  0  0
 16  1  1  0  0  0
  1  2  2  0  0  0
  2  3  1  0  0  0
  3  4  2  0  0  0
  4 19  1  0  0  0
 19 21  1  0  0  0
 21 22  1  0  0  0
 21 23  1  0  0  0
 23 24  2  0  0  0
 24 25  1  0  0  0
 25 26  2  0  0  0
 26 27  1  0  0  0
 27 28  2  0  0  0
  4  5  1  0  0  0
  5  6  2  0  0  0
  6  7  1  0  0  0
  7  8  2  0  0  0
  8  9  1  0  0  0
 16 10  1  0  0  0
  9  1  1  0  0  0
  8  3  1  0  0  0
 28 23  1  0  0  0
 19 20  1  0  0  0
M  END
> <minimizedAffinity>
-8.59386

> <CNNscore>
0.9157507420

> <CNNaffinity>
7.0804800987

> <CNN_VS>
6.4839549065

> <CNNaffinity_variance>
0.1257733405

$$$$
[H]c1nc(N([H])[C@@]([H])(c2c([H])c([H])c([H])c([H])c2[H])C([H])([H])[H])c2c([H])c(-c3c([H])c([H])c(F)c([H])c3OC([H])([H])[H])sc2n1


 28 31  0  0  0  0  0  0  0  0999 V2000
   -0.3282  -53.1476  -24.7906 C   0  0  0  0  0  0  0  0  0  0  0  0
   -0.1232  -52.2559  -23.7785 C   0  0  0  0  0  0  0  0  0  0  0  0
   -0.3643  -52.6518  -22.5153 C   0  0  0  0  0  0  0  0  0  0  0  0
   -0.2198  -51.8988  -21.3350 C   0  0  0  0  0  0  0  0  0  0  0  0
   -0.5077  -52.4582  -20.1514 N   0  0  0  0  0  0  0  0  0  0  0  0
   -0.9359  -53.7128  -19.9794 C   0  0  0  0  0  0  0  0  0  0  0  0
   -1.0801  -54.4482  -21.0969 N   0  0  0  0  0  0  0  0  0  0  0  0
   -0.8008  -53.9276  -22.3286 C   0  0  0  0  0  0  0  0  0  0  0  0
   -0.8662  -54.5473  -23.9101 S   0  0  0  0  0  0  0  0  0  0  0  0
    1.0086  -53.2862  -26.8721 C   0  0  0  0  0  0  0  0  0  0  0  0
    1.0322  -53.1754  -28.2728 C   0  0  0  0  0  0  0  0  0  0  0  0
   -0.0671  -52.8585  -29.0048 C   0  0  0  0  0  0  0  0  0  0  0  0
   -0.0773  -52.7439  -30.3554 F   0  0  0  0  0  0  0  0  0  0  0  0
   -1.2598  -52.6346  -28.3544 C   0  0  0  0  0  0  0  0  0  0  0  0
   -1.2848  -52.7426  -26.9831 C   0  0  0  0  0  0  0  0  0  0  0  0
   -0.1732  -53.0632  -26.2418 C   0  0  0  0  0  0  0  0  0  0  0  0
    3.2488  -52.7595  -26.0124 C   0  0  0  0  0  0  0  0  0  0  0  0
    2.1788  -53.6122  -26.2296 O   0  0  0  0  0  0  0  0  0  0  0  0
    0.2292  -50.5405  -21.3540 N   0  0  0  0  0  0  0  0  0  0  0  0
   -0.3084  -49.7973  -21.8453 H   0  0  0  0  0  0  0  0  0  0  0  0
    1.4554  -50.1520  -20.6856 C   0  0  0  0  0  0  0  0  0  0  0  0
    1.4535  -48.7187  -20.2651 C   0  0  0  0  0  0  0  0  0  0  0  0
    2.6451  -50.4596  -21.5278 C   0  0  0  0  0  0  0  0  0  0  0  0
    2.8369  -49.8474  -22.7596 C   0  0  0  0  0  0  0  0  0  0  0  0
    3.9468  -50.1499  -23.5194 C   0  0  0  0  0  0  0  0  0  0  0  0
    4.8935  -51.0572  -23.0926 C   0  0  0  0  0  0  0  0  0  0  0  0
    4.7035  -51.6615  -21.8761 C   0  0  0  0  0  0  0  0  0  0  0  0
    3.5971  -51.3635  -21.1126 C   0  0  0  0  0  0  0  0  0  0  0  0
 17 18  1  0  0  0
 18 10  1  0  0  0
 10 11  2  0  0  0
 11 12  1  0  0  0
 12 13  1  0  0  0
 12 14  2  0  0  0
 14 15  1  0  0  0
 15 16  2  0  0  0
 16  1  1  0  0  0
  1  2  2  0  0  0
  2  3  1  0  0  0
  3  4  2  0  0  0
  4 19  1  0  0  0
 19 21  1  0  0  0
 21 22  1  0  0  0
 21 23  1  0  0  0
 23 24  2  0  0  0
 24 25  1  0  0  0
 25 26  2  0  0  0
 26 27  1  0  0  0
 27 28  2  0  0  0
  4  5  1  0  0  0
  5  6  2  0  0  0
  6  7  1  0  0  0
  7  8  2  0  0  0
  8  9  1  0  0  0
 16 10  1  0  0  0
  9  1  1  0  0  0
  8  3  1  0  0  0
 28 23  1  0  0  0
 19 20  1  0  0  0
M  END
> <minimizedAffinity>
-8.49578

> <CNNscore>
0.8371670842

> <CNNaffinity>
6.9999670982

> <CNN_VS>
5.8601422310

> <CNNaffinity_variance>
0.2284007967

$$$$
[H]c1nc(N([H])[C@@]([H])(c2c([H])c([H])c([H])c([H])c2[H])C([H])([H])[H])c2c([H])c(-c3c([H])c([H])c(F)c([H])c3OC([H])([H])[H])sc2n1


 28 31  0  0  0  0  0  0  0  0999 V2000
    0.0448  -51.9791  -20.4347 C   0  0  0  0  0  0  0  0  0  0  0  0
    0.1721  -51.9824  -21.7931 C   0  0  0  0  0  0  0  0  0  0  0  0
   -0.3246  -53.0262  -22.4820 C   0  0  0  0  0  0  0  0  0  0  0  0
   -0.3008  -53.2277  -23.8748 C   0  0  0  0  0  0  0  0  0  0  0  0
   -0.8481  -54.3354  -24.3946 N   0  0  0  0  0  0  0  0  0  0  0  0
   -1.4374  -55.3047  -23.6875 C   0  0  0  0  0  0  0  0  0  0  0  0
   -1.4698  -55.1294  -22.3538 N   0  0  0  0  0  0  0  0  0  0  0  0
   -0.9270  -54.0190  -21.7719 C   0  0  0  0  0  0  0  0  0  0  0  0
   -0.7898  -53.4807  -20.1654 S   0  0  0  0  0  0  0  0  0  0  0  0
    0.0688  -51.1518  -18.0994 C   0  0  0  0  0  0  0  0  0  0  0  0
    0.5278  -50.1813  -17.1926 C   0  0  0  0  0  0  0  0  0  0  0  0
    1.3296  -49.1492  -17.5622 C   0  0  0  0  0  0  0  0  0  0  0  0
    1.7888  -48.1979  -16.7128 F   0  0  0  0  0  0  0  0  0  0  0  0
    1.7139  -49.0418  -18.8800 C   0  0  0  0  0  0  0  0  0  0  0  0
    1.2655  -49.9909  -19.7692 C   0  0  0  0  0  0  0  0  0  0  0  0
    0.4544  -51.0354  -19.3962 C   0  0  0  0  0  0  0  0  0  0  0  0
   -1.5124  -52.0926  -16.4718 C   0  0  0  0  0  0  0  0  0  0  0  0
   -0.7387  -52.1546  -17.6192 O   0  0  0  0  0  0  0  0  0  0  0  0
    0.2942  -52.2803  -24.7666 N   0  0  0  0  0  0  0  0  0  0  0  0
    1.3003  -52.0243  -24.6952 H   0  0  0  0  0  0  0  0  0  0  0  0
   -0.4891  -51.6415  -25.8056 C   0  0  0  0  0  0  0  0  0  0  0  0
   -1.9516  -51.6328  -25.5019 C   0  0  0  0  0  0  0  0  0  0  0  0
   -0.2235  -52.2613  -27.1340 C   0  0  0  0  0  0  0  0  0  0  0  0
    1.0322  -52.7551  -27.4635 C   0  0  0  0  0  0  0  0  0  0  0  0
    1.2514  -53.3242  -28.6999 C   0  0  0  0  0  0  0  0  0  0  0  0
    0.2489  -53.4231  -29.6417 C   0  0  0  0  0  0  0  0  0  0  0  0
   -0.9908  -52.9352  -29.3157 C   0  0  0  0  0  0  0  0  0  0  0  0
   -1.2160  -52.3659  -28.0825 C   0  0  0  0  0  0  0  0  0  0  0  0
 17 18  1  0  0  0
 18 10  1  0  0  0
 10 11  2  0  0  0
 11 12  1  0  0  0
 12 13  1  0  0  0
 12 14  2  0  0  0
 14 15  1  0  0  0
 15 16  2  0  0  0
 16  1  1  0  0  0
  1  2  2  0  0  0
  2  3  1  0  0  0
  3  4  2  0  0  0
  4 19  1  0  0  0
 19 21  1  0  0  0
 21 22  1  0  0  0
 21 23  1  0  0  0
 23 24  2  0  0  0
 24 25  1  0  0  0
 25 26  2  0  0  0
 26 27  1  0  0  0
 27 28  2  0  0  0
  4  5  1  0  0  0
  5  6  2  0  0  0
  6  7  1  0  0  0
  7  8  2  0  0  0
  8  9  1  0  0  0
 16 10  1  0  0  0
  9  1  1  0  0  0
  8  3  1  0  0  0
 28 23  1  0  0  0
 19 20  1  0  0  0
M  END
> <minimizedAffinity>
-8.08267

> <CNNscore>
0.8177183270

> <CNNaffinity>
7.0189085007

> <CNN_VS>
5.7394900322

> <CNNaffinity_variance>
0.1505146474

$$$$
[H]c1nc(N([H])[C@@]([H])(c2c([H])c([H])c([H])c([H])c2[H])C([H])([H])[H])c2c([H])c(-c3c([H])c([H])c(F)c([H])c3OC([H])([H])[H])sc2n1


 28 31  0  0  0  0  0  0  0  0999 V2000
   -0.3489  -53.1534  -24.7938 C   0  0  0  0  0  0  0  0  0  0  0  0
   -0.0499  -52.2993  -23.7728 C   0  0  0  0  0  0  0  0  0  0  0  0
   -0.3179  -52.6867  -22.5123 C   0  0  0  0  0  0  0  0  0  0  0  0
   -0.0911  -51.9670  -21.3242 C   0  0  0  0  0  0  0  0  0  0  0  0
   -0.4223  -52.5114  -20.1450 N   0  0  0  0  0  0  0  0  0  0  0  0
   -0.9690  -53.7206  -19.9844 C   0  0  0  0  0  0  0  0  0  0  0  0
   -1.1933  -54.4237  -21.1095 N   0  0  0  0  0  0  0  0  0  0  0  0
   -0.8748  -53.9164  -22.3373 C   0  0  0  0  0  0  0  0  0  0  0  0
   -1.0132  -54.5057  -23.9257 S   0  0  0  0  0  0  0  0  0  0  0  0
    0.9794  -53.2951  -26.8805 C   0  0  0  0  0  0  0  0  0  0  0  0
    0.9989  -53.1796  -28.2809 C   0  0  0  0  0  0  0  0  0  0  0  0
   -0.1005  -52.8519  -29.0079 C   0  0  0  0  0  0  0  0  0  0  0  0
   -0.1146  -52.7326  -30.3581 F   0  0  0  0  0  0  0  0  0  0  0  0
   -1.2892  -52.6211  -28.3524 C   0  0  0  0  0  0  0  0  0  0  0  0
   -1.3102  -52.7336  -26.9814 C   0  0  0  0  0  0  0  0  0  0  0  0
   -0.1985  -53.0653  -26.2452 C   0  0  0  0  0  0  0  0  0  0  0  0
    3.1960  -52.7698  -25.9609 C   0  0  0  0  0  0  0  0  0  0  0  0
    2.1493  -53.6323  -26.2433 O   0  0  0  0  0  0  0  0  0  0  0  0
    0.4877  -50.6586  -21.3306 N   0  0  0  0  0  0  0  0  0  0  0  0
   -0.0690  -49.8194  -21.5926 H   0  0  0  0  0  0  0  0  0  0  0  0
    1.8772  -50.4571  -20.9702 C   0  0  0  0  0  0  0  0  0  0  0  0
    2.7684  -51.5414  -21.4814 C   0  0  0  0  0  0  0  0  0  0  0  0
    2.0298  -50.2905  -19.4977 C   0  0  0  0  0  0  0  0  0  0  0  0
    1.1727  -49.4755  -18.7695 C   0  0  0  0  0  0  0  0  0  0  0  0
    1.3357  -49.3387  -17.4074 C   0  0  0  0  0  0  0  0  0  0  0  0
    2.3397  -49.9950  -16.7268 C   0  0  0  0  0  0  0  0  0  0  0  0
    3.1857  -50.7996  -17.4465 C   0  0  0  0  0  0  0  0  0  0  0  0
    3.0279  -50.9403  -18.8070 C   0  0  0  0  0  0  0  0  0  0  0  0
 17 18  1  0  0  0
 18 10  1  0  0  0
 10 11  2  0  0  0
 11 12  1  0  0  0
 12 13  1  0  0  0
 12 14  2  0  0  0
 14 15  1  0  0  0
 15 16  2  0  0  0
 16  1  1  0  0  0
  1  2  2  0  0  0
  2  3  1  0  0  0
  3  4  2  0  0  0
  4 19  1  0  0  0
 19 21  1  0  0  0
 21 22  1  0  0  0
 21 23  1  0  0  0
 23 24  2  0  0  0
 24 25  1  0  0  0
 25 26  2  0  0  0
 26 27  1  0  0  0
 27 28  2  0  0  0
  4  5  1  0  0  0
  5  6  2  0  0  0
  6  7  1  0  0  0
  7  8  2  0  0  0
  8  9  1  0  0  0
 16 10  1  0  0  0
  9  1  1  0  0  0
  8  3  1  0  0  0
 28 23  1  0  0  0
 19 20  1  0  0  0
M  END
> <minimizedAffinity>
-8.36647

> <CNNscore>
0.8144629598

> <CNNaffinity>
6.9574737549

> <CNN_VS>
5.6666045189

> <CNNaffinity_variance>
0.2035605907

$$$$
[H]c1nc(N([H])[C@@]([H])(c2c([H])c([H])c([H])c([H])c2[H])C([H])([H])[H])c2c([H])c(-c3c([H])c([H])c(F)c([H])c3OC([H])([H])[H])sc2n1


 28 31  0  0  0  0  0  0  0  0999 V2000
   -0.3757  -53.1541  -24.7485 C   0  0  0  0  0  0  0  0  0  0  0  0
   -0.2212  -52.2590  -23.7305 C   0  0  0  0  0  0  0  0  0  0  0  0
   -0.4664  -52.6687  -22.4725 C   0  0  0  0  0  0  0  0  0  0  0  0
   -0.3695  -51.9151  -21.2876 C   0  0  0  0  0  0  0  0  0  0  0  0
   -0.6539  -52.4897  -20.1105 N   0  0  0  0  0  0  0  0  0  0  0  0
   -1.0357  -53.7606  -19.9492 C   0  0  0  0  0  0  0  0  0  0  0  0
   -1.1338  -54.4968  -21.0711 N   0  0  0  0  0  0  0  0  0  0  0  0
   -0.8558  -53.9611  -22.2967 C   0  0  0  0  0  0  0  0  0  0  0  0
   -0.8726  -54.5769  -23.8810 S   0  0  0  0  0  0  0  0  0  0  0  0
    0.9887  -53.2757  -26.8131 C   0  0  0  0  0  0  0  0  0  0  0  0
    1.0307  -53.1539  -28.2125 C   0  0  0  0  0  0  0  0  0  0  0  0
   -0.0590  -52.8320  -28.9564 C   0  0  0  0  0  0  0  0  0  0  0  0
   -0.0514  -52.7068  -30.3062 F   0  0  0  0  0  0  0  0  0  0  0  0
   -1.2604  -52.6138  -28.3201 C   0  0  0  0  0  0  0  0  0  0  0  0
   -1.3035  -52.7325  -26.9502 C   0  0  0  0  0  0  0  0  0  0  0  0
   -0.2016  -53.0583  -26.1968 C   0  0  0  0  0  0  0  0  0  0  0  0
    3.1988  -52.7435  -25.8821 C   0  0  0  0  0  0  0  0  0  0  0  0
    2.1504  -53.6061  -26.1578 O   0  0  0  0  0  0  0  0  0  0  0  0
    0.0267  -50.5404  -21.2953 N   0  0  0  0  0  0  0  0  0  0  0  0
   -0.6238  -49.7891  -21.6039 H   0  0  0  0  0  0  0  0  0  0  0  0
    1.3554  -50.1458  -20.8710 C   0  0  0  0  0  0  0  0  0  0  0  0
    1.3534  -49.4327  -19.5585 C   0  0  0  0  0  0  0  0  0  0  0  0
    2.0328  -49.3324  -21.9193 C   0  0  0  0  0  0  0  0  0  0  0  0
    2.5884  -49.9236  -23.0466 C   0  0  0  0  0  0  0  0  0  0  0  0
    3.2097  -49.1479  -24.0020 C   0  0  0  0  0  0  0  0  0  0  0  0
    3.3020  -47.7776  -23.8770 C   0  0  0  0  0  0  0  0  0  0  0  0
    2.7532  -47.1945  -22.7635 C   0  0  0  0  0  0  0  0  0  0  0  0
    2.1313  -47.9638  -21.8059 C   0  0  0  0  0  0  0  0  0  0  0  0
 17 18  1  0  0  0
 18 10  1  0  0  0
 10 11  2  0  0  0
 11 12  1  0  0  0
 12 13  1  0  0  0
 12 14  2  0  0  0
 14 15  1  0  0  0
 15 16  2  0  0  0
 16  1  1  0  0  0
  1  2  2  0  0  0
  2  3  1  0  0  0
  3  4  2  0  0  0
  4 19  1  0  0  0
 19 21  1  0  0  0
 21 22  1  0  0  0
 21 23  1  0  0  0
 23 24  2  0  0  0
 24 25  1  0  0  0
 25 26  2  0  0  0
 26 27  1  0  0  0
 27 28  2  0  0  0
  4  5  1  0  0  0
  5  6  2  0  0  0
  6  7  1  0  0  0
  7  8  2  0  0  0
  8  9  1  0  0  0
 16 10  1  0  0  0
  9  1  1  0  0  0
  8  3  1  0  0  0
 28 23  1  0  0  0
 19 20  1  0  0  0
M  END
> <minimizedAffinity>
-8.55301

> <CNNscore>
0.7906270623

> <CNNaffinity>
6.9821786880

> <CNN_VS>
5.5202994347

> <CNNaffinity_variance>
0.2690297663

$$$$
[H]c1nc(N([H])[C@@]([H])(c2c([H])c([H])c([H])c([H])c2[H])C([H])([H])[H])c2c([H])c(-c3c([H])c([H])c(F)c([H])c3OC([H])([H])[H])sc2n1


 28 31  0  0  0  0  0  0  0  0999 V2000
   -0.1666  -53.1849  -24.7622 C   0  0  0  0  0  0  0  0  0  0  0  0
    0.3005  -52.4159  -23.7366 C   0  0  0  0  0  0  0  0  0  0  0  0
    0.0046  -52.7793  -22.4753 C   0  0  0  0  0  0  0  0  0  0  0  0
    0.3822  -52.1340  -21.2827 C   0  0  0  0  0  0  0  0  0  0  0  0
   -0.0047  -52.6398  -20.1032 N   0  0  0  0  0  0  0  0  0  0  0  0
   -0.7443  -53.7421  -19.9464 C   0  0  0  0  0  0  0  0  0  0  0  0
   -1.1149  -54.3728  -21.0757 N   0  0  0  0  0  0  0  0  0  0  0  0
   -0.7480  -53.9005  -22.3039 C   0  0  0  0  0  0  0  0  0  0  0  0
   -1.0272  -54.4237  -23.8970 S   0  0  0  0  0  0  0  0  0  0  0  0
    1.1300  -53.2932  -26.8708 C   0  0  0  0  0  0  0  0  0  0  0  0
    1.1233  -53.1766  -28.2712 C   0  0  0  0  0  0  0  0  0  0  0  0
    0.0044  -52.8752  -28.9795 C   0  0  0  0  0  0  0  0  0  0  0  0
   -0.0351  -52.7556  -30.3292 F   0  0  0  0  0  0  0  0  0  0  0  0
   -1.1785  -52.6737  -28.3042 C   0  0  0  0  0  0  0  0  0  0  0  0
   -1.1740  -52.7874  -26.9332 C   0  0  0  0  0  0  0  0  0  0  0  0
   -0.0424  -53.0924  -26.2159 C   0  0  0  0  0  0  0  0  0  0  0  0
    3.3479  -52.7146  -25.9872 C   0  0  0  0  0  0  0  0  0  0  0  0
    2.3181  -53.6022  -26.2535 O   0  0  0  0  0  0  0  0  0  0  0  0
    1.1743  -50.9426  -21.2849 N   0  0  0  0  0  0  0  0  0  0  0  0
    1.9880  -50.8321  -21.9241 H   0  0  0  0  0  0  0  0  0  0  0  0
    0.8682  -49.8430  -20.3914 C   0  0  0  0  0  0  0  0  0  0  0  0
    1.1118  -48.5080  -21.0156 C   0  0  0  0  0  0  0  0  0  0  0  0
    1.6101  -49.9747  -19.1063 C   0  0  0  0  0  0  0  0  0  0  0  0
    2.9309  -50.4030  -19.0745 C   0  0  0  0  0  0  0  0  0  0  0  0
    3.5948  -50.5162  -17.8715 C   0  0  0  0  0  0  0  0  0  0  0  0
    2.9829  -50.2136  -16.6733 C   0  0  0  0  0  0  0  0  0  0  0  0
    1.6786  -49.7907  -16.7054 C   0  0  0  0  0  0  0  0  0  0  0  0
    1.0102  -49.6756  -17.9036 C   0  0  0  0  0  0  0  0  0  0  0  0
 17 18  1  0  0  0
 18 10  1  0  0  0
 10 11  2  0  0  0
 11 12  1  0  0  0
 12 13  1  0  0  0
 12 14  2  0  0  0
 14 15  1  0  0  0
 15 16  2  0  0  0
 16  1  1  0  0  0
  1  2  2  0  0  0
  2  3  1  0  0  0
  3  4  2  0  0  0
  4 19  1  0  0  0
 19 21  1  0  0  0
 21 22  1  0  0  0
 21 23  1  0  0  0
 23 24  2  0  0  0
 24 25  1  0  0  0
 25 26  2  0  0  0
 26 27  1  0  0  0
 27 28  2  0  0  0
  4  5  1  0  0  0
  5  6  2  0  0  0
  6  7  1  0  0  0
  7  8  2  0  0  0
  8  9  1  0  0  0
 16 10  1  0  0  0
  9  1  1  0  0  0
  8  3  1  0  0  0
 28 23  1  0  0  0
 19 20  1  0  0  0
M  END
> <minimizedAffinity>
-8.32520

> <CNNscore>
0.7872054577

> <CNNaffinity>
6.8394293785

> <CNN_VS>
5.3840360641

> <CNNaffinity_variance>
0.1724807918

$$$$
[H]c1nc(N([H])[C@@]([H])(c2c([H])c([H])c([H])c([H])c2[H])C([H])([H])[H])c2c([H])c(-c3c([H])c([H])c(F)c([H])c3OC([H])([H])[H])sc2n1


 28 31  0  0  0  0  0  0  0  0999 V2000
    0.0276  -53.0439  -24.7717 C   0  0  0  0  0  0  0  0  0  0  0  0
    0.5625  -52.2402  -23.8077 C   0  0  0  0  0  0  0  0  0  0  0  0
    0.3688  -52.5690  -22.5173 C   0  0  0  0  0  0  0  0  0  0  0  0
    0.8288  -51.8849  -21.3765 C   0  0  0  0  0  0  0  0  0  0  0  0
    0.5399  -52.3594  -20.1566 N   0  0  0  0  0  0  0  0  0  0  0  0
   -0.1718  -53.4641  -19.9116 C   0  0  0  0  0  0  0  0  0  0  0  0
   -0.6200  -54.1317  -20.9904 N   0  0  0  0  0  0  0  0  0  0  0  0
   -0.3544  -53.6922  -22.2563 C   0  0  0  0  0  0  0  0  0  0  0  0
   -0.7486  -54.2652  -23.8074 S   0  0  0  0  0  0  0  0  0  0  0  0
    1.1469  -53.2561  -26.9719 C   0  0  0  0  0  0  0  0  0  0  0  0
    1.0327  -53.1749  -28.3702 C   0  0  0  0  0  0  0  0  0  0  0  0
   -0.1274  -52.8483  -28.9964 C   0  0  0  0  0  0  0  0  0  0  0  0
   -0.2700  -52.7616  -30.3416 F   0  0  0  0  0  0  0  0  0  0  0  0
   -1.2444  -52.5839  -28.2360 C   0  0  0  0  0  0  0  0  0  0  0  0
   -1.1346  -52.6629  -26.8669 C   0  0  0  0  0  0  0  0  0  0  0  0
    0.0386  -52.9933  -26.2326 C   0  0  0  0  0  0  0  0  0  0  0  0
    3.4127  -52.7210  -26.1880 C   0  0  0  0  0  0  0  0  0  0  0  0
    2.3684  -53.5953  -26.4416 O   0  0  0  0  0  0  0  0  0  0  0  0
    1.6036  -50.6861  -21.4740 N   0  0  0  0  0  0  0  0  0  0  0  0
    1.7332  -50.1952  -22.3823 H   0  0  0  0  0  0  0  0  0  0  0  0
    2.2377  -50.1118  -20.3038 C   0  0  0  0  0  0  0  0  0  0  0  0
    1.6201  -48.8159  -19.8910 C   0  0  0  0  0  0  0  0  0  0  0  0
    3.7056  -49.9621  -20.5093 C   0  0  0  0  0  0  0  0  0  0  0  0
    4.4342  -50.8998  -21.2295 C   0  0  0  0  0  0  0  0  0  0  0  0
    5.7920  -50.7374  -21.4052 C   0  0  0  0  0  0  0  0  0  0  0  0
    6.4676  -49.6556  -20.8809 C   0  0  0  0  0  0  0  0  0  0  0  0
    5.7474  -48.7300  -20.1697 C   0  0  0  0  0  0  0  0  0  0  0  0
    4.3913  -48.8866  -19.9909 C   0  0  0  0  0  0  0  0  0  0  0  0
 17 18  1  0  0  0
 18 10  1  0  0  0
 10 11  2  0  0  0
 11 12  1  0  0  0
 12 13  1  0  0  0
 12 14  2  0  0  0
 14 15  1  0  0  0
 15 16  2  0  0  0
 16  1  1  0  0  0
  1  2  2  0  0  0
  2  3  1  0  0  0
  3  4  2  0  0  0
  4 19  1  0  0  0
 19 21  1  0  0  0
 21 22  1  0  0  0
 21 23  1  0  0  0
 23 24  2  0  0  0
 24 25  1  0  0  0
 25 26  2  0  0  0
 26 27  1  0  0  0
 27 28  2  0  0  0
  4  5  1  0  0  0
  5  6  2  0  0  0
  6  7  1  0  0  0
  7  8  2  0  0  0
  8  9  1  0  0  0
 16 10  1  0  0  0
  9  1  1  0  0  0
  8  3  1  0  0  0
 28 23  1  0  0  0
 19 20  1  0  0  0
M  END
> <minimizedAffinity>
-7.93040

> <CNNscore>
0.7606567144

> <CNNaffinity>
6.8190793991

> <CNN_VS>
5.1869783401

> <CNNaffinity_variance>
0.3230412006

$$$$
[H]c1nc(N([H])[C@@]([H])(c2c([H])c([H])c([H])c([H])c2[H])C([H])([H])[H])c2c([H])c(-c3c([H])c([H])c(F)c([H])c3OC([H])([H])[H])sc2n1


 28 31  0  0  0  0  0  0  0  0999 V2000
    0.6075  -52.2226  -20.1227 C   0  0  0  0  0  0  0  0  0  0  0  0
    0.8191  -52.4110  -21.4573 C   0  0  0  0  0  0  0  0  0  0  0  0
    0.0578  -53.3100  -22.1075 C   0  0  0  0  0  0  0  0  0  0  0  0
    0.1095  -53.6560  -23.4708 C   0  0  0  0  0  0  0  0  0  0  0  0
   -0.7319  -54.5812  -23.9532 N   0  0  0  0  0  0  0  0  0  0  0  0
   -1.6515  -55.2319  -23.2336 C   0  0  0  0  0  0  0  0  0  0  0  0
   -1.7158  -54.9142  -21.9277 N   0  0  0  0  0  0  0  0  0  0  0  0
   -0.8820  -53.9784  -21.3843 C   0  0  0  0  0  0  0  0  0  0  0  0
   -0.6868  -53.3436  -19.8196 S   0  0  0  0  0  0  0  0  0  0  0  0
    2.5759  -51.2409  -18.9823 C   0  0  0  0  0  0  0  0  0  0  0  0
    3.0555  -50.3713  -17.9879 C   0  0  0  0  0  0  0  0  0  0  0  0
    2.2340  -49.6518  -17.1805 C   0  0  0  0  0  0  0  0  0  0  0  0
    2.6647  -48.8055  -16.2132 F   0  0  0  0  0  0  0  0  0  0  0  0
    0.8713  -49.7737  -17.3362 C   0  0  0  0  0  0  0  0  0  0  0  0
    0.3999  -50.6246  -18.3091 C   0  0  0  0  0  0  0  0  0  0  0  0
    1.2303  -51.3528  -19.1264 C   0  0  0  0  0  0  0  0  0  0  0  0
    4.2744  -51.3769  -20.7518 C   0  0  0  0  0  0  0  0  0  0  0  0
    3.4950  -51.9213  -19.7442 O   0  0  0  0  0  0  0  0  0  0  0  0
    1.0400  -53.0474  -24.3713 N   0  0  0  0  0  0  0  0  0  0  0  0
    1.8704  -53.5645  -24.7262 H   0  0  0  0  0  0  0  0  0  0  0  0
    0.8560  -51.6821  -24.8221 C   0  0  0  0  0  0  0  0  0  0  0  0
    0.0484  -51.5927  -26.0755 C   0  0  0  0  0  0  0  0  0  0  0  0
    2.1654  -50.9893  -24.9802 C   0  0  0  0  0  0  0  0  0  0  0  0
    3.2806  -51.3749  -24.2476 C   0  0  0  0  0  0  0  0  0  0  0  0
    4.4808  -50.7171  -24.4130 C   0  0  0  0  0  0  0  0  0  0  0  0
    4.6178  -49.6680  -25.2976 C   0  0  0  0  0  0  0  0  0  0  0  0
    3.5161  -49.2877  -26.0206 C   0  0  0  0  0  0  0  0  0  0  0  0
    2.3148  -49.9408  -25.8599 C   0  0  0  0  0  0  0  0  0  0  0  0
 17 18  1  0  0  0
 18 10  1  0  0  0
 10 11  2  0  0  0
 11 12  1  0  0  0
 12 13  1  0  0  0
 12 14  2  0  0  0
 14 15  1  0  0  0
 15 16  2  0  0  0
 16  1  1  0  0  0
  1  2  2  0  0  0
  2  3  1  0  0  0
  3  4  2  0  0  0
  4 19  1  0  0  0
 19 21  1  0  0  0
 21 22  1  0  0  0
 21 23  1  0  0  0
 23 24  2  0  0  0
 24 25  1  0  0  0
 25 26  2  0  0  0
 26 27  1  0  0  0
 27 28  2  0  0  0
  4  5  1  0  0  0
  5  6  2  0  0  0
  6  7  1  0  0  0
  7  8  2  0  0  0
  8  9  1  0  0  0
 16 10  1  0  0  0
  9  1  1  0  0  0
  8  3  1  0  0  0
 28 23  1  0  0  0
 19 20  1  0  0  0
M  END
> <minimizedAffinity>
-7.28029

> <CNNscore>
0.7547484636

> <CNNaffinity>
6.7515883446

> <CNN_VS>
5.0957508087

> <CNNaffinity_variance>
0.2682027221

$$$$
[H]c1nc(N([H])[C@@]([H])(c2c([H])c([H])c([H])c([H])c2[H])C([H])([H])[H])c2c([H])c(-c3c([H])c([H])c(F)c([H])c3OC([H])([H])[H])sc2n1


 28 31  0  0  0  0  0  0  0  0999 V2000
    0.1534  -53.0685  -24.6451 C   0  0  0  0  0  0  0  0  0  0  0  0
    0.9112  -52.3893  -23.7364 C   0  0  0  0  0  0  0  0  0  0  0  0
    0.7839  -52.7004  -22.4335 C   0  0  0  0  0  0  0  0  0  0  0  0
    1.4636  -52.1286  -21.3416 C   0  0  0  0  0  0  0  0  0  0  0  0
    1.2103  -52.5649  -20.0998 N   0  0  0  0  0  0  0  0  0  0  0  0
    0.3389  -53.5295  -19.7881 C   0  0  0  0  0  0  0  0  0  0  0  0
   -0.3206  -54.0882  -20.8193 N   0  0  0  0  0  0  0  0  0  0  0  0
   -0.1007  -53.6814  -22.1047 C   0  0  0  0  0  0  0  0  0  0  0  0
   -0.7346  -54.1486  -23.6112 S   0  0  0  0  0  0  0  0  0  0  0  0
    1.0746  -53.2480  -26.9381 C   0  0  0  0  0  0  0  0  0  0  0  0
    0.8383  -53.1455  -28.3195 C   0  0  0  0  0  0  0  0  0  0  0  0
   -0.3716  -52.8086  -28.8364 C   0  0  0  0  0  0  0  0  0  0  0  0
   -0.6316  -52.7013  -30.1624 F   0  0  0  0  0  0  0  0  0  0  0  0
   -1.4170  -52.5550  -27.9769 C   0  0  0  0  0  0  0  0  0  0  0  0
   -1.1875  -52.6548  -26.6241 C   0  0  0  0  0  0  0  0  0  0  0  0
    0.0362  -52.9957  -26.1004 C   0  0  0  0  0  0  0  0  0  0  0  0
    3.4373  -52.7550  -26.4805 C   0  0  0  0  0  0  0  0  0  0  0  0
    2.3373  -53.5961  -26.5222 O   0  0  0  0  0  0  0  0  0  0  0  0
    2.4275  -51.0852  -21.5125 N   0  0  0  0  0  0  0  0  0  0  0  0
    3.4092  -51.2921  -21.7885 H   0  0  0  0  0  0  0  0  0  0  0  0
    2.0665  -49.6966  -21.3056 C   0  0  0  0  0  0  0  0  0  0  0  0
    0.6029  -49.5100  -21.0725 C   0  0  0  0  0  0  0  0  0  0  0  0
    2.5400  -48.8465  -22.4337 C   0  0  0  0  0  0  0  0  0  0  0  0
    3.0231  -49.4075  -23.6087 C   0  0  0  0  0  0  0  0  0  0  0  0
    3.4551  -48.5980  -24.6377 C   0  0  0  0  0  0  0  0  0  0  0  0
    3.4247  -47.2227  -24.5412 C   0  0  0  0  0  0  0  0  0  0  0  0
    2.9475  -46.6693  -23.3805 C   0  0  0  0  0  0  0  0  0  0  0  0
    2.5146  -47.4725  -22.3494 C   0  0  0  0  0  0  0  0  0  0  0  0
 17 18  1  0  0  0
 18 10  1  0  0  0
 10 11  2  0  0  0
 11 12  1  0  0  0
 12 13  1  0  0  0
 12 14  2  0  0  0
 14 15  1  0  0  0
 15 16  2  0  0  0
 16  1  1  0  0  0
  1  2  2  0  0  0
  2  3  1  0  0  0
  3  4  2  0  0  0
  4 19  1  0  0  0
 19 21  1  0  0  0
 21 22  1  0  0  0
 21 23  1  0  0  0
 23 24  2  0  0  0
 24 25  1  0  0  0
 25 26  2  0  0  0
 26 27  1  0  0  0
 27 28  2  0  0  0
  4  5  1  0  0  0
  5  6  2  0  0  0
  6  7  1  0  0  0
  7  8  2  0  0  0
  8  9  1  0  0  0
 16 10  1  0  0  0
  9  1  1  0  0  0
  8  3  1  0  0  0
 28 23  1  0  0  0
 19 20  1  0  0  0
M  END
> <minimizedAffinity>
-8.25878

> <CNNscore>
0.7131915092

> <CNNaffinity>
6.9083986282

> <CNN_VS>
4.9270110130

> <CNNaffinity_variance>
0.4549369216

$$$$
[H]/C(C(=O)N1C([H])([H])C([H])([H])[C@@]([H])(n2nc(C(=O)N([H])c3nc4c([H])c(-c5c([H])c([H])c([H])c([H])c5[H])c([H])c([H])c4o3)c3c(N([H])[H])nc([H])nc32)C1([H])[H])=C(/[H])C([H])([H])N(C([H])([H])[H])C([H])([H])[H]


 44 49  0  0  0  0  0  0  0  0999 V2000
    7.3538  -48.0013  -23.3867 N   0  0  0  0  0  0  0  0  0  0  0  0
    6.1726  -48.4953  -23.1167 N   0  0  0  0  0  0  0  0  0  0  0  0
    6.0203  -48.7393  -21.7831 C   0  0  0  0  0  0  0  0  0  0  0  0
    7.1943  -48.3665  -21.1741 C   0  0  0  0  0  0  0  0  0  0  0  0
    7.6470  -48.3481  -19.8566 C   0  0  0  0  0  0  0  0  0  0  0  0
    6.8427  -48.7480  -18.7652 N   0  0  0  0  0  0  0  0  0  0  0  0
    8.8833  -47.8887  -19.5970 N   0  0  0  0  0  0  0  0  0  0  0  0
    9.6563  -47.4563  -20.6046 C   0  0  0  0  0  0  0  0  0  0  0  0
    9.2390  -47.4625  -21.8794 N   0  0  0  0  0  0  0  0  0  0  0  0
    8.0105  -47.9101  -22.2039 C   0  0  0  0  0  0  0  0  0  0  0  0
    6.0625  -48.1290  -18.4712 H   0  0  0  0  0  0  0  0  0  0  0  0
    6.9890  -49.6303  -18.2388 H   0  0  0  0  0  0  0  0  0  0  0  0
    8.7893  -48.2176  -28.0107 C   0  0  0  0  0  0  0  0  0  0  0  0
    8.9334  -49.4829  -28.1384 O   0  0  0  0  0  0  0  0  0  0  0  0
    8.1157  -47.6979  -26.8804 N   0  0  0  0  0  0  0  0  0  0  0  0
    7.8664  -46.3056  -26.5966 C   0  0  0  0  0  0  0  0  0  0  0  0
    7.4953  -46.2585  -25.1066 C   0  0  0  0  0  0  0  0  0  0  0  0
    7.9442  -47.6012  -24.6215 C   0  0  0  0  0  0  0  0  0  0  0  0
    7.5639  -48.4851  -25.8044 C   0  0  0  0  0  0  0  0  0  0  0  0
    9.0343  -47.5945  -30.3137 C   0  0  0  0  0  0  0  0  0  0  0  0
    9.3405  -47.3853  -29.0586 C   0  0  0  0  0  0  0  0  0  0  0  0
    9.6488  -46.6873  -31.3397 C   0  0  0  0  0  0  0  0  0  0  0  0
   11.6505  -45.4175  -31.5063 C   0  0  0  0  0  0  0  0  0  0  0  0
   11.0797  -46.6624  -31.0073 N   0  0  0  0  0  0  0  0  0  0  0  0
   11.7533  -47.7342  -31.7437 C   0  0  0  0  0  0  0  0  0  0  0  0
    4.8333  -49.2445  -21.1379 C   0  0  0  0  0  0  0  0  0  0  0  0
    4.0597  -48.4540  -20.4835 O   0  0  0  0  0  0  0  0  0  0  0  0
    4.4239  -50.5895  -21.1722 N   0  0  0  0  0  0  0  0  0  0  0  0
    4.9563  -51.3245  -21.6723 H   0  0  0  0  0  0  0  0  0  0  0  0
    3.2265  -51.0423  -20.5041 C   0  0  0  0  0  0  0  0  0  0  0  0
    2.6735  -50.5495  -19.3854 N   0  0  0  0  0  0  0  0  0  0  0  0
    1.5679  -51.2395  -19.0836 C   0  0  0  0  0  0  0  0  0  0  0  0
    0.6258  -51.1782  -18.0778 C   0  0  0  0  0  0  0  0  0  0  0  0
   -0.4394  -52.0436  -18.0196 C   0  0  0  0  0  0  0  0  0  0  0  0
   -0.5481  -52.9962  -19.0108 C   0  0  0  0  0  0  0  0  0  0  0  0
    0.3808  -53.0682  -20.0160 C   0  0  0  0  0  0  0  0  0  0  0  0
    1.4454  -52.1903  -20.0597 C   0  0  0  0  0  0  0  0  0  0  0  0
    2.4526  -52.0366  -20.8829 O   0  0  0  0  0  0  0  0  0  0  0  0
   -1.4245  -51.9583  -16.9499 C   0  0  0  0  0  0  0  0  0  0  0  0
   -1.1500  -51.1717  -15.8314 C   0  0  0  0  0  0  0  0  0  0  0  0
   -2.0462  -51.0616  -14.7993 C   0  0  0  0  0  0  0  0  0  0  0  0
   -3.2634  -51.7272  -14.8226 C   0  0  0  0  0  0  0  0  0  0  0  0
   -3.5342  -52.5045  -15.9281 C   0  0  0  0  0  0  0  0  0  0  0  0
   -2.6328  -52.6148  -16.9655 C   0  0  0  0  0  0  0  0  0  0  0  0
 23 24  1  0  0  0
 24 25  1  0  0  0
 24 22  1  0  0  0
 22 20  1  0  0  0
 20 21  2  0  0  0
 21 13  1  0  0  0
 13 14  2  0  0  0
 13 15  1  0  0  0
 15 16  1  0  0  0
 16 17  1  0  0  0
 17 18  1  0  0  0
 18 19  1  0  0  0
 18  1  1  0  0  0
  1  2  1  0  0  0
  2  3  2  0  0  0
  3 26  1  0  0  0
 26 27  2  0  0  0
 26 28  1  0  0  0
 28 30  1  0  0  0
 30 31  2  0  0  0
 31 32  1  0  0  0
 32 33  2  0  0  0
 33 34  1  0  0  0
 34 35  2  0  0  0
 35 36  1  0  0  0
 36 37  2  0  0  0
 37 38  1  0  0  0
 34 39  1  0  0  0
 39 40  2  0  0  0
 40 41  1  0  0  0
 41 42  2  0  0  0
 42 43  1  0  0  0
 43 44  2  0  0  0
  3  4  1  0  0  0
  4  5  2  0  0  0
  5  6  1  0  0  0
  5  7  1  0  0  0
  7  8  2  0  0  0
  8  9  1  0  0  0
  9 10  2  0  0  0
 19 15  1  0  0  0
 10  1  1  0  0  0
 38 30  1  0  0  0
 44 39  1  0  0  0
 10  4  1  0  0  0
 37 32  1  0  0  0
 28 29  1  0  0  0
  6 11  1  0  0  0
  6 12  1  0  0  0
M  END
> <minimizedAffinity>
-6.46618

> <CNNscore>
0.1276131123

> <CNNaffinity>
6.1376209259

> <CNN_VS>
0.7832409143

> <CNNaffinity_variance>
0.7416259050

$$$$
[H]/C(C(=O)N1C([H])([H])C([H])([H])[C@@]([H])(n2nc(C(=O)N([H])c3nc4c([H])c(-c5c([H])c([H])c([H])c([H])c5[H])c([H])c([H])c4o3)c3c(N([H])[H])nc([H])nc32)C1([H])[H])=C(/[H])C([H])([H])N(C([H])([H])[H])C([H])([H])[H]


 44 49  0  0  0  0  0  0  0  0999 V2000
    2.5954  -49.4086  -21.1932 N   0  0  0  0  0  0  0  0  0  0  0  0
    3.0863  -48.6278  -22.1214 N   0  0  0  0  0  0  0  0  0  0  0  0
    2.8637  -49.1276  -23.3711 C   0  0  0  0  0  0  0  0  0  0  0  0
    2.1793  -50.3084  -23.2111 C   0  0  0  0  0  0  0  0  0  0  0  0
    1.6539  -51.2578  -24.0849 C   0  0  0  0  0  0  0  0  0  0  0  0
    1.7302  -51.1296  -25.4905 N   0  0  0  0  0  0  0  0  0  0  0  0
    1.0043  -52.3211  -23.5806 N   0  0  0  0  0  0  0  0  0  0  0  0
    0.8717  -52.4495  -22.2518 C   0  0  0  0  0  0  0  0  0  0  0  0
    1.3672  -51.5458  -21.3932 N   0  0  0  0  0  0  0  0  0  0  0  0
    2.0276  -50.4585  -21.8365 C   0  0  0  0  0  0  0  0  0  0  0  0
    1.1341  -50.4186  -25.9566 H   0  0  0  0  0  0  0  0  0  0  0  0
    2.3522  -51.7093  -26.0856 H   0  0  0  0  0  0  0  0  0  0  0  0
    3.6759  -50.3322  -16.5598 C   0  0  0  0  0  0  0  0  0  0  0  0
    3.9456  -51.5807  -16.6405 O   0  0  0  0  0  0  0  0  0  0  0  0
    3.5606  -49.5608  -17.7402 N   0  0  0  0  0  0  0  0  0  0  0  0
    3.2709  -48.1497  -17.8167 C   0  0  0  0  0  0  0  0  0  0  0  0
    2.8520  -47.9031  -19.2740 C   0  0  0  0  0  0  0  0  0  0  0  0
    2.5917  -49.2901  -19.7722 C   0  0  0  0  0  0  0  0  0  0  0  0
    3.7092  -50.0661  -19.0835 C   0  0  0  0  0  0  0  0  0  0  0  0
    2.4372  -50.0594  -14.5244 C   0  0  0  0  0  0  0  0  0  0  0  0
    3.5027  -49.7826  -15.2322 C   0  0  0  0  0  0  0  0  0  0  0  0
    2.3333  -49.4488  -13.1569 C   0  0  0  0  0  0  0  0  0  0  0  0
    0.6869  -47.8694  -12.4923 C   0  0  0  0  0  0  0  0  0  0  0  0
    0.8940  -49.2374  -12.9506 N   0  0  0  0  0  0  0  0  0  0  0  0
    0.4436  -50.0983  -11.8549 C   0  0  0  0  0  0  0  0  0  0  0  0
    3.2346  -48.5048  -24.6181 C   0  0  0  0  0  0  0  0  0  0  0  0
    2.9025  -47.2878  -24.8637 O   0  0  0  0  0  0  0  0  0  0  0  0
    3.9716  -49.1404  -25.6333 N   0  0  0  0  0  0  0  0  0  0  0  0
    4.3053  -50.1183  -25.5547 H   0  0  0  0  0  0  0  0  0  0  0  0
    4.3126  -48.4698  -26.8658 C   0  0  0  0  0  0  0  0  0  0  0  0
    3.5017  -48.1785  -27.8943 N   0  0  0  0  0  0  0  0  0  0  0  0
    4.1923  -47.5519  -28.8535 C   0  0  0  0  0  0  0  0  0  0  0  0
    3.8853  -47.0345  -30.0949 C   0  0  0  0  0  0  0  0  0  0  0  0
    4.8279  -46.4253  -30.8868 C   0  0  0  0  0  0  0  0  0  0  0  0
    6.1164  -46.3406  -30.4026 C   0  0  0  0  0  0  0  0  0  0  0  0
    6.4350  -46.8503  -29.1709 C   0  0  0  0  0  0  0  0  0  0  0  0
    5.4753  -47.4595  -28.3874 C   0  0  0  0  0  0  0  0  0  0  0  0
    5.5014  -48.0179  -27.2028 O   0  0  0  0  0  0  0  0  0  0  0  0
    4.4805  -45.8828  -32.1934 C   0  0  0  0  0  0  0  0  0  0  0  0
    3.4097  -46.4333  -32.8973 C   0  0  0  0  0  0  0  0  0  0  0  0
    3.0462  -45.9566  -34.1307 C   0  0  0  0  0  0  0  0  0  0  0  0
    3.7269  -44.9074  -34.7313 C   0  0  0  0  0  0  0  0  0  0  0  0
    4.7851  -44.3637  -34.0353 C   0  0  0  0  0  0  0  0  0  0  0  0
    5.1501  -44.8434  -32.7953 C   0  0  0  0  0  0  0  0  0  0  0  0
 23 24  1  0  0  0
 24 25  1  0  0  0
 24 22  1  0  0  0
 22 20  1  0  0  0
 20 21  2  0  0  0
 21 13  1  0  0  0
 13 14  2  0  0  0
 13 15  1  0  0  0
 15 16  1  0  0  0
 16 17  1  0  0  0
 17 18  1  0  0  0
 18 19  1  0  0  0
 18  1  1  0  0  0
  1  2  1  0  0  0
  2  3  2  0  0  0
  3 26  1  0  0  0
 26 27  2  0  0  0
 26 28  1  0  0  0
 28 30  1  0  0  0
 30 31  2  0  0  0
 31 32  1  0  0  0
 32 33  2  0  0  0
 33 34  1  0  0  0
 34 35  2  0  0  0
 35 36  1  0  0  0
 36 37  2  0  0  0
 37 38  1  0  0  0
 34 39  1  0  0  0
 39 40  2  0  0  0
 40 41  1  0  0  0
 41 42  2  0  0  0
 42 43  1  0  0  0
 43 44  2  0  0  0
  3  4  1  0  0  0
  4  5  2  0  0  0
  5  6  1  0  0  0
  5  7  1  0  0  0
  7  8  2  0  0  0
  8  9  1  0  0  0
  9 10  2  0  0  0
 19 15  1  0  0  0
 10  1  1  0  0  0
 38 30  1  0  0  0
 44 39  1  0  0  0
 10  4  1  0  0  0
 37 32  1  0  0  0
 28 29  1  0  0  0
  6 11  1  0  0  0
  6 12  1  0  0  0
M  END
> <minimizedAffinity>
-6.66258

> <CNNscore>
0.1259887815

> <CNNaffinity>
5.8811006546

> <CNN_VS>
0.7409527302

> <CNNaffinity_variance>
0.4549708962

$$$$
[H]/C(C(=O)N1C([H])([H])C([H])([H])[C@@]([H])(n2nc(C(=O)N([H])c3nc4c([H])c(-c5c([H])c([H])c([H])c([H])c5[H])c([H])c([H])c4o3)c3c(N([H])[H])nc([H])nc32)C1([H])[H])=C(/[H])C([H])([H])N(C([H])([H])[H])C([H])([H])[H]


 44 49  0  0  0  0  0  0  0  0999 V2000
    2.0862  -50.5384  -25.2133 N   0  0  0  0  0  0  0  0  0  0  0  0
    2.1516  -50.4232  -23.9115 N   0  0  0  0  0  0  0  0  0  0  0  0
    1.3261  -51.3098  -23.2841 C   0  0  0  0  0  0  0  0  0  0  0  0
    0.7002  -52.0356  -24.2688 C   0  0  0  0  0  0  0  0  0  0  0  0
   -0.2190  -53.0826  -24.2744 C   0  0  0  0  0  0  0  0  0  0  0  0
   -0.7138  -53.6730  -23.0894 N   0  0  0  0  0  0  0  0  0  0  0  0
   -0.6233  -53.5905  -25.4514 N   0  0  0  0  0  0  0  0  0  0  0  0
   -0.1369  -53.0853  -26.5951 C   0  0  0  0  0  0  0  0  0  0  0  0
    0.7508  -52.0798  -26.6121 N   0  0  0  0  0  0  0  0  0  0  0  0
    1.1951  -51.5287  -25.4660 C   0  0  0  0  0  0  0  0  0  0  0  0
   -0.0782  -54.2776  -22.5339 H   0  0  0  0  0  0  0  0  0  0  0  0
   -1.6819  -53.5352  -22.7418 H   0  0  0  0  0  0  0  0  0  0  0  0
    3.4151  -46.8655  -28.0826 C   0  0  0  0  0  0  0  0  0  0  0  0
    2.3555  -46.1496  -28.0301 O   0  0  0  0  0  0  0  0  0  0  0  0
    3.5889  -47.9310  -27.1682 N   0  0  0  0  0  0  0  0  0  0  0  0
    4.7230  -48.8194  -27.0931 C   0  0  0  0  0  0  0  0  0  0  0  0
    4.2460  -50.0108  -26.2488 C   0  0  0  0  0  0  0  0  0  0  0  0
    2.7601  -49.8328  -26.2532 C   0  0  0  0  0  0  0  0  0  0  0  0
    2.6438  -48.3161  -26.1482 C   0  0  0  0  0  0  0  0  0  0  0  0
    4.2327  -46.9291  -30.3363 C   0  0  0  0  0  0  0  0  0  0  0  0
    4.3864  -46.5266  -29.1006 C   0  0  0  0  0  0  0  0  0  0  0  0
    5.2853  -46.5356  -31.3316 C   0  0  0  0  0  0  0  0  0  0  0  0
    3.9101  -45.2136  -32.7486 C   0  0  0  0  0  0  0  0  0  0  0  0
    4.5843  -46.4996  -32.6223 N   0  0  0  0  0  0  0  0  0  0  0  0
    3.5223  -47.5080  -32.6100 C   0  0  0  0  0  0  0  0  0  0  0  0
    1.1816  -51.4804  -21.8592 C   0  0  0  0  0  0  0  0  0  0  0  0
    1.5505  -52.5731  -21.2922 O   0  0  0  0  0  0  0  0  0  0  0  0
    0.6560  -50.5048  -20.9933 N   0  0  0  0  0  0  0  0  0  0  0  0
    0.3298  -49.5788  -21.3248 H   0  0  0  0  0  0  0  0  0  0  0  0
    0.5302  -50.7303  -19.5725 C   0  0  0  0  0  0  0  0  0  0  0  0
    1.3158  -50.2577  -18.5929 N   0  0  0  0  0  0  0  0  0  0  0  0
    0.8720  -50.6893  -17.4071 C   0  0  0  0  0  0  0  0  0  0  0  0
    1.2733  -50.5233  -16.0978 C   0  0  0  0  0  0  0  0  0  0  0  0
    0.6038  -51.1039  -15.0483 C   0  0  0  0  0  0  0  0  0  0  0  0
   -0.5030  -51.8735  -15.3392 C   0  0  0  0  0  0  0  0  0  0  0  0
   -0.9128  -52.0466  -16.6356 C   0  0  0  0  0  0  0  0  0  0  0  0
   -0.2283  -51.4557  -17.6788 C   0  0  0  0  0  0  0  0  0  0  0  0
   -0.3949  -51.4527  -18.9781 O   0  0  0  0  0  0  0  0  0  0  0  0
    1.0435  -50.9122  -13.6728 C   0  0  0  0  0  0  0  0  0  0  0  0
    2.1589  -50.1144  -13.4186 C   0  0  0  0  0  0  0  0  0  0  0  0
    2.6105  -49.9058  -12.1406 C   0  0  0  0  0  0  0  0  0  0  0  0
    1.9785  -50.4786  -11.0464 C   0  0  0  0  0  0  0  0  0  0  0  0
    0.8762  -51.2670  -11.2981 C   0  0  0  0  0  0  0  0  0  0  0  0
    0.4227  -51.4763  -12.5831 C   0  0  0  0  0  0  0  0  0  0  0  0
 23 24  1  0  0  0
 24 25  1  0  0  0
 24 22  1  0  0  0
 22 20  1  0  0  0
 20 21  2  0  0  0
 21 13  1  0  0  0
 13 14  2  0  0  0
 13 15  1  0  0  0
 15 16  1  0  0  0
 16 17  1  0  0  0
 17 18  1  0  0  0
 18 19  1  0  0  0
 18  1  1  0  0  0
  1  2  1  0  0  0
  2  3  2  0  0  0
  3 26  1  0  0  0
 26 27  2  0  0  0
 26 28  1  0  0  0
 28 30  1  0  0  0
 30 31  2  0  0  0
 31 32  1  0  0  0
 32 33  2  0  0  0
 33 34  1  0  0  0
 34 35  2  0  0  0
 35 36  1  0  0  0
 36 37  2  0  0  0
 37 38  1  0  0  0
 34 39  1  0  0  0
 39 40  2  0  0  0
 40 41  1  0  0  0
 41 42  2  0  0  0
 42 43  1  0  0  0
 43 44  2  0  0  0
  3  4  1  0  0  0
  4  5  2  0  0  0
  5  6  1  0  0  0
  5  7  1  0  0  0
  7  8  2  0  0  0
  8  9  1  0  0  0
  9 10  2  0  0  0
 19 15  1  0  0  0
 10  1  1  0  0  0
 38 30  1  0  0  0
 44 39  1  0  0  0
 10  4  1  0  0  0
 37 32  1  0  0  0
 28 29  1  0  0  0
  6 11  1  0  0  0
  6 12  1  0  0  0
M  END
> <minimizedAffinity>
-6.82098

> <CNNscore>
0.1221974865

> <CNNaffinity>
6.4376230240

> <CNN_VS>
0.7866613269

> <CNNaffinity_variance>
0.5119073987

$$$$
[H]/C(C(=O)N1C([H])([H])C([H])([H])[C@@]([H])(n2nc(C(=O)N([H])c3nc4c([H])c(-c5c([H])c([H])c([H])c([H])c5[H])c([H])c([H])c4o3)c3c(N([H])[H])nc([H])nc32)C1([H])[H])=C(/[H])C([H])([H])N(C([H])([H])[H])C([H])([H])[H]


 44 49  0  0  0  0  0  0  0  0999 V2000
    2.6413  -48.9781  -15.3936 N   0  0  0  0  0  0  0  0  0  0  0  0
    2.4523  -49.2389  -16.6618 N   0  0  0  0  0  0  0  0  0  0  0  0
    1.5508  -50.2470  -16.8410 C   0  0  0  0  0  0  0  0  0  0  0  0
    1.1438  -50.6435  -15.5898 C   0  0  0  0  0  0  0  0  0  0  0  0
    0.2405  -51.5905  -15.1122 C   0  0  0  0  0  0  0  0  0  0  0  0
   -0.5389  -52.4038  -15.9660 N   0  0  0  0  0  0  0  0  0  0  0  0
    0.0614  -51.7116  -13.7855 N   0  0  0  0  0  0  0  0  0  0  0  0
    0.7501  -50.9220  -12.9475 C   0  0  0  0  0  0  0  0  0  0  0  0
    1.6220  -50.0020  -13.3864 N   0  0  0  0  0  0  0  0  0  0  0  0
    1.8451  -49.8320  -14.7040 C   0  0  0  0  0  0  0  0  0  0  0  0
   -1.3234  -51.9665  -16.4871 H   0  0  0  0  0  0  0  0  0  0  0  0
   -0.3699  -53.4187  -16.1019 H   0  0  0  0  0  0  0  0  0  0  0  0
    6.3595  -45.9547  -14.6698 C   0  0  0  0  0  0  0  0  0  0  0  0
    7.2522  -46.5270  -15.3864 O   0  0  0  0  0  0  0  0  0  0  0  0
    5.0053  -46.3465  -14.7896 N   0  0  0  0  0  0  0  0  0  0  0  0
    3.8868  -45.7968  -14.0631 C   0  0  0  0  0  0  0  0  0  0  0  0
    2.7509  -46.8157  -14.2414 C   0  0  0  0  0  0  0  0  0  0  0  0
    3.4784  -48.0222  -14.7463 C   0  0  0  0  0  0  0  0  0  0  0  0
    4.5116  -47.3808  -15.6662 C   0  0  0  0  0  0  0  0  0  0  0  0
    7.8625  -44.1948  -14.0412 C   0  0  0  0  0  0  0  0  0  0  0  0
    6.8094  -44.9203  -13.7631 C   0  0  0  0  0  0  0  0  0  0  0  0
    8.2639  -43.1430  -13.0483 C   0  0  0  0  0  0  0  0  0  0  0  0
    9.6686  -41.3858  -13.8139 C   0  0  0  0  0  0  0  0  0  0  0  0
    9.6412  -42.7878  -13.4164 N   0  0  0  0  0  0  0  0  0  0  0  0
   10.0214  -43.5486  -14.6086 C   0  0  0  0  0  0  0  0  0  0  0  0
    1.0823  -50.7584  -18.1056 C   0  0  0  0  0  0  0  0  0  0  0  0
    0.1342  -50.1649  -18.7386 O   0  0  0  0  0  0  0  0  0  0  0  0
    1.6040  -51.8990  -18.7417 N   0  0  0  0  0  0  0  0  0  0  0  0
    2.3752  -52.4617  -18.3386 H   0  0  0  0  0  0  0  0  0  0  0  0
    1.0938  -52.3699  -20.0079 C   0  0  0  0  0  0  0  0  0  0  0  0
    1.3053  -51.8461  -21.2249 N   0  0  0  0  0  0  0  0  0  0  0  0
    0.6613  -52.5687  -22.1483 C   0  0  0  0  0  0  0  0  0  0  0  0
    0.5265  -52.4995  -23.5194 C   0  0  0  0  0  0  0  0  0  0  0  0
   -0.2214  -53.4082  -24.2276 C   0  0  0  0  0  0  0  0  0  0  0  0
   -0.8484  -54.4134  -23.5217 C   0  0  0  0  0  0  0  0  0  0  0  0
   -0.7228  -54.4940  -22.1593 C   0  0  0  0  0  0  0  0  0  0  0  0
    0.0331  -53.5723  -21.4628 C   0  0  0  0  0  0  0  0  0  0  0  0
    0.3173  -53.4156  -20.1938 O   0  0  0  0  0  0  0  0  0  0  0  0
   -0.3472  -53.3178  -25.6761 C   0  0  0  0  0  0  0  0  0  0  0  0
    0.3790  -54.1964  -26.4796 C   0  0  0  0  0  0  0  0  0  0  0  0
    0.2936  -54.1485  -27.8475 C   0  0  0  0  0  0  0  0  0  0  0  0
   -0.5179  -53.2252  -28.4908 C   0  0  0  0  0  0  0  0  0  0  0  0
   -1.2354  -52.3570  -27.6962 C   0  0  0  0  0  0  0  0  0  0  0  0
   -1.1491  -52.4056  -26.3211 C   0  0  0  0  0  0  0  0  0  0  0  0
 23 24  1  0  0  0
 24 25  1  0  0  0
 24 22  1  0  0  0
 22 20  1  0  0  0
 20 21  2  0  0  0
 21 13  1  0  0  0
 13 14  2  0  0  0
 13 15  1  0  0  0
 15 16  1  0  0  0
 16 17  1  0  0  0
 17 18  1  0  0  0
 18 19  1  0  0  0
 18  1  1  0  0  0
  1  2  1  0  0  0
  2  3  2  0  0  0
  3 26  1  0  0  0
 26 27  2  0  0  0
 26 28  1  0  0  0
 28 30  1  0  0  0
 30 31  2  0  0  0
 31 32  1  0  0  0
 32 33  2  0  0  0
 33 34  1  0  0  0
 34 35  2  0  0  0
 35 36  1  0  0  0
 36 37  2  0  0  0
 37 38  1  0  0  0
 34 39  1  0  0  0
 39 40  2  0  0  0
 40 41  1  0  0  0
 41 42  2  0  0  0
 42 43  1  0  0  0
 43 44  2  0  0  0
  3  4  1  0  0  0
  4  5  2  0  0  0
  5  6  1  0  0  0
  5  7  1  0  0  0
  7  8  2  0  0  0
  8  9  1  0  0  0
  9 10  2  0  0  0
 19 15  1  0  0  0
 10  1  1  0  0  0
 38 30  1  0  0  0
 44 39  1  0  0  0
 10  4  1  0  0  0
 37 32  1  0  0  0
 28 29  1  0  0  0
  6 11  1  0  0  0
  6 12  1  0  0  0
M  END
> <minimizedAffinity>
-7.44711

> <CNNscore>
0.1104038656

> <CNNaffinity>
6.1577329636

> <CNN_VS>
0.6798375249

> <CNNaffinity_variance>
1.2992222309

$$$$
[H]/C(C(=O)N1C([H])([H])C([H])([H])[C@@]([H])(n2nc(C(=O)N([H])c3nc4c([H])c(-c5c([H])c([H])c([H])c([H])c5[H])c([H])c([H])c4o3)c3c(N([H])[H])nc([H])nc32)C1([H])[H])=C(/[H])C([H])([H])N(C([H])([H])[H])C([H])([H])[H]


 44 49  0  0  0  0  0  0  0  0999 V2000
    4.1709  -46.5092  -25.2760 N   0  0  0  0  0  0  0  0  0  0  0  0
    3.4851  -47.0122  -24.2817 N   0  0  0  0  0  0  0  0  0  0  0  0
    4.2502  -47.1535  -23.1611 C   0  0  0  0  0  0  0  0  0  0  0  0
    5.5083  -46.7016  -23.4791 C   0  0  0  0  0  0  0  0  0  0  0  0
    6.7032  -46.5662  -22.7755 C   0  0  0  0  0  0  0  0  0  0  0  0
    6.8281  -46.8999  -21.4077 N   0  0  0  0  0  0  0  0  0  0  0  0
    7.7761  -46.0541  -23.4027 N   0  0  0  0  0  0  0  0  0  0  0  0
    7.6793  -45.6821  -24.6881 C   0  0  0  0  0  0  0  0  0  0  0  0
    6.5380  -45.8010  -25.3828 N   0  0  0  0  0  0  0  0  0  0  0  0
    5.4281  -46.3063  -24.8104 C   0  0  0  0  0  0  0  0  0  0  0  0
    6.3815  -46.2811  -20.7036 H   0  0  0  0  0  0  0  0  0  0  0  0
    7.3438  -47.7333  -21.0662 H   0  0  0  0  0  0  0  0  0  0  0  0
    3.4809  -47.0392  -30.0438 C   0  0  0  0  0  0  0  0  0  0  0  0
    4.4101  -47.8784  -30.3095 O   0  0  0  0  0  0  0  0  0  0  0  0
    3.1256  -46.7877  -28.6977 N   0  0  0  0  0  0  0  0  0  0  0  0
    2.1012  -45.8826  -28.2367 C   0  0  0  0  0  0  0  0  0  0  0  0
    2.3950  -45.6687  -26.7440 C   0  0  0  0  0  0  0  0  0  0  0  0
    3.7908  -46.1925  -26.6134 C   0  0  0  0  0  0  0  0  0  0  0  0
    3.7422  -47.3986  -27.5451 C   0  0  0  0  0  0  0  0  0  0  0  0
    2.7977  -46.9668  -32.3416 C   0  0  0  0  0  0  0  0  0  0  0  0
    2.8426  -46.3889  -31.1682 C   0  0  0  0  0  0  0  0  0  0  0  0
    2.1180  -46.2255  -33.4560 C   0  0  0  0  0  0  0  0  0  0  0  0
    3.9419  -47.4691  -34.3356 C   0  0  0  0  0  0  0  0  0  0  0  0
    3.0178  -46.3753  -34.6078 N   0  0  0  0  0  0  0  0  0  0  0  0
    3.8449  -45.1719  -34.7192 C   0  0  0  0  0  0  0  0  0  0  0  0
    3.8036  -47.6381  -21.8781 C   0  0  0  0  0  0  0  0  0  0  0  0
    3.7218  -46.8421  -20.8724 O   0  0  0  0  0  0  0  0  0  0  0  0
    3.4224  -48.9673  -21.6216 N   0  0  0  0  0  0  0  0  0  0  0  0
    3.4362  -49.7044  -22.3499 H   0  0  0  0  0  0  0  0  0  0  0  0
    2.9860  -49.3998  -20.3148 C   0  0  0  0  0  0  0  0  0  0  0  0
    3.7226  -49.9722  -19.3505 N   0  0  0  0  0  0  0  0  0  0  0  0
    2.9558  -50.2263  -18.2842 C   0  0  0  0  0  0  0  0  0  0  0  0
    3.1699  -50.7867  -17.0419 C   0  0  0  0  0  0  0  0  0  0  0  0
    2.1627  -50.9242  -16.1182 C   0  0  0  0  0  0  0  0  0  0  0  0
    0.9049  -50.4798  -16.4680 C   0  0  0  0  0  0  0  0  0  0  0  0
    0.6784  -49.9209  -17.6988 C   0  0  0  0  0  0  0  0  0  0  0  0
    1.7022  -49.7901  -18.6157 C   0  0  0  0  0  0  0  0  0  0  0  0
    1.7660  -49.3064  -19.8313 O   0  0  0  0  0  0  0  0  0  0  0  0
    2.4123  -51.5160  -14.8107 C   0  0  0  0  0  0  0  0  0  0  0  0
    1.3304  -51.8874  -14.0127 C   0  0  0  0  0  0  0  0  0  0  0  0
    1.5161  -52.4472  -12.7746 C   0  0  0  0  0  0  0  0  0  0  0  0
    2.7865  -52.6681  -12.2625 C   0  0  0  0  0  0  0  0  0  0  0  0
    3.8554  -52.3009  -13.0515 C   0  0  0  0  0  0  0  0  0  0  0  0
    3.6681  -51.7381  -14.2961 C   0  0  0  0  0  0  0  0  0  0  0  0
 23 24  1  0  0  0
 24 25  1  0  0  0
 24 22  1  0  0  0
 22 20  1  0  0  0
 20 21  2  0  0  0
 21 13  1  0  0  0
 13 14  2  0  0  0
 13 15  1  0  0  0
 15 16  1  0  0  0
 16 17  1  0  0  0
 17 18  1  0  0  0
 18 19  1  0  0  0
 18  1  1  0  0  0
  1  2  1  0  0  0
  2  3  2  0  0  0
  3 26  1  0  0  0
 26 27  2  0  0  0
 26 28  1  0  0  0
 28 30  1  0  0  0
 30 31  2  0  0  0
 31 32  1  0  0  0
 32 33  2  0  0  0
 33 34  1  0  0  0
 34 35  2  0  0  0
 35 36  1  0  0  0
 36 37  2  0  0  0
 37 38  1  0  0  0
 34 39  1  0  0  0
 39 40  2  0  0  0
 40 41  1  0  0  0
 41 42  2  0  0  0
 42 43  1  0  0  0
 43 44  2  0  0  0
  3  4  1  0  0  0
  4  5  2  0  0  0
  5  6  1  0  0  0
  5  7  1  0  0  0
  7  8  2  0  0  0
  8  9  1  0  0  0
  9 10  2  0  0  0
 19 15  1  0  0  0
 10  1  1  0  0  0
 38 30  1  0  0  0
 44 39  1  0  0  0
 10  4  1  0  0  0
 37 32  1  0  0  0
 28 29  1  0  0  0
  6 11  1  0  0  0
  6 12  1  0  0  0
M  END
> <minimizedAffinity>
-7.09663

> <CNNscore>
0.0861368477

> <CNNaffinity>
5.8081130981

> <CNN_VS>
0.5002925396

> <CNNaffinity_variance>
0.2625838220

$$$$
[H]/C(C(=O)N1C([H])([H])C([H])([H])[C@@]([H])(n2nc(C(=O)N([H])c3nc4c([H])c(-c5c([H])c([H])c([H])c([H])c5[H])c([H])c([H])c4o3)c3c(N([H])[H])nc([H])nc32)C1([H])[H])=C(/[H])C([H])([H])N(C([H])([H])[H])C([H])([H])[H]


 44 49  0  0  0  0  0  0  0  0999 V2000
    3.5477  -49.2783  -21.2523 N   0  0  0  0  0  0  0  0  0  0  0  0
    3.9963  -48.5551  -22.2463 N   0  0  0  0  0  0  0  0  0  0  0  0
    3.4653  -48.9513  -23.4388 C   0  0  0  0  0  0  0  0  0  0  0  0
    2.6186  -49.9992  -23.1685 C   0  0  0  0  0  0  0  0  0  0  0  0
    1.7810  -50.8011  -23.9409 C   0  0  0  0  0  0  0  0  0  0  0  0
    1.6247  -50.6252  -25.3346 N   0  0  0  0  0  0  0  0  0  0  0  0
    1.0514  -51.7552  -23.3374 N   0  0  0  0  0  0  0  0  0  0  0  0
    1.1395  -51.9179  -22.0086 C   0  0  0  0  0  0  0  0  0  0  0  0
    1.9370  -51.1550  -21.2462 N   0  0  0  0  0  0  0  0  0  0  0  0
    2.6925  -50.1819  -21.7915 C   0  0  0  0  0  0  0  0  0  0  0  0
    1.0931  -49.8003  -25.6736 H   0  0  0  0  0  0  0  0  0  0  0  0
    2.0136  -51.2779  -26.0415 H   0  0  0  0  0  0  0  0  0  0  0  0
    3.1514  -47.9931  -16.5961 C   0  0  0  0  0  0  0  0  0  0  0  0
    2.6550  -46.8213  -16.7319 O   0  0  0  0  0  0  0  0  0  0  0  0
    3.1924  -48.8713  -17.7046 N   0  0  0  0  0  0  0  0  0  0  0  0
    3.7095  -50.2180  -17.7122 C   0  0  0  0  0  0  0  0  0  0  0  0
    3.9028  -50.5667  -19.1958 C   0  0  0  0  0  0  0  0  0  0  0  0
    3.8218  -49.2251  -19.8540 C   0  0  0  0  0  0  0  0  0  0  0  0
    2.7232  -48.5589  -19.0328 C   0  0  0  0  0  0  0  0  0  0  0  0
    4.5893  -47.6400  -14.7095 C   0  0  0  0  0  0  0  0  0  0  0  0
    3.6497  -48.3468  -15.2842 C   0  0  0  0  0  0  0  0  0  0  0  0
    5.0512  -48.0737  -13.3486 C   0  0  0  0  0  0  0  0  0  0  0  0
    7.1839  -48.3304  -12.3323 C   0  0  0  0  0  0  0  0  0  0  0  0
    6.3834  -47.4727  -13.1971 N   0  0  0  0  0  0  0  0  0  0  0  0
    6.2481  -46.2008  -12.4839 C   0  0  0  0  0  0  0  0  0  0  0  0
    3.7119  -48.3479  -24.7255 C   0  0  0  0  0  0  0  0  0  0  0  0
    3.2970  -47.1582  -24.9785 O   0  0  0  0  0  0  0  0  0  0  0  0
    4.4085  -48.9744  -25.7743 N   0  0  0  0  0  0  0  0  0  0  0  0
    4.8001  -49.9305  -25.6943 H   0  0  0  0  0  0  0  0  0  0  0  0
    4.6238  -48.3244  -27.0457 C   0  0  0  0  0  0  0  0  0  0  0  0
    3.7162  -48.0619  -27.9984 N   0  0  0  0  0  0  0  0  0  0  0  0
    4.3057  -47.4470  -29.0298 C   0  0  0  0  0  0  0  0  0  0  0  0
    3.8769  -46.9573  -30.2461 C   0  0  0  0  0  0  0  0  0  0  0  0
    4.7332  -46.3538  -31.1345 C   0  0  0  0  0  0  0  0  0  0  0  0
    6.0604  -46.2460  -30.7756 C   0  0  0  0  0  0  0  0  0  0  0  0
    6.4998  -46.7281  -29.5702 C   0  0  0  0  0  0  0  0  0  0  0  0
    5.6256  -47.3320  -28.6886 C   0  0  0  0  0  0  0  0  0  0  0  0
    5.7699  -47.8667  -27.5016 O   0  0  0  0  0  0  0  0  0  0  0  0
    4.2578  -45.8408  -32.4123 C   0  0  0  0  0  0  0  0  0  0  0  0
    3.3618  -46.6025  -33.1620 C   0  0  0  0  0  0  0  0  0  0  0  0
    2.8876  -46.1614  -34.3708 C   0  0  0  0  0  0  0  0  0  0  0  0
    3.2780  -44.9397  -34.9000 C   0  0  0  0  0  0  0  0  0  0  0  0
    4.1636  -44.1872  -34.1588 C   0  0  0  0  0  0  0  0  0  0  0  0
    4.6399  -44.6312  -32.9436 C   0  0  0  0  0  0  0  0  0  0  0  0
 23 24  1  0  0  0
 24 25  1  0  0  0
 24 22  1  0  0  0
 22 20  1  0  0  0
 20 21  2  0  0  0
 21 13  1  0  0  0
 13 14  2  0  0  0
 13 15  1  0  0  0
 15 16  1  0  0  0
 16 17  1  0  0  0
 17 18  1  0  0  0
 18 19  1  0  0  0
 18  1  1  0  0  0
  1  2  1  0  0  0
  2  3  2  0  0  0
  3 26  1  0  0  0
 26 27  2  0  0  0
 26 28  1  0  0  0
 28 30  1  0  0  0
 30 31  2  0  0  0
 31 32  1  0  0  0
 32 33  2  0  0  0
 33 34  1  0  0  0
 34 35  2  0  0  0
 35 36  1  0  0  0
 36 37  2  0  0  0
 37 38  1  0  0  0
 34 39  1  0  0  0
 39 40  2  0  0  0
 40 41  1  0  0  0
 41 42  2  0  0  0
 42 43  1  0  0  0
 43 44  2  0  0  0
  3  4  1  0  0  0
  4  5  2  0  0  0
  5  6  1  0  0  0
  5  7  1  0  0  0
  7  8  2  0  0  0
  8  9  1  0  0  0
  9 10  2  0  0  0
 19 15  1  0  0  0
 10  1  1  0  0  0
 38 30  1  0  0  0
 44 39  1  0  0  0
 10  4  1  0  0  0
 37 32  1  0  0  0
 28 29  1  0  0  0
  6 11  1  0  0  0
  6 12  1  0  0  0
M  END
> <minimizedAffinity>
-6.60759

> <CNNscore>
0.0771578625

> <CNNaffinity>
5.7231130600

> <CNN_VS>
0.4415831566

> <CNNaffinity_variance>
0.4716195166

$$$$
[H]/C(C(=O)N1C([H])([H])C([H])([H])[C@@]([H])(n2nc(C(=O)N([H])c3nc4c([H])c(-c5c([H])c([H])c([H])c([H])c5[H])c([H])c([H])c4o3)c3c(N([H])[H])nc([H])nc32)C1([H])[H])=C(/[H])C([H])([H])N(C([H])([H])[H])C([H])([H])[H]


 44 49  0  0  0  0  0  0  0  0999 V2000
    6.4171  -48.4642  -24.3323 N   0  0  0  0  0  0  0  0  0  0  0  0
    5.3503  -48.7470  -23.6294 N   0  0  0  0  0  0  0  0  0  0  0  0
    5.6251  -48.8009  -22.2942 C   0  0  0  0  0  0  0  0  0  0  0  0
    6.9643  -48.5280  -22.1526 C   0  0  0  0  0  0  0  0  0  0  0  0
    7.8269  -48.4127  -21.0646 C   0  0  0  0  0  0  0  0  0  0  0  0
    7.3946  -48.5561  -19.7266 N   0  0  0  0  0  0  0  0  0  0  0  0
    9.1174  -48.1067  -21.2836 N   0  0  0  0  0  0  0  0  0  0  0  0
    9.5511  -47.9166  -22.5388 C   0  0  0  0  0  0  0  0  0  0  0  0
    8.7370  -48.0197  -23.6000 N   0  0  0  0  0  0  0  0  0  0  0  0
    7.4335  -48.3232  -23.4461 C   0  0  0  0  0  0  0  0  0  0  0  0
    6.8185  -47.8004  -19.3080 H   0  0  0  0  0  0  0  0  0  0  0  0
    7.6220  -49.3787  -19.1362 H   0  0  0  0  0  0  0  0  0  0  0  0
    5.4184  -48.5271  -29.0745 C   0  0  0  0  0  0  0  0  0  0  0  0
    4.5516  -49.4682  -29.1052 O   0  0  0  0  0  0  0  0  0  0  0  0
    5.8049  -47.9685  -27.8334 N   0  0  0  0  0  0  0  0  0  0  0  0
    6.7574  -46.9038  -27.6325 C   0  0  0  0  0  0  0  0  0  0  0  0
    7.1174  -46.9619  -26.1401 C   0  0  0  0  0  0  0  0  0  0  0  0
    6.6011  -48.3077  -25.7377 C   0  0  0  0  0  0  0  0  0  0  0  0
    5.3084  -48.3813  -26.5431 C   0  0  0  0  0  0  0  0  0  0  0  0
    6.1565  -48.9399  -31.3187 C   0  0  0  0  0  0  0  0  0  0  0  0
    5.9571  -48.0892  -30.3444 C   0  0  0  0  0  0  0  0  0  0  0  0
    6.7188  -48.4056  -32.6038 C   0  0  0  0  0  0  0  0  0  0  0  0
    5.4703  -48.6850  -34.6063 C   0  0  0  0  0  0  0  0  0  0  0  0
    5.5480  -47.9370  -33.3578 N   0  0  0  0  0  0  0  0  0  0  0  0
    5.7629  -46.5402  -33.7415 C   0  0  0  0  0  0  0  0  0  0  0  0
    4.6759  -49.0477  -21.2366 C   0  0  0  0  0  0  0  0  0  0  0  0
    4.1596  -48.0697  -20.5819 O   0  0  0  0  0  0  0  0  0  0  0  0
    4.2377  -50.3260  -20.8472 N   0  0  0  0  0  0  0  0  0  0  0  0
    4.5726  -51.1953  -21.3011 H   0  0  0  0  0  0  0  0  0  0  0  0
    3.2869  -50.5161  -19.7771 C   0  0  0  0  0  0  0  0  0  0  0  0
    1.9545  -50.6407  -19.8744 N   0  0  0  0  0  0  0  0  0  0  0  0
    1.4237  -50.8023  -18.6572 C   0  0  0  0  0  0  0  0  0  0  0  0
    0.1458  -50.9747  -18.1670 C   0  0  0  0  0  0  0  0  0  0  0  0
   -0.1094  -51.1204  -16.8252 C   0  0  0  0  0  0  0  0  0  0  0  0
    0.9640  -51.0897  -15.9600 C   0  0  0  0  0  0  0  0  0  0  0  0
    2.2388  -50.9193  -16.4335 C   0  0  0  0  0  0  0  0  0  0  0  0
    2.4779  -50.7745  -17.7855 C   0  0  0  0  0  0  0  0  0  0  0  0
    3.5659  -50.6024  -18.4943 O   0  0  0  0  0  0  0  0  0  0  0  0
   -1.4669  -51.3047  -16.3300 C   0  0  0  0  0  0  0  0  0  0  0  0
   -2.2136  -52.3945  -16.7771 C   0  0  0  0  0  0  0  0  0  0  0  0
   -3.4957  -52.6085  -16.3398 C   0  0  0  0  0  0  0  0  0  0  0  0
   -4.1051  -51.7513  -15.4349 C   0  0  0  0  0  0  0  0  0  0  0  0
   -3.3667  -50.6744  -14.9933 C   0  0  0  0  0  0  0  0  0  0  0  0
   -2.0779  -50.4598  -15.4333 C   0  0  0  0  0  0  0  0  0  0  0  0
 23 24  1  0  0  0
 24 25  1  0  0  0
 24 22  1  0  0  0
 22 20  1  0  0  0
 20 21  2  0  0  0
 21 13  1  0  0  0
 13 14  2  0  0  0
 13 15  1  0  0  0
 15 16  1  0  0  0
 16 17  1  0  0  0
 17 18  1  0  0  0
 18 19  1  0  0  0
 18  1  1  0  0  0
  1  2  1  0  0  0
  2  3  2  0  0  0
  3 26  1  0  0  0
 26 27  2  0  0  0
 26 28  1  0  0  0
 28 30  1  0  0  0
 30 31  2  0  0  0
 31 32  1  0  0  0
 32 33  2  0  0  0
 33 34  1  0  0  0
 34 35  2  0  0  0
 35 36  1  0  0  0
 36 37  2  0  0  0
 37 38  1  0  0  0
 34 39  1  0  0  0
 39 40  2  0  0  0
 40 41  1  0  0  0
 41 42  2  0  0  0
 42 43  1  0  0  0
 43 44  2  0  0  0
  3  4  1  0  0  0
  4  5  2  0  0  0
  5  6  1  0  0  0
  5  7  1  0  0  0
  7  8  2  0  0  0
  8  9  1  0  0  0
  9 10  2  0  0  0
 19 15  1  0  0  0
 10  1  1  0  0  0
 38 30  1  0  0  0
 44 39  1  0  0  0
 10  4  1  0  0  0
 37 32  1  0  0  0
 28 29  1  0  0  0
  6 11  1  0  0  0
  6 12  1  0  0  0
M  END
> <minimizedAffinity>
-6.82421

> <CNNscore>
0.0618194379

> <CNNaffinity>
5.8954477310

> <CNN_VS>
0.3644532561

> <CNNaffinity_variance>
0.6130815744

$$$$
[H]/C(C(=O)N1C([H])([H])C([H])([H])[C@@]([H])(n2nc(C(=O)N([H])c3nc4c([H])c(-c5c([H])c([H])c([H])c([H])c5[H])c([H])c([H])c4o3)c3c(N([H])[H])nc([H])nc32)C1([H])[H])=C(/[H])C([H])([H])N(C([H])([H])[H])C([H])([H])[H]


 44 49  0  0  0  0  0  0  0  0999 V2000
    4.2466  -47.6500  -24.6213 N   0  0  0  0  0  0  0  0  0  0  0  0
    3.3153  -48.3484  -24.0237 N   0  0  0  0  0  0  0  0  0  0  0  0
    3.3352  -48.1643  -22.6722 C   0  0  0  0  0  0  0  0  0  0  0  0
    4.3541  -47.2816  -22.4060 C   0  0  0  0  0  0  0  0  0  0  0  0
    4.8554  -46.6903  -21.2484 C   0  0  0  0  0  0  0  0  0  0  0  0
    4.2983  -46.9184  -19.9695 N   0  0  0  0  0  0  0  0  0  0  0  0
    5.8827  -45.8291  -21.3470 N   0  0  0  0  0  0  0  0  0  0  0  0
    6.4046  -45.5529  -22.5516 C   0  0  0  0  0  0  0  0  0  0  0  0
    5.9353  -46.1086  -23.6786 N   0  0  0  0  0  0  0  0  0  0  0  0
    4.9074  -46.9788  -23.6459 C   0  0  0  0  0  0  0  0  0  0  0  0
    3.3767  -46.4948  -19.7474 H   0  0  0  0  0  0  0  0  0  0  0  0
    4.7614  -47.4887  -19.2364 H   0  0  0  0  0  0  0  0  0  0  0  0
    6.7755  -48.1625  -28.7239 C   0  0  0  0  0  0  0  0  0  0  0  0
    7.9577  -48.2621  -28.2436 O   0  0  0  0  0  0  0  0  0  0  0  0
    5.6570  -48.2643  -27.8634 N   0  0  0  0  0  0  0  0  0  0  0  0
    4.2693  -48.1820  -28.2487 C   0  0  0  0  0  0  0  0  0  0  0  0
    3.5021  -47.9367  -26.9406 C   0  0  0  0  0  0  0  0  0  0  0  0
    4.5933  -47.5327  -25.9995 C   0  0  0  0  0  0  0  0  0  0  0  0
    5.7195  -48.4635  -26.4357 C   0  0  0  0  0  0  0  0  0  0  0  0
    6.5838  -46.7365  -30.6425 C   0  0  0  0  0  0  0  0  0  0  0  0
    6.6626  -47.9466  -30.1505 C   0  0  0  0  0  0  0  0  0  0  0  0
    6.4682  -46.5982  -32.1328 C   0  0  0  0  0  0  0  0  0  0  0  0
    4.9992  -47.2585  -33.8801 C   0  0  0  0  0  0  0  0  0  0  0  0
    5.0999  -47.0339  -32.4435 N   0  0  0  0  0  0  0  0  0  0  0  0
    4.1769  -45.9368  -32.1449 C   0  0  0  0  0  0  0  0  0  0  0  0
    2.4253  -48.7486  -21.7176 C   0  0  0  0  0  0  0  0  0  0  0  0
    1.2511  -48.2544  -21.5483 O   0  0  0  0  0  0  0  0  0  0  0  0
    2.7217  -49.8719  -20.9249 N   0  0  0  0  0  0  0  0  0  0  0  0
    3.6309  -50.3667  -20.9722 H   0  0  0  0  0  0  0  0  0  0  0  0
    1.7732  -50.4140  -19.9807 C   0  0  0  0  0  0  0  0  0  0  0  0
    1.3780  -49.8804  -18.8148 N   0  0  0  0  0  0  0  0  0  0  0  0
    0.4855  -50.6849  -18.2268 C   0  0  0  0  0  0  0  0  0  0  0  0
   -0.2357  -50.6453  -17.0515 C   0  0  0  0  0  0  0  0  0  0  0  0
   -1.1080  -51.6445  -16.6946 C   0  0  0  0  0  0  0  0  0  0  0  0
   -1.2497  -52.7119  -17.5563 C   0  0  0  0  0  0  0  0  0  0  0  0
   -0.5393  -52.7638  -18.7273 C   0  0  0  0  0  0  0  0  0  0  0  0
    0.3332  -51.7507  -19.0710 C   0  0  0  0  0  0  0  0  0  0  0  0
    1.1173  -51.5482  -20.1006 O   0  0  0  0  0  0  0  0  0  0  0  0
   -1.8620  -51.5802  -15.4498 C   0  0  0  0  0  0  0  0  0  0  0  0
   -3.2277  -51.8626  -15.4647 C   0  0  0  0  0  0  0  0  0  0  0  0
   -3.9788  -51.8140  -14.3183 C   0  0  0  0  0  0  0  0  0  0  0  0
   -3.4137  -51.4822  -13.0954 C   0  0  0  0  0  0  0  0  0  0  0  0
   -2.0640  -51.2031  -13.0813 C   0  0  0  0  0  0  0  0  0  0  0  0
   -1.3094  -51.2522  -14.2340 C   0  0  0  0  0  0  0  0  0  0  0  0
 23 24  1  0  0  0
 24 25  1  0  0  0
 24 22  1  0  0  0
 22 20  1  0  0  0
 20 21  2  0  0  0
 21 13  1  0  0  0
 13 14  2  0  0  0
 13 15  1  0  0  0
 15 16  1  0  0  0
 16 17  1  0  0  0
 17 18  1  0  0  0
 18 19  1  0  0  0
 18  1  1  0  0  0
  1  2  1  0  0  0
  2  3  2  0  0  0
  3 26  1  0  0  0
 26 27  2  0  0  0
 26 28  1  0  0  0
 28 30  1  0  0  0
 30 31  2  0  0  0
 31 32  1  0  0  0
 32 33  2  0  0  0
 33 34  1  0  0  0
 34 35  2  0  0  0
 35 36  1  0  0  0
 36 37  2  0  0  0
 37 38  1  0  0  0
 34 39  1  0  0  0
 39 40  2  0  0  0
 40 41  1  0  0  0
 41 42  2  0  0  0
 42 43  1  0  0  0
 43 44  2  0  0  0
  3  4  1  0  0  0
  4  5  2  0  0  0
  5  6  1  0  0  0
  5  7  1  0  0  0
  7  8  2  0  0  0
  8  9  1  0  0  0
  9 10  2  0  0  0
 19 15  1  0  0  0
 10  1  1  0  0  0
 38 30  1  0  0  0
 44 39  1  0  0  0
 10  4  1  0  0  0
 37 32  1  0  0  0
 28 29  1  0  0  0
  6 11  1  0  0  0
  6 12  1  0  0  0
M  END
> <minimizedAffinity>
-6.58368

> <CNNscore>
0.0582741387

> <CNNaffinity>
5.9842534065

> <CNN_VS>
0.3487272263

> <CNNaffinity_variance>
0.3398320079

$$$$
[H]/C(C(=O)N1C([H])([H])C([H])([H])[C@@]([H])(n2nc(C(=O)N([H])c3nc4c([H])c(-c5c([H])c([H])c([H])c([H])c5[H])c([H])c([H])c4o3)c3c(N([H])[H])nc([H])nc32)C1([H])[H])=C(/[H])C([H])([H])N(C([H])([H])[H])C([H])([H])[H]


 44 49  0  0  0  0  0  0  0  0999 V2000
    7.3667  -48.2965  -23.0103 N   0  0  0  0  0  0  0  0  0  0  0  0
    6.2235  -48.6371  -22.4725 N   0  0  0  0  0  0  0  0  0  0  0  0
    6.2769  -48.6043  -21.1098 C   0  0  0  0  0  0  0  0  0  0  0  0
    7.5490  -48.2103  -20.7711 C   0  0  0  0  0  0  0  0  0  0  0  0
    8.2080  -47.9700  -19.5674 C   0  0  0  0  0  0  0  0  0  0  0  0
    7.5727  -48.0871  -18.3102 N   0  0  0  0  0  0  0  0  0  0  0  0
    9.4892  -47.5642  -19.5938 N   0  0  0  0  0  0  0  0  0  0  0  0
   10.1087  -47.3965  -20.7719 C   0  0  0  0  0  0  0  0  0  0  0  0
    9.4919  -47.6193  -21.9421 N   0  0  0  0  0  0  0  0  0  0  0  0
    8.2085  -48.0268  -21.9821 C   0  0  0  0  0  0  0  0  0  0  0  0
    6.8784  -47.3652  -18.0364 H   0  0  0  0  0  0  0  0  0  0  0  0
    7.7623  -48.8585  -17.6423 H   0  0  0  0  0  0  0  0  0  0  0  0
    9.4990  -49.4254  -27.2136 C   0  0  0  0  0  0  0  0  0  0  0  0
   10.4911  -50.1089  -26.7815 O   0  0  0  0  0  0  0  0  0  0  0  0
    8.4333  -49.1048  -26.3401 N   0  0  0  0  0  0  0  0  0  0  0  0
    7.2479  -48.3537  -26.6742 C   0  0  0  0  0  0  0  0  0  0  0  0
    6.6401  -47.9395  -25.3255 C   0  0  0  0  0  0  0  0  0  0  0  0
    7.7681  -48.1909  -24.3745 C   0  0  0  0  0  0  0  0  0  0  0  0
    8.3571  -49.4752  -24.9476 C   0  0  0  0  0  0  0  0  0  0  0  0
   10.4034  -48.1273  -29.0160 C   0  0  0  0  0  0  0  0  0  0  0  0
    9.5380  -49.0173  -28.6016 C   0  0  0  0  0  0  0  0  0  0  0  0
   10.3782  -47.7580  -30.4708 C   0  0  0  0  0  0  0  0  0  0  0  0
    9.5335  -45.5827  -30.9199 C   0  0  0  0  0  0  0  0  0  0  0  0
   10.7134  -46.3278  -30.4991 N   0  0  0  0  0  0  0  0  0  0  0  0
   11.7208  -46.1004  -31.5375 C   0  0  0  0  0  0  0  0  0  0  0  0
    5.1878  -48.8822  -20.2059 C   0  0  0  0  0  0  0  0  0  0  0  0
    4.5450  -47.9218  -19.6437 O   0  0  0  0  0  0  0  0  0  0  0  0
    4.7401  -50.1744  -19.8779 N   0  0  0  0  0  0  0  0  0  0  0  0
    5.1694  -51.0323  -20.2697 H   0  0  0  0  0  0  0  0  0  0  0  0
    3.6455  -50.3958  -18.9623 C   0  0  0  0  0  0  0  0  0  0  0  0
    2.3511  -50.5862  -19.2599 N   0  0  0  0  0  0  0  0  0  0  0  0
    1.6472  -50.7567  -18.1353 C   0  0  0  0  0  0  0  0  0  0  0  0
    0.3183  -50.9842  -17.8431 C   0  0  0  0  0  0  0  0  0  0  0  0
   -0.1336  -51.1237  -16.5535 C   0  0  0  0  0  0  0  0  0  0  0  0
    0.7913  -51.0290  -15.5349 C   0  0  0  0  0  0  0  0  0  0  0  0
    2.1146  -50.8034  -15.8110 C   0  0  0  0  0  0  0  0  0  0  0  0
    2.5521  -50.6657  -17.1132 C   0  0  0  0  0  0  0  0  0  0  0  0
    3.7273  -50.4507  -17.6504 O   0  0  0  0  0  0  0  0  0  0  0  0
   -1.5412  -51.3668  -16.2683 C   0  0  0  0  0  0  0  0  0  0  0  0
   -2.1651  -52.4857  -16.8196 C   0  0  0  0  0  0  0  0  0  0  0  0
   -3.4883  -52.7552  -16.5802 C   0  0  0  0  0  0  0  0  0  0  0  0
   -4.2630  -51.9276  -15.7803 C   0  0  0  0  0  0  0  0  0  0  0  0
   -3.6460  -50.8219  -15.2357 C   0  0  0  0  0  0  0  0  0  0  0  0
   -2.3157  -50.5515  -15.4767 C   0  0  0  0  0  0  0  0  0  0  0  0
 23 24  1  0  0  0
 24 25  1  0  0  0
 24 22  1  0  0  0
 22 20  1  0  0  0
 20 21  2  0  0  0
 21 13  1  0  0  0
 13 14  2  0  0  0
 13 15  1  0  0  0
 15 16  1  0  0  0
 16 17  1  0  0  0
 17 18  1  0  0  0
 18 19  1  0  0  0
 18  1  1  0  0  0
  1  2  1  0  0  0
  2  3  2  0  0  0
  3 26  1  0  0  0
 26 27  2  0  0  0
 26 28  1  0  0  0
 28 30  1  0  0  0
 30 31  2  0  0  0
 31 32  1  0  0  0
 32 33  2  0  0  0
 33 34  1  0  0  0
 34 35  2  0  0  0
 35 36  1  0  0  0
 36 37  2  0  0  0
 37 38  1  0  0  0
 34 39  1  0  0  0
 39 40  2  0  0  0
 40 41  1  0  0  0
 41 42  2  0  0  0
 42 43  1  0  0  0
 43 44  2  0  0  0
  3  4  1  0  0  0
  4  5  2  0  0  0
  5  6  1  0  0  0
  5  7  1  0  0  0
  7  8  2  0  0  0
  8  9  1  0  0  0
  9 10  2  0  0  0
 19 15  1  0  0  0
 10  1  1  0  0  0
 38 30  1  0  0  0
 44 39  1  0  0  0
 10  4  1  0  0  0
 37 32  1  0  0  0
 28 29  1  0  0  0
  6 11  1  0  0  0
  6 12  1  0  0  0
M  END
> <minimizedAffinity>
-7.08651

> <CNNscore>
0.0579197183

> <CNNaffinity>
5.6877584457

> <CNN_VS>
0.3294333816

> <CNNaffinity_variance>
0.1317869723

$$$$
[H]OC([H])([H])C(=O)N1C([H])([H])C([H])([H])[C@]([H])(N2C(=O)N(c3c([H])c([H])c([H])c([H])c3Cl)C([H])([H])c3c([H])nc(N([H])c4c([H])c([H])c(N5C([H])([H])C([H])([H])N(C([H])([H])[H])C([H])([H])C5([H])[H])c(C([H])([H])[H])c4[H])nc32)C1([H])[H]


 44 49  0  0  0  0  0  0  0  0999 V2000
   -0.2627  -53.7241  -20.3492 C   0  0  0  0  0  0  0  0  0  0  0  0
   -1.1958  -54.4769  -20.9269 N   0  0  0  0  0  0  0  0  0  0  0  0
   -1.4033  -54.5610  -22.2505 C   0  0  0  0  0  0  0  0  0  0  0  0
   -0.5977  -53.8158  -23.1164 C   0  0  0  0  0  0  0  0  0  0  0  0
   -0.8361  -53.9198  -24.5484 C   0  0  0  0  0  0  0  0  0  0  0  0
    0.0493  -53.1096  -25.3207 N   0  0  0  0  0  0  0  0  0  0  0  0
    1.0566  -52.2962  -24.7158 C   0  0  0  0  0  0  0  0  0  0  0  0
    1.8260  -51.5922  -25.4311 O   0  0  0  0  0  0  0  0  0  0  0  0
    1.2458  -52.2341  -23.3156 N   0  0  0  0  0  0  0  0  0  0  0  0
    0.3537  -53.0488  -22.5180 C   0  0  0  0  0  0  0  0  0  0  0  0
    0.5169  -53.0029  -21.1875 N   0  0  0  0  0  0  0  0  0  0  0  0
    2.2456  -51.4278  -22.6977 C   0  0  0  0  0  0  0  0  0  0  0  0
    3.6452  -51.8481  -22.9778 C   0  0  0  0  0  0  0  0  0  0  0  0
    4.4325  -50.5616  -22.9892 C   0  0  0  0  0  0  0  0  0  0  0  0
    3.5059  -49.5042  -22.6791 N   0  0  0  0  0  0  0  0  0  0  0  0
    2.1882  -49.9677  -23.0274 C   0  0  0  0  0  0  0  0  0  0  0  0
    3.8113  -48.2378  -22.1341 C   0  0  0  0  0  0  0  0  0  0  0  0
    5.0068  -47.8974  -21.8508 O   0  0  0  0  0  0  0  0  0  0  0  0
    2.7447  -47.2515  -21.8699 C   0  0  0  0  0  0  0  0  0  0  0  0
    2.5262  -46.4703  -22.9975 O   0  0  0  0  0  0  0  0  0  0  0  0
    3.2013  -46.6016  -23.6831 H   0  0  0  0  0  0  0  0  0  0  0  0
   -0.0056  -53.0510  -26.7510 C   0  0  0  0  0  0  0  0  0  0  0  0
    0.9730  -53.5588  -27.5751 C   0  0  0  0  0  0  0  0  0  0  0  0
    0.9046  -53.4935  -28.9413 C   0  0  0  0  0  0  0  0  0  0  0  0
   -0.1699  -52.9044  -29.5459 C   0  0  0  0  0  0  0  0  0  0  0  0
   -1.1790  -52.3796  -28.7537 C   0  0  0  0  0  0  0  0  0  0  0  0
   -1.0852  -52.4591  -27.3593 C   0  0  0  0  0  0  0  0  0  0  0  0
   -2.3623  -51.7946  -26.3786 Cl  0  0  0  0  0  0  0  0  0  0  0  0
   -0.0683  -53.6557  -18.9509 N   0  0  0  0  0  0  0  0  0  0  0  0
    0.2218  -54.5669  -18.4781 H   0  0  0  0  0  0  0  0  0  0  0  0
   -0.6006  -50.3535  -16.3474 C   0  0  0  0  0  0  0  0  0  0  0  0
   -1.3163  -51.5141  -16.2292 C   0  0  0  0  0  0  0  0  0  0  0  0
   -1.1480  -52.5701  -17.0720 C   0  0  0  0  0  0  0  0  0  0  0  0
   -0.2134  -52.5153  -18.1221 C   0  0  0  0  0  0  0  0  0  0  0  0
    0.5015  -51.3575  -18.2397 C   0  0  0  0  0  0  0  0  0  0  0  0
    0.3128  -50.2773  -17.3592 C   0  0  0  0  0  0  0  0  0  0  0  0
    1.1072  -49.0395  -17.5213 C   0  0  0  0  0  0  0  0  0  0  0  0
   -1.8195  -46.7959  -12.7351 C   0  0  0  0  0  0  0  0  0  0  0  0
   -2.0469  -48.1174  -13.2211 N   0  0  0  0  0  0  0  0  0  0  0  0
   -2.7495  -48.1968  -14.4524 C   0  0  0  0  0  0  0  0  0  0  0  0
   -1.8494  -48.2640  -15.6646 C   0  0  0  0  0  0  0  0  0  0  0  0
   -0.8175  -49.2888  -15.4445 N   0  0  0  0  0  0  0  0  0  0  0  0
   -0.0361  -49.1182  -14.2209 C   0  0  0  0  0  0  0  0  0  0  0  0
   -0.9726  -49.0305  -13.0528 C   0  0  0  0  0  0  0  0  0  0  0  0
 38 39  1  0  0  0
 39 40  1  0  0  0
 40 41  1  0  0  0
 41 42  1  0  0  0
 42 43  1  0  0  0
 43 44  1  0  0  0
 42 31  1  0  0  0
 31 32  2  0  0  0
 32 33  1  0  0  0
 33 34  2  0  0  0
 34 29  1  0  0  0
 29  1  1  0  0  0
  1  2  2  0  0  0
  2  3  1  0  0  0
  3  4  2  0  0  0
  4  5  1  0  0  0
  5  6  1  0  0  0
  6  7  1  0  0  0
  7  8  2  0  0  0
  7  9  1  0  0  0
  9 12  1  0  0  0
 12 13  1  0  0  0
 13 14  1  0  0  0
 14 15  1  0  0  0
 15 16  1  0  0  0
 15 17  1  0  0  0
 17 18  2  0  0  0
 17 19  1  0  0  0
 19 20  1  0  0  0
  9 10  1  0  0  0
 10 11  2  0  0  0
  6 22  1  0  0  0
 22 23  2  0  0  0
 23 24  1  0  0  0
 24 25  2  0  0  0
 25 26  1  0  0  0
 26 27  2  0  0  0
 27 28  1  0  0  0
 34 35  1  0  0  0
 35 36  2  0  0  0
 36 37  1  0  0  0
 44 39  1  0  0  0
 36 31  1  0  0  0
 11  1  1  0  0  0
 27 22  1  0  0  0
 10  4  1  0  0  0
 16 12  1  0  0  0
 29 30  1  0  0  0
 20 21  1  0  0  0
M  END
> <minimizedAffinity>
-9.96698

> <CNNscore>
0.8555139303

> <CNNaffinity>
8.1074409485

> <CNN_VS>
6.9360284805

> <CNNaffinity_variance>
0.0777735263

$$$$
[H]OC([H])([H])C(=O)N1C([H])([H])C([H])([H])[C@]([H])(N2C(=O)N(c3c([H])c([H])c([H])c([H])c3Cl)C([H])([H])c3c([H])nc(N([H])c4c([H])c([H])c(N5C([H])([H])C([H])([H])N(C([H])([H])[H])C([H])([H])C5([H])[H])c(C([H])([H])[H])c4[H])nc32)C1([H])[H]


 44 49  0  0  0  0  0  0  0  0999 V2000
   -0.1834  -53.6375  -20.2622 C   0  0  0  0  0  0  0  0  0  0  0  0
   -1.0084  -54.5200  -20.8207 N   0  0  0  0  0  0  0  0  0  0  0  0
   -1.2361  -54.6306  -22.1390 C   0  0  0  0  0  0  0  0  0  0  0  0
   -0.5743  -53.7707  -23.0204 C   0  0  0  0  0  0  0  0  0  0  0  0
   -0.8325  -53.9053  -24.4464 C   0  0  0  0  0  0  0  0  0  0  0  0
   -0.0992  -52.9695  -25.2359 N   0  0  0  0  0  0  0  0  0  0  0  0
    0.7908  -52.0161  -24.6518 C   0  0  0  0  0  0  0  0  0  0  0  0
    1.4269  -51.2028  -25.3821 O   0  0  0  0  0  0  0  0  0  0  0  0
    1.0058  -51.9302  -23.2566 N   0  0  0  0  0  0  0  0  0  0  0  0
    0.2671  -52.8716  -22.4417 C   0  0  0  0  0  0  0  0  0  0  0  0
    0.4569  -52.8054  -21.1156 N   0  0  0  0  0  0  0  0  0  0  0  0
    1.8897  -50.9850  -22.6594 C   0  0  0  0  0  0  0  0  0  0  0  0
    1.3451  -50.2959  -21.4584 C   0  0  0  0  0  0  0  0  0  0  0  0
    2.5487  -50.0521  -20.5825 C   0  0  0  0  0  0  0  0  0  0  0  0
    3.6941  -50.5429  -21.3036 N   0  0  0  0  0  0  0  0  0  0  0  0
    3.2240  -51.5252  -22.2452 C   0  0  0  0  0  0  0  0  0  0  0  0
    5.0393  -50.1482  -21.1345 C   0  0  0  0  0  0  0  0  0  0  0  0
    5.3800  -49.2690  -20.2765 O   0  0  0  0  0  0  0  0  0  0  0  0
    6.1114  -50.7467  -21.9547 C   0  0  0  0  0  0  0  0  0  0  0  0
    7.3087  -50.7462  -21.2505 O   0  0  0  0  0  0  0  0  0  0  0  0
    7.2642  -50.2244  -20.4326 H   0  0  0  0  0  0  0  0  0  0  0  0
   -0.2002  -52.9159  -26.6638 C   0  0  0  0  0  0  0  0  0  0  0  0
    0.7493  -53.4301  -27.5173 C   0  0  0  0  0  0  0  0  0  0  0  0
    0.6369  -53.3695  -28.8809 C   0  0  0  0  0  0  0  0  0  0  0  0
   -0.4546  -52.7786  -29.4525 C   0  0  0  0  0  0  0  0  0  0  0  0
   -1.4356  -52.2474  -28.6299 C   0  0  0  0  0  0  0  0  0  0  0  0
   -1.2969  -52.3222  -27.2391 C   0  0  0  0  0  0  0  0  0  0  0  0
   -2.5392  -51.6496  -26.2199 Cl  0  0  0  0  0  0  0  0  0  0  0  0
    0.0357  -53.5447  -18.8690 N   0  0  0  0  0  0  0  0  0  0  0  0
    0.3650  -54.4396  -18.3909 H   0  0  0  0  0  0  0  0  0  0  0  0
   -0.5747  -50.2229  -16.3079 C   0  0  0  0  0  0  0  0  0  0  0  0
   -1.3403  -51.3558  -16.2485 C   0  0  0  0  0  0  0  0  0  0  0  0
   -1.1462  -52.4180  -17.0778 C   0  0  0  0  0  0  0  0  0  0  0  0
   -0.1310  -52.3990  -18.0516 C   0  0  0  0  0  0  0  0  0  0  0  0
    0.6336  -51.2689  -18.1106 C   0  0  0  0  0  0  0  0  0  0  0  0
    0.4172  -50.1817  -17.2451 C   0  0  0  0  0  0  0  0  0  0  0  0
    1.2675  -48.9746  -17.3420 C   0  0  0  0  0  0  0  0  0  0  0  0
   -1.9530  -46.6104  -12.8091 C   0  0  0  0  0  0  0  0  0  0  0  0
   -2.2066  -47.9140  -13.3293 N   0  0  0  0  0  0  0  0  0  0  0  0
   -2.7787  -47.9464  -14.6284 C   0  0  0  0  0  0  0  0  0  0  0  0
   -1.7611  -48.0639  -15.7398 C   0  0  0  0  0  0  0  0  0  0  0  0
   -0.8215  -49.1501  -15.4224 N   0  0  0  0  0  0  0  0  0  0  0  0
   -0.1650  -49.0314  -14.1218 C   0  0  0  0  0  0  0  0  0  0  0  0
   -1.2127  -48.8912  -13.0578 C   0  0  0  0  0  0  0  0  0  0  0  0
 38 39  1  0  0  0
 39 40  1  0  0  0
 40 41  1  0  0  0
 41 42  1  0  0  0
 42 43  1  0  0  0
 43 44  1  0  0  0
 42 31  1  0  0  0
 31 32  2  0  0  0
 32 33  1  0  0  0
 33 34  2  0  0  0
 34 29  1  0  0  0
 29  1  1  0  0  0
  1  2  2  0  0  0
  2  3  1  0  0  0
  3  4  2  0  0  0
  4  5  1  0  0  0
  5  6  1  0  0  0
  6  7  1  0  0  0
  7  8  2  0  0  0
  7  9  1  0  0  0
  9 12  1  0  0  0
 12 13  1  0  0  0
 13 14  1  0  0  0
 14 15  1  0  0  0
 15 16  1  0  0  0
 15 17  1  0  0  0
 17 18  2  0  0  0
 17 19  1  0  0  0
 19 20  1  0  0  0
  9 10  1  0  0  0
 10 11  2  0  0  0
  6 22  1  0  0  0
 22 23  2  0  0  0
 23 24  1  0  0  0
 24 25  2  0  0  0
 25 26  1  0  0  0
 26 27  2  0  0  0
 27 28  1  0  0  0
 34 35  1  0  0  0
 35 36  2  0  0  0
 36 37  1  0  0  0
 44 39  1  0  0  0
 36 31  1  0  0  0
 11  1  1  0  0  0
 27 22  1  0  0  0
 10  4  1  0  0  0
 16 12  1  0  0  0
 29 30  1  0  0  0
 20 21  1  0  0  0
M  END
> <minimizedAffinity>
-10.12453

> <CNNscore>
0.8337029815

> <CNNaffinity>
8.0944957733

> <CNN_VS>
6.7484054565

> <CNNaffinity_variance>
0.1352605969

$$$$
[H]OC([H])([H])C(=O)N1C([H])([H])C([H])([H])[C@]([H])(N2C(=O)N(c3c([H])c([H])c([H])c([H])c3Cl)C([H])([H])c3c([H])nc(N([H])c4c([H])c([H])c(N5C([H])([H])C([H])([H])N(C([H])([H])[H])C([H])([H])C5([H])[H])c(C([H])([H])[H])c4[H])nc32)C1([H])[H]


 44 49  0  0  0  0  0  0  0  0999 V2000
   -0.6262  -53.1208  -20.0082 C   0  0  0  0  0  0  0  0  0  0  0  0
   -1.2481  -54.1581  -20.5636 N   0  0  0  0  0  0  0  0  0  0  0  0
   -1.2902  -54.4124  -21.8810 C   0  0  0  0  0  0  0  0  0  0  0  0
   -0.6433  -53.5437  -22.7649 C   0  0  0  0  0  0  0  0  0  0  0  0
   -0.6985  -53.8353  -24.1897 C   0  0  0  0  0  0  0  0  0  0  0  0
   -0.0031  -52.8735  -24.9823 N   0  0  0  0  0  0  0  0  0  0  0  0
    0.6700  -51.7547  -24.4015 C   0  0  0  0  0  0  0  0  0  0  0  0
    1.2787  -50.9227  -25.1340 O   0  0  0  0  0  0  0  0  0  0  0  0
    0.6931  -51.5200  -23.0070 N   0  0  0  0  0  0  0  0  0  0  0  0
   -0.0100  -52.4859  -22.1893 C   0  0  0  0  0  0  0  0  0  0  0  0
   -0.0003  -52.2801  -20.8639 N   0  0  0  0  0  0  0  0  0  0  0  0
    1.3596  -50.4090  -22.4129 C   0  0  0  0  0  0  0  0  0  0  0  0
    0.5529  -49.6627  -21.4098 C   0  0  0  0  0  0  0  0  0  0  0  0
    1.5615  -49.1709  -20.4019 C   0  0  0  0  0  0  0  0  0  0  0  0
    2.8564  -49.5914  -20.8702 N   0  0  0  0  0  0  0  0  0  0  0  0
    2.6567  -50.7256  -21.7340 C   0  0  0  0  0  0  0  0  0  0  0  0
    4.1050  -49.0130  -20.5530 C   0  0  0  0  0  0  0  0  0  0  0  0
    4.2028  -48.0063  -19.7770 O   0  0  0  0  0  0  0  0  0  0  0  0
    5.3560  -49.5601  -21.1152 C   0  0  0  0  0  0  0  0  0  0  0  0
    6.3939  -49.4135  -20.2037 O   0  0  0  0  0  0  0  0  0  0  0  0
    6.1550  -48.8520  -19.4483 H   0  0  0  0  0  0  0  0  0  0  0  0
    0.0712  -52.9569  -26.4104 C   0  0  0  0  0  0  0  0  0  0  0  0
    1.1375  -53.5008  -27.0901 C   0  0  0  0  0  0  0  0  0  0  0  0
    1.1923  -53.5718  -28.4566 C   0  0  0  0  0  0  0  0  0  0  0  0
    0.1586  -53.0902  -29.2095 C   0  0  0  0  0  0  0  0  0  0  0  0
   -0.9357  -52.5339  -28.5659 C   0  0  0  0  0  0  0  0  0  0  0  0
   -0.9673  -52.4731  -27.1678 C   0  0  0  0  0  0  0  0  0  0  0  0
   -2.3501  -51.7708  -26.3749 Cl  0  0  0  0  0  0  0  0  0  0  0  0
   -0.5997  -52.8788  -18.6159 N   0  0  0  0  0  0  0  0  0  0  0  0
   -1.2180  -53.5145  -18.0231 H   0  0  0  0  0  0  0  0  0  0  0  0
    1.5083  -49.8960  -16.4653 C   0  0  0  0  0  0  0  0  0  0  0  0
    0.1477  -50.0313  -16.4056 C   0  0  0  0  0  0  0  0  0  0  0  0
   -0.5270  -50.9860  -17.1038 C   0  0  0  0  0  0  0  0  0  0  0  0
    0.1566  -51.8935  -17.9335 C   0  0  0  0  0  0  0  0  0  0  0  0
    1.5144  -51.7590  -17.9925 C   0  0  0  0  0  0  0  0  0  0  0  0
    2.1932  -50.7660  -17.2639 C   0  0  0  0  0  0  0  0  0  0  0  0
    3.6657  -50.6531  -17.3560 C   0  0  0  0  0  0  0  0  0  0  0  0
    4.4376  -46.4263  -13.9017 C   0  0  0  0  0  0  0  0  0  0  0  0
    4.4282  -47.5617  -14.7650 N   0  0  0  0  0  0  0  0  0  0  0  0
    4.0176  -48.7787  -14.1598 C   0  0  0  0  0  0  0  0  0  0  0  0
    2.5419  -49.0676  -14.3119 C   0  0  0  0  0  0  0  0  0  0  0  0
    2.1561  -48.8860  -15.7196 N   0  0  0  0  0  0  0  0  0  0  0  0
    2.4951  -47.5808  -16.2839 C   0  0  0  0  0  0  0  0  0  0  0  0
    3.9602  -47.3294  -16.0854 C   0  0  0  0  0  0  0  0  0  0  0  0
 38 39  1  0  0  0
 39 40  1  0  0  0
 40 41  1  0  0  0
 41 42  1  0  0  0
 42 43  1  0  0  0
 43 44  1  0  0  0
 42 31  1  0  0  0
 31 32  2  0  0  0
 32 33  1  0  0  0
 33 34  2  0  0  0
 34 29  1  0  0  0
 29  1  1  0  0  0
  1  2  2  0  0  0
  2  3  1  0  0  0
  3  4  2  0  0  0
  4  5  1  0  0  0
  5  6  1  0  0  0
  6  7  1  0  0  0
  7  8  2  0  0  0
  7  9  1  0  0  0
  9 12  1  0  0  0
 12 13  1  0  0  0
 13 14  1  0  0  0
 14 15  1  0  0  0
 15 16  1  0  0  0
 15 17  1  0  0  0
 17 18  2  0  0  0
 17 19  1  0  0  0
 19 20  1  0  0  0
  9 10  1  0  0  0
 10 11  2  0  0  0
  6 22  1  0  0  0
 22 23  2  0  0  0
 23 24  1  0  0  0
 24 25  2  0  0  0
 25 26  1  0  0  0
 26 27  2  0  0  0
 27 28  1  0  0  0
 34 35  1  0  0  0
 35 36  2  0  0  0
 36 37  1  0  0  0
 44 39  1  0  0  0
 36 31  1  0  0  0
 11  1  1  0  0  0
 27 22  1  0  0  0
 10  4  1  0  0  0
 16 12  1  0  0  0
 29 30  1  0  0  0
 20 21  1  0  0  0
M  END
> <minimizedAffinity>
-9.36593

> <CNNscore>
0.7860435247

> <CNNaffinity>
7.8787527084

> <CNN_VS>
6.1930427551

> <CNNaffinity_variance>
0.1747699976

$$$$
[H]OC([H])([H])C(=O)N1C([H])([H])C([H])([H])[C@]([H])(N2C(=O)N(c3c([H])c([H])c([H])c([H])c3Cl)C([H])([H])c3c([H])nc(N([H])c4c([H])c([H])c(N5C([H])([H])C([H])([H])N(C([H])([H])[H])C([H])([H])C5([H])[H])c(C([H])([H])[H])c4[H])nc32)C1([H])[H]


 44 49  0  0  0  0  0  0  0  0999 V2000
   -0.4184  -53.1235  -19.9636 C   0  0  0  0  0  0  0  0  0  0  0  0
   -1.2752  -53.9838  -20.5086 N   0  0  0  0  0  0  0  0  0  0  0  0
   -1.4122  -54.2001  -21.8263 C   0  0  0  0  0  0  0  0  0  0  0  0
   -0.6112  -53.4859  -22.7222 C   0  0  0  0  0  0  0  0  0  0  0  0
   -0.7725  -53.7337  -24.1472 C   0  0  0  0  0  0  0  0  0  0  0  0
    0.0995  -52.9413  -24.9525 N   0  0  0  0  0  0  0  0  0  0  0  0
    1.0254  -52.0137  -24.3829 C   0  0  0  0  0  0  0  0  0  0  0  0
    1.7853  -51.3291  -25.1266 O   0  0  0  0  0  0  0  0  0  0  0  0
    1.1416  -51.8135  -22.9877 N   0  0  0  0  0  0  0  0  0  0  0  0
    0.2620  -52.6085  -22.1571 C   0  0  0  0  0  0  0  0  0  0  0  0
    0.3567  -52.4323  -20.8308 N   0  0  0  0  0  0  0  0  0  0  0  0
    2.0598  -50.8922  -22.4048 C   0  0  0  0  0  0  0  0  0  0  0  0
    3.4557  -51.3939  -22.2883 C   0  0  0  0  0  0  0  0  0  0  0  0
    4.3156  -50.1671  -22.4638 C   0  0  0  0  0  0  0  0  0  0  0  0
    3.4203  -49.0501  -22.6169 N   0  0  0  0  0  0  0  0  0  0  0  0
    2.1630  -49.5655  -23.0926 C   0  0  0  0  0  0  0  0  0  0  0  0
    3.7023  -47.6914  -22.3553 C   0  0  0  0  0  0  0  0  0  0  0  0
    4.8437  -47.3097  -21.9348 O   0  0  0  0  0  0  0  0  0  0  0  0
    2.6736  -46.6525  -22.5620 C   0  0  0  0  0  0  0  0  0  0  0  0
    3.2750  -45.4388  -22.8696 O   0  0  0  0  0  0  0  0  0  0  0  0
    4.2374  -45.4523  -22.7410 H   0  0  0  0  0  0  0  0  0  0  0  0
    0.1114  -53.0157  -26.3830 C   0  0  0  0  0  0  0  0  0  0  0  0
    1.1148  -53.6163  -27.1091 C   0  0  0  0  0  0  0  0  0  0  0  0
    1.1105  -53.6777  -28.4772 C   0  0  0  0  0  0  0  0  0  0  0  0
    0.0784  -53.1279  -29.1841 C   0  0  0  0  0  0  0  0  0  0  0  0
   -0.9536  -52.5128  -28.4929 C   0  0  0  0  0  0  0  0  0  0  0  0
   -0.9254  -52.4634  -27.0943 C   0  0  0  0  0  0  0  0  0  0  0  0
   -2.2305  -51.6866  -26.2412 Cl  0  0  0  0  0  0  0  0  0  0  0  0
   -0.2972  -52.9169  -18.5706 N   0  0  0  0  0  0  0  0  0  0  0  0
   -0.6840  -53.6946  -17.9513 H   0  0  0  0  0  0  0  0  0  0  0  0
    1.5932  -49.6035  -16.7230 C   0  0  0  0  0  0  0  0  0  0  0  0
    2.2813  -50.5463  -17.4378 C   0  0  0  0  0  0  0  0  0  0  0  0
    1.6717  -51.6135  -18.0237 C   0  0  0  0  0  0  0  0  0  0  0  0
    0.2811  -51.7991  -17.9190 C   0  0  0  0  0  0  0  0  0  0  0  0
   -0.4058  -50.8580  -17.2064 C   0  0  0  0  0  0  0  0  0  0  0  0
    0.2421  -49.7626  -16.6081 C   0  0  0  0  0  0  0  0  0  0  0  0
   -0.5385  -48.7651  -15.8432 C   0  0  0  0  0  0  0  0  0  0  0  0
    4.6445  -45.9224  -14.6422 C   0  0  0  0  0  0  0  0  0  0  0  0
    4.5906  -47.2041  -15.2656 N   0  0  0  0  0  0  0  0  0  0  0  0
    4.0295  -48.2396  -14.4726 C   0  0  0  0  0  0  0  0  0  0  0  0
    2.5476  -48.4401  -14.6914 C   0  0  0  0  0  0  0  0  0  0  0  0
    2.2779  -48.5165  -16.1354 N   0  0  0  0  0  0  0  0  0  0  0  0
    2.7731  -47.3812  -16.9117 C   0  0  0  0  0  0  0  0  0  0  0  0
    4.2379  -47.2073  -16.6411 C   0  0  0  0  0  0  0  0  0  0  0  0
 38 39  1  0  0  0
 39 40  1  0  0  0
 40 41  1  0  0  0
 41 42  1  0  0  0
 42 43  1  0  0  0
 43 44  1  0  0  0
 42 31  1  0  0  0
 31 32  2  0  0  0
 32 33  1  0  0  0
 33 34  2  0  0  0
 34 29  1  0  0  0
 29  1  1  0  0  0
  1  2  2  0  0  0
  2  3  1  0  0  0
  3  4  2  0  0  0
  4  5  1  0  0  0
  5  6  1  0  0  0
  6  7  1  0  0  0
  7  8  2  0  0  0
  7  9  1  0  0  0
  9 12  1  0  0  0
 12 13  1  0  0  0
 13 14  1  0  0  0
 14 15  1  0  0  0
 15 16  1  0  0  0
 15 17  1  0  0  0
 17 18  2  0  0  0
 17 19  1  0  0  0
 19 20  1  0  0  0
  9 10  1  0  0  0
 10 11  2  0  0  0
  6 22  1  0  0  0
 22 23  2  0  0  0
 23 24  1  0  0  0
 24 25  2  0  0  0
 25 26  1  0  0  0
 26 27  2  0  0  0
 27 28  1  0  0  0
 34 35  1  0  0  0
 35 36  2  0  0  0
 36 37  1  0  0  0
 44 39  1  0  0  0
 36 31  1  0  0  0
 11  1  1  0  0  0
 27 22  1  0  0  0
 10  4  1  0  0  0
 16 12  1  0  0  0
 29 30  1  0  0  0
 20 21  1  0  0  0
M  END
> <minimizedAffinity>
-9.00296

> <CNNscore>
0.6422128081

> <CNNaffinity>
7.7967057228

> <CNN_VS>
5.0071444511

> <CNNaffinity_variance>
0.1668538898

$$$$
[H]OC([H])([H])C(=O)N1C([H])([H])C([H])([H])[C@]([H])(N2C(=O)N(c3c([H])c([H])c([H])c([H])c3Cl)C([H])([H])c3c([H])nc(N([H])c4c([H])c([H])c(N5C([H])([H])C([H])([H])N(C([H])([H])[H])C([H])([H])C5([H])[H])c(C([H])([H])[H])c4[H])nc32)C1([H])[H]


 44 49  0  0  0  0  0  0  0  0999 V2000
   -0.8231  -53.1768  -19.1228 C   0  0  0  0  0  0  0  0  0  0  0  0
   -1.6517  -53.7971  -19.9594 N   0  0  0  0  0  0  0  0  0  0  0  0
   -1.4882  -53.8681  -21.2899 C   0  0  0  0  0  0  0  0  0  0  0  0
   -0.3755  -53.2561  -21.8745 C   0  0  0  0  0  0  0  0  0  0  0  0
   -0.2137  -53.3439  -23.3182 C   0  0  0  0  0  0  0  0  0  0  0  0
    0.9574  -52.6777  -23.7888 N   0  0  0  0  0  0  0  0  0  0  0  0
    1.8574  -52.0077  -22.9037 C   0  0  0  0  0  0  0  0  0  0  0  0
    2.8875  -51.4293  -23.3551 O   0  0  0  0  0  0  0  0  0  0  0  0
    1.6518  -51.9548  -21.5055 N   0  0  0  0  0  0  0  0  0  0  0  0
    0.4666  -52.6242  -21.0126 C   0  0  0  0  0  0  0  0  0  0  0  0
    0.2537  -52.5845  -19.6889 N   0  0  0  0  0  0  0  0  0  0  0  0
    2.5399  -51.2906  -20.6102 C   0  0  0  0  0  0  0  0  0  0  0  0
    3.9478  -51.7693  -20.6605 C   0  0  0  0  0  0  0  0  0  0  0  0
    4.7759  -50.5448  -20.3604 C   0  0  0  0  0  0  0  0  0  0  0  0
    3.8521  -49.4691  -20.1105 N   0  0  0  0  0  0  0  0  0  0  0  0
    2.6132  -49.8023  -20.7637 C   0  0  0  0  0  0  0  0  0  0  0  0
    4.0954  -48.2943  -19.3657 C   0  0  0  0  0  0  0  0  0  0  0  0
    5.2225  -48.0679  -18.8148 O   0  0  0  0  0  0  0  0  0  0  0  0
    3.0408  -47.2747  -19.1966 C   0  0  0  0  0  0  0  0  0  0  0  0
    2.2832  -47.5536  -18.0663 O   0  0  0  0  0  0  0  0  0  0  0  0
    2.4748  -48.4286  -17.6911 H   0  0  0  0  0  0  0  0  0  0  0  0
    1.3158  -52.6306  -25.1750 C   0  0  0  0  0  0  0  0  0  0  0  0
    2.5593  -52.9736  -25.6553 C   0  0  0  0  0  0  0  0  0  0  0  0
    2.8852  -52.9220  -26.9844 C   0  0  0  0  0  0  0  0  0  0  0  0
    1.9573  -52.5161  -27.9018 C   0  0  0  0  0  0  0  0  0  0  0  0
    0.6917  -52.1613  -27.4616 C   0  0  0  0  0  0  0  0  0  0  0  0
    0.3839  -52.2227  -26.0976 C   0  0  0  0  0  0  0  0  0  0  0  0
   -1.2114  -51.7733  -25.5615 Cl  0  0  0  0  0  0  0  0  0  0  0  0
   -1.0222  -53.1185  -17.7247 N   0  0  0  0  0  0  0  0  0  0  0  0
   -1.0594  -54.0587  -17.2222 H   0  0  0  0  0  0  0  0  0  0  0  0
   -1.3292  -49.5555  -15.4494 C   0  0  0  0  0  0  0  0  0  0  0  0
   -0.2623  -49.8265  -16.2627 C   0  0  0  0  0  0  0  0  0  0  0  0
   -0.1634  -50.9756  -16.9864 C   0  0  0  0  0  0  0  0  0  0  0  0
   -1.1722  -51.9546  -16.9301 C   0  0  0  0  0  0  0  0  0  0  0  0
   -2.2372  -51.6840  -16.1192 C   0  0  0  0  0  0  0  0  0  0  0  0
   -2.3209  -50.4911  -15.3790 C   0  0  0  0  0  0  0  0  0  0  0  0
   -3.4918  -50.2363  -14.5109 C   0  0  0  0  0  0  0  0  0  0  0  0
   -1.0835  -44.8772  -13.1594 C   0  0  0  0  0  0  0  0  0  0  0  0
   -0.6130  -45.7019  -14.2238 N   0  0  0  0  0  0  0  0  0  0  0  0
    0.2411  -46.7663  -13.8323 C   0  0  0  0  0  0  0  0  0  0  0  0
   -0.4829  -48.0701  -13.5869 C   0  0  0  0  0  0  0  0  0  0  0  0
   -1.3788  -48.3466  -14.7202 N   0  0  0  0  0  0  0  0  0  0  0  0
   -2.3222  -47.2741  -15.0307 C   0  0  0  0  0  0  0  0  0  0  0  0
   -1.5600  -45.9994  -15.2392 C   0  0  0  0  0  0  0  0  0  0  0  0
 38 39  1  0  0  0
 39 40  1  0  0  0
 40 41  1  0  0  0
 41 42  1  0  0  0
 42 43  1  0  0  0
 43 44  1  0  0  0
 42 31  1  0  0  0
 31 32  2  0  0  0
 32 33  1  0  0  0
 33 34  2  0  0  0
 34 29  1  0  0  0
 29  1  1  0  0  0
  1  2  2  0  0  0
  2  3  1  0  0  0
  3  4  2  0  0  0
  4  5  1  0  0  0
  5  6  1  0  0  0
  6  7  1  0  0  0
  7  8  2  0  0  0
  7  9  1  0  0  0
  9 12  1  0  0  0
 12 13  1  0  0  0
 13 14  1  0  0  0
 14 15  1  0  0  0
 15 16  1  0  0  0
 15 17  1  0  0  0
 17 18  2  0  0  0
 17 19  1  0  0  0
 19 20  1  0  0  0
  9 10  1  0  0  0
 10 11  2  0  0  0
  6 22  1  0  0  0
 22 23  2  0  0  0
 23 24  1  0  0  0
 24 25  2  0  0  0
 25 26  1  0  0  0
 26 27  2  0  0  0
 27 28  1  0  0  0
 34 35  1  0  0  0
 35 36  2  0  0  0
 36 37  1  0  0  0
 44 39  1  0  0  0
 36 31  1  0  0  0
 11  1  1  0  0  0
 27 22  1  0  0  0
 10  4  1  0  0  0
 16 12  1  0  0  0
 29 30  1  0  0  0
 20 21  1  0  0  0
M  END
> <minimizedAffinity>
-9.22169

> <CNNscore>
0.5125378370

> <CNNaffinity>
7.4789772034

> <CNN_VS>
3.8332588673

> <CNNaffinity_variance>
0.1447568238

$$$$
[H]OC([H])([H])C(=O)N1C([H])([H])C([H])([H])[C@]([H])(N2C(=O)N(c3c([H])c([H])c([H])c([H])c3Cl)C([H])([H])c3c([H])nc(N([H])c4c([H])c([H])c(N5C([H])([H])C([H])([H])N(C([H])([H])[H])C([H])([H])C5([H])[H])c(C([H])([H])[H])c4[H])nc32)C1([H])[H]


 44 49  0  0  0  0  0  0  0  0999 V2000
    0.4667  -52.8910  -20.2392 C   0  0  0  0  0  0  0  0  0  0  0  0
   -0.3392  -53.8713  -20.6401 N   0  0  0  0  0  0  0  0  0  0  0  0
   -0.7009  -54.0955  -21.9133 C   0  0  0  0  0  0  0  0  0  0  0  0
   -0.2133  -53.2560  -22.9193 C   0  0  0  0  0  0  0  0  0  0  0  0
   -0.6150  -53.5143  -24.2941 C   0  0  0  0  0  0  0  0  0  0  0  0
   -0.0526  -52.5873  -25.2221 N   0  0  0  0  0  0  0  0  0  0  0  0
    0.8148  -51.5298  -24.8079 C   0  0  0  0  0  0  0  0  0  0  0  0
    1.2974  -50.7274  -25.6580 O   0  0  0  0  0  0  0  0  0  0  0  0
    1.1742  -51.3255  -23.4554 N   0  0  0  0  0  0  0  0  0  0  0  0
    0.6099  -52.2565  -22.5012 C   0  0  0  0  0  0  0  0  0  0  0  0
    0.9385  -52.0787  -21.2130 N   0  0  0  0  0  0  0  0  0  0  0  0
    2.0377  -50.2756  -23.0269 C   0  0  0  0  0  0  0  0  0  0  0  0
    1.4550  -49.3705  -21.9997 C   0  0  0  0  0  0  0  0  0  0  0  0
    2.6305  -48.9521  -21.1521 C   0  0  0  0  0  0  0  0  0  0  0  0
    3.7985  -49.5649  -21.7292 N   0  0  0  0  0  0  0  0  0  0  0  0
    3.3594  -50.7149  -22.4756 C   0  0  0  0  0  0  0  0  0  0  0  0
    5.1372  -49.1347  -21.5996 C   0  0  0  0  0  0  0  0  0  0  0  0
    5.4497  -48.1030  -20.9189 O   0  0  0  0  0  0  0  0  0  0  0  0
    6.2351  -49.8729  -22.2551 C   0  0  0  0  0  0  0  0  0  0  0  0
    6.8190  -50.7576  -21.3574 O   0  0  0  0  0  0  0  0  0  0  0  0
    6.5158  -50.6227  -20.4447 H   0  0  0  0  0  0  0  0  0  0  0  0
   -0.3143  -52.6468  -26.6292 C   0  0  0  0  0  0  0  0  0  0  0  0
   -1.5283  -52.3297  -27.1951 C   0  0  0  0  0  0  0  0  0  0  0  0
   -1.7614  -52.3928  -28.5432 C   0  0  0  0  0  0  0  0  0  0  0  0
   -0.7654  -52.7845  -29.3928 C   0  0  0  0  0  0  0  0  0  0  0  0
    0.4735  -53.1131  -28.8654 C   0  0  0  0  0  0  0  0  0  0  0  0
    0.6861  -53.0403  -27.4838 C   0  0  0  0  0  0  0  0  0  0  0  0
    2.2492  -53.4567  -26.8376 Cl  0  0  0  0  0  0  0  0  0  0  0  0
    0.8296  -52.6796  -18.8896 N   0  0  0  0  0  0  0  0  0  0  0  0
    0.6463  -53.4953  -18.2271 H   0  0  0  0  0  0  0  0  0  0  0  0
    2.7153  -49.2179  -17.3320 C   0  0  0  0  0  0  0  0  0  0  0  0
    3.3914  -50.1779  -18.0352 C   0  0  0  0  0  0  0  0  0  0  0  0
    2.7839  -51.2924  -18.5276 C   0  0  0  0  0  0  0  0  0  0  0  0
    1.4080  -51.5119  -18.3325 C   0  0  0  0  0  0  0  0  0  0  0  0
    0.7330  -50.5536  -17.6315 C   0  0  0  0  0  0  0  0  0  0  0  0
    1.3787  -49.4091  -17.1304 C   0  0  0  0  0  0  0  0  0  0  0  0
    0.6113  -48.3944  -16.3749 C   0  0  0  0  0  0  0  0  0  0  0  0
    4.6711  -44.8071  -15.3543 C   0  0  0  0  0  0  0  0  0  0  0  0
    3.4982  -45.5859  -15.5822 N   0  0  0  0  0  0  0  0  0  0  0  0
    3.0832  -45.6725  -16.9373 C   0  0  0  0  0  0  0  0  0  0  0  0
    3.6241  -46.8822  -17.6643 C   0  0  0  0  0  0  0  0  0  0  0  0
    3.3973  -48.0813  -16.8432 N   0  0  0  0  0  0  0  0  0  0  0  0
    3.9327  -48.0038  -15.4852 C   0  0  0  0  0  0  0  0  0  0  0  0
    3.3891  -46.7765  -14.8162 C   0  0  0  0  0  0  0  0  0  0  0  0
 38 39  1  0  0  0
 39 40  1  0  0  0
 40 41  1  0  0  0
 41 42  1  0  0  0
 42 43  1  0  0  0
 43 44  1  0  0  0
 42 31  1  0  0  0
 31 32  2  0  0  0
 32 33  1  0  0  0
 33 34  2  0  0  0
 34 29  1  0  0  0
 29  1  1  0  0  0
  1  2  2  0  0  0
  2  3  1  0  0  0
  3  4  2  0  0  0
  4  5  1  0  0  0
  5  6  1  0  0  0
  6  7  1  0  0  0
  7  8  2  0  0  0
  7  9  1  0  0  0
  9 12  1  0  0  0
 12 13  1  0  0  0
 13 14  1  0  0  0
 14 15  1  0  0  0
 15 16  1  0  0  0
 15 17  1  0  0  0
 17 18  2  0  0  0
 17 19  1  0  0  0
 19 20  1  0  0  0
  9 10  1  0  0  0
 10 11  2  0  0  0
  6 22  1  0  0  0
 22 23  2  0  0  0
 23 24  1  0  0  0
 24 25  2  0  0  0
 25 26  1  0  0  0
 26 27  2  0  0  0
 27 28  1  0  0  0
 34 35  1  0  0  0
 35 36  2  0  0  0
 36 37  1  0  0  0
 44 39  1  0  0  0
 36 31  1  0  0  0
 11  1  1  0  0  0
 27 22  1  0  0  0
 10  4  1  0  0  0
 16 12  1  0  0  0
 29 30  1  0  0  0
 20 21  1  0  0  0
M  END
> <minimizedAffinity>
-8.58799

> <CNNscore>
0.3462310135

> <CNNaffinity>
7.3026762009

> <CNN_VS>
2.5284130573

> <CNNaffinity_variance>
0.2746643722

$$$$
[H]OC([H])([H])C(=O)N1C([H])([H])C([H])([H])[C@]([H])(N2C(=O)N(c3c([H])c([H])c([H])c([H])c3Cl)C([H])([H])c3c([H])nc(N([H])c4c([H])c([H])c(N5C([H])([H])C([H])([H])N(C([H])([H])[H])C([H])([H])C5([H])[H])c(C([H])([H])[H])c4[H])nc32)C1([H])[H]


 44 49  0  0  0  0  0  0  0  0999 V2000
    0.1120  -52.2607  -19.9752 C   0  0  0  0  0  0  0  0  0  0  0  0
   -0.7734  -53.1694  -20.3773 N   0  0  0  0  0  0  0  0  0  0  0  0
   -0.9913  -53.5157  -21.6558 C   0  0  0  0  0  0  0  0  0  0  0  0
   -0.2506  -52.8959  -22.6665 C   0  0  0  0  0  0  0  0  0  0  0  0
   -0.4993  -53.2843  -24.0470 C   0  0  0  0  0  0  0  0  0  0  0  0
    0.3175  -52.5779  -24.9800 N   0  0  0  0  0  0  0  0  0  0  0  0
    1.2730  -51.5999  -24.5646 C   0  0  0  0  0  0  0  0  0  0  0  0
    1.9823  -50.9944  -25.4188 O   0  0  0  0  0  0  0  0  0  0  0  0
    1.4751  -51.2618  -23.2062 N   0  0  0  0  0  0  0  0  0  0  0  0
    0.6523  -51.9683  -22.2473 C   0  0  0  0  0  0  0  0  0  0  0  0
    0.8286  -51.6609  -20.9537 N   0  0  0  0  0  0  0  0  0  0  0  0
    2.4238  -50.2887  -22.7764 C   0  0  0  0  0  0  0  0  0  0  0  0
    3.8423  -50.7342  -22.8346 C   0  0  0  0  0  0  0  0  0  0  0  0
    4.6200  -49.4825  -23.1564 C   0  0  0  0  0  0  0  0  0  0  0  0
    3.6671  -48.4051  -23.2181 N   0  0  0  0  0  0  0  0  0  0  0  0
    2.3801  -48.9819  -23.5071 C   0  0  0  0  0  0  0  0  0  0  0  0
    3.9253  -47.0291  -23.0332 C   0  0  0  0  0  0  0  0  0  0  0  0
    5.0957  -46.5920  -22.7797 O   0  0  0  0  0  0  0  0  0  0  0  0
    2.8363  -46.0364  -23.1280 C   0  0  0  0  0  0  0  0  0  0  0  0
    3.2956  -44.7845  -22.7393 O   0  0  0  0  0  0  0  0  0  0  0  0
    4.1783  -44.8160  -22.3356 H   0  0  0  0  0  0  0  0  0  0  0  0
    0.2406  -52.7946  -26.3939 C   0  0  0  0  0  0  0  0  0  0  0  0
    1.2165  -53.4348  -27.1235 C   0  0  0  0  0  0  0  0  0  0  0  0
    1.1270  -53.6328  -28.4756 C   0  0  0  0  0  0  0  0  0  0  0  0
    0.0327  -53.1872  -29.1621 C   0  0  0  0  0  0  0  0  0  0  0  0
   -0.9745  -52.5369  -28.4665 C   0  0  0  0  0  0  0  0  0  0  0  0
   -0.8589  -52.3470  -27.0845 C   0  0  0  0  0  0  0  0  0  0  0  0
   -2.1339  -51.5278  -26.2258 Cl  0  0  0  0  0  0  0  0  0  0  0  0
    0.3188  -51.9165  -18.6200 N   0  0  0  0  0  0  0  0  0  0  0  0
   -0.1906  -52.5223  -17.9049 H   0  0  0  0  0  0  0  0  0  0  0  0
    2.6479  -48.6528  -17.2454 C   0  0  0  0  0  0  0  0  0  0  0  0
    1.9374  -48.6165  -18.4146 C   0  0  0  0  0  0  0  0  0  0  0  0
    1.1963  -49.6696  -18.8569 C   0  0  0  0  0  0  0  0  0  0  0  0
    1.1258  -50.8649  -18.1184 C   0  0  0  0  0  0  0  0  0  0  0  0
    1.8340  -50.9010  -16.9512 C   0  0  0  0  0  0  0  0  0  0  0  0
    2.5942  -49.8027  -16.5114 C   0  0  0  0  0  0  0  0  0  0  0  0
    3.3484  -49.8825  -15.2408 C   0  0  0  0  0  0  0  0  0  0  0  0
    5.1806  -44.2106  -16.2241 C   0  0  0  0  0  0  0  0  0  0  0  0
    4.2516  -44.8758  -17.0777 N   0  0  0  0  0  0  0  0  0  0  0  0
    4.8105  -45.8728  -17.9201 C   0  0  0  0  0  0  0  0  0  0  0  0
    4.7592  -47.2649  -17.3339 C   0  0  0  0  0  0  0  0  0  0  0  0
    3.4010  -47.5300  -16.8354 N   0  0  0  0  0  0  0  0  0  0  0  0
    2.8941  -46.5424  -15.8844 C   0  0  0  0  0  0  0  0  0  0  0  0
    2.9900  -45.1784  -16.5004 C   0  0  0  0  0  0  0  0  0  0  0  0
 38 39  1  0  0  0
 39 40  1  0  0  0
 40 41  1  0  0  0
 41 42  1  0  0  0
 42 43  1  0  0  0
 43 44  1  0  0  0
 42 31  1  0  0  0
 31 32  2  0  0  0
 32 33  1  0  0  0
 33 34  2  0  0  0
 34 29  1  0  0  0
 29  1  1  0  0  0
  1  2  2  0  0  0
  2  3  1  0  0  0
  3  4  2  0  0  0
  4  5  1  0  0  0
  5  6  1  0  0  0
  6  7  1  0  0  0
  7  8  2  0  0  0
  7  9  1  0  0  0
  9 12  1  0  0  0
 12 13  1  0  0  0
 13 14  1  0  0  0
 14 15  1  0  0  0
 15 16  1  0  0  0
 15 17  1  0  0  0
 17 18  2  0  0  0
 17 19  1  0  0  0
 19 20  1  0  0  0
  9 10  1  0  0  0
 10 11  2  0  0  0
  6 22  1  0  0  0
 22 23  2  0  0  0
 23 24  1  0  0  0
 24 25  2  0  0  0
 25 26  1  0  0  0
 26 27  2  0  0  0
 27 28  1  0  0  0
 34 35  1  0  0  0
 35 36  2  0  0  0
 36 37  1  0  0  0
 44 39  1  0  0  0
 36 31  1  0  0  0
 11  1  1  0  0  0
 27 22  1  0  0  0
 10  4  1  0  0  0
 16 12  1  0  0  0
 29 30  1  0  0  0
 20 21  1  0  0  0
M  END
> <minimizedAffinity>
-8.52003

> <CNNscore>
0.2774490714

> <CNNaffinity>
7.2894730568

> <CNN_VS>
2.0224575996

> <CNNaffinity_variance>
0.2039423436

$$$$
[H]OC([H])([H])C(=O)N1C([H])([H])C([H])([H])[C@]([H])(N2C(=O)N(c3c([H])c([H])c([H])c([H])c3Cl)C([H])([H])c3c([H])nc(N([H])c4c([H])c([H])c(N5C([H])([H])C([H])([H])N(C([H])([H])[H])C([H])([H])C5([H])[H])c(C([H])([H])[H])c4[H])nc32)C1([H])[H]


 44 49  0  0  0  0  0  0  0  0999 V2000
    1.1348  -52.4898  -20.4792 C   0  0  0  0  0  0  0  0  0  0  0  0
    0.2574  -53.4535  -20.7490 N   0  0  0  0  0  0  0  0  0  0  0  0
   -0.1907  -53.7620  -21.9761 C   0  0  0  0  0  0  0  0  0  0  0  0
    0.2779  -53.0376  -23.0761 C   0  0  0  0  0  0  0  0  0  0  0  0
   -0.2180  -53.3863  -24.3992 C   0  0  0  0  0  0  0  0  0  0  0  0
    0.3343  -52.5724  -25.4333 N   0  0  0  0  0  0  0  0  0  0  0  0
    1.2776  -51.5342  -25.1603 C   0  0  0  0  0  0  0  0  0  0  0  0
    1.7488  -50.8335  -26.1018 O   0  0  0  0  0  0  0  0  0  0  0  0
    1.7274  -51.2387  -23.8524 N   0  0  0  0  0  0  0  0  0  0  0  0
    1.1745  -52.0543  -22.7919 C   0  0  0  0  0  0  0  0  0  0  0  0
    1.5882  -51.7888  -21.5439 N   0  0  0  0  0  0  0  0  0  0  0  0
    2.6673  -50.2066  -23.5644 C   0  0  0  0  0  0  0  0  0  0  0  0
    2.1452  -49.1120  -22.7024 C   0  0  0  0  0  0  0  0  0  0  0  0
    3.3380  -48.6624  -21.8961 C   0  0  0  0  0  0  0  0  0  0  0  0
    4.4605  -49.4461  -22.3416 N   0  0  0  0  0  0  0  0  0  0  0  0
    3.9402  -50.6589  -22.9170 C   0  0  0  0  0  0  0  0  0  0  0  0
    5.8279  -49.1076  -22.2420 C   0  0  0  0  0  0  0  0  0  0  0  0
    6.2134  -48.0117  -21.7172 O   0  0  0  0  0  0  0  0  0  0  0  0
    6.8715  -50.0215  -22.7479 C   0  0  0  0  0  0  0  0  0  0  0  0
    7.4053  -50.7632  -21.7018 O   0  0  0  0  0  0  0  0  0  0  0  0
    7.1187  -50.4452  -20.8302 H   0  0  0  0  0  0  0  0  0  0  0  0
   -0.0138  -52.7339  -26.8134 C   0  0  0  0  0  0  0  0  0  0  0  0
    0.8335  -53.2661  -27.7585 C   0  0  0  0  0  0  0  0  0  0  0  0
    0.4843  -53.4127  -29.0746 C   0  0  0  0  0  0  0  0  0  0  0  0
   -0.7537  -53.0230  -29.5021 C   0  0  0  0  0  0  0  0  0  0  0  0
   -1.6392  -52.4816  -28.5835 C   0  0  0  0  0  0  0  0  0  0  0  0
   -1.2579  -52.3425  -27.2439 C   0  0  0  0  0  0  0  0  0  0  0  0
   -2.3830  -51.6602  -26.1025 Cl  0  0  0  0  0  0  0  0  0  0  0  0
    1.5881  -52.1876  -19.1750 N   0  0  0  0  0  0  0  0  0  0  0  0
    1.5045  -52.9757  -18.4609 H   0  0  0  0  0  0  0  0  0  0  0  0
    3.0797  -48.4987  -17.7144 C   0  0  0  0  0  0  0  0  0  0  0  0
    1.7783  -48.8894  -17.5509 C   0  0  0  0  0  0  0  0  0  0  0  0
    1.3007  -50.0718  -18.0280 C   0  0  0  0  0  0  0  0  0  0  0  0
    2.1389  -50.9622  -18.7236 C   0  0  0  0  0  0  0  0  0  0  0  0
    3.4378  -50.5729  -18.8861 C   0  0  0  0  0  0  0  0  0  0  0  0
    3.9122  -49.3471  -18.3861 C   0  0  0  0  0  0  0  0  0  0  0  0
    5.3270  -48.9617  -18.5843 C   0  0  0  0  0  0  0  0  0  0  0  0
    5.2750  -44.0811  -16.0241 C   0  0  0  0  0  0  0  0  0  0  0  0
    5.4721  -45.3144  -16.7130 N   0  0  0  0  0  0  0  0  0  0  0  0
    5.4204  -46.4769  -15.8994 C   0  0  0  0  0  0  0  0  0  0  0  0
    4.0520  -47.1154  -15.8348 C   0  0  0  0  0  0  0  0  0  0  0  0
    3.5207  -47.2595  -17.1988 N   0  0  0  0  0  0  0  0  0  0  0  0
    3.4850  -46.0220  -17.9760 C   0  0  0  0  0  0  0  0  0  0  0  0
    4.8561  -45.4144  -17.9885 C   0  0  0  0  0  0  0  0  0  0  0  0
 38 39  1  0  0  0
 39 40  1  0  0  0
 40 41  1  0  0  0
 41 42  1  0  0  0
 42 43  1  0  0  0
 43 44  1  0  0  0
 42 31  1  0  0  0
 31 32  2  0  0  0
 32 33  1  0  0  0
 33 34  2  0  0  0
 34 29  1  0  0  0
 29  1  1  0  0  0
  1  2  2  0  0  0
  2  3  1  0  0  0
  3  4  2  0  0  0
  4  5  1  0  0  0
  5  6  1  0  0  0
  6  7  1  0  0  0
  7  8  2  0  0  0
  7  9  1  0  0  0
  9 12  1  0  0  0
 12 13  1  0  0  0
 13 14  1  0  0  0
 14 15  1  0  0  0
 15 16  1  0  0  0
 15 17  1  0  0  0
 17 18  2  0  0  0
 17 19  1  0  0  0
 19 20  1  0  0  0
  9 10  1  0  0  0
 10 11  2  0  0  0
  6 22  1  0  0  0
 22 23  2  0  0  0
 23 24  1  0  0  0
 24 25  2  0  0  0
 25 26  1  0  0  0
 26 27  2  0  0  0
 27 28  1  0  0  0
 34 35  1  0  0  0
 35 36  2  0  0  0
 36 37  1  0  0  0
 44 39  1  0  0  0
 36 31  1  0  0  0
 11  1  1  0  0  0
 27 22  1  0  0  0
 10  4  1  0  0  0
 16 12  1  0  0  0
 29 30  1  0  0  0
 20 21  1  0  0  0
M  END
> <minimizedAffinity>
-8.65086

> <CNNscore>
0.1942602992

> <CNNaffinity>
7.0992116928

> <CNN_VS>
1.3790949583

> <CNNaffinity_variance>
0.1435749978

$$$$
[H]OC([H])([H])C(=O)N1C([H])([H])C([H])([H])[C@]([H])(N2C(=O)N(c3c([H])c([H])c([H])c([H])c3Cl)C([H])([H])c3c([H])nc(N([H])c4c([H])c([H])c(N5C([H])([H])C([H])([H])N(C([H])([H])[H])C([H])([H])C5([H])[H])c(C([H])([H])[H])c4[H])nc32)C1([H])[H]


 44 49  0  0  0  0  0  0  0  0999 V2000
    1.2734  -52.4047  -20.3501 C   0  0  0  0  0  0  0  0  0  0  0  0
    0.3212  -53.3013  -20.5961 N   0  0  0  0  0  0  0  0  0  0  0  0
   -0.1683  -53.5871  -21.8130 C   0  0  0  0  0  0  0  0  0  0  0  0
    0.3369  -52.9115  -22.9278 C   0  0  0  0  0  0  0  0  0  0  0  0
   -0.2047  -53.2347  -24.2394 C   0  0  0  0  0  0  0  0  0  0  0  0
    0.3917  -52.4757  -25.2906 N   0  0  0  0  0  0  0  0  0  0  0  0
    1.4155  -51.5098  -25.0433 C   0  0  0  0  0  0  0  0  0  0  0  0
    1.9238  -50.8565  -25.9994 O   0  0  0  0  0  0  0  0  0  0  0  0
    1.9067  -51.2363  -23.7456 N   0  0  0  0  0  0  0  0  0  0  0  0
    1.3100  -51.9967  -22.6679 C   0  0  0  0  0  0  0  0  0  0  0  0
    1.7622  -51.7510  -21.4292 N   0  0  0  0  0  0  0  0  0  0  0  0
    2.9269  -50.2761  -23.4831 C   0  0  0  0  0  0  0  0  0  0  0  0
    4.1859  -50.4801  -24.2493 C   0  0  0  0  0  0  0  0  0  0  0  0
    4.7174  -49.0881  -24.4833 C   0  0  0  0  0  0  0  0  0  0  0  0
    3.8109  -48.1813  -23.8284 N   0  0  0  0  0  0  0  0  0  0  0  0
    2.5399  -48.8476  -23.7142 C   0  0  0  0  0  0  0  0  0  0  0  0
    4.0946  -46.8746  -23.3743 C   0  0  0  0  0  0  0  0  0  0  0  0
    5.2483  -46.3498  -23.5118 O   0  0  0  0  0  0  0  0  0  0  0  0
    3.0531  -46.0604  -22.7166 C   0  0  0  0  0  0  0  0  0  0  0  0
    3.2476  -44.7148  -23.0014 O   0  0  0  0  0  0  0  0  0  0  0  0
    4.0982  -44.5412  -23.4365 H   0  0  0  0  0  0  0  0  0  0  0  0
    0.0108  -52.6240  -26.6635 C   0  0  0  0  0  0  0  0  0  0  0  0
    0.8262  -53.1702  -27.6285 C   0  0  0  0  0  0  0  0  0  0  0  0
    0.4459  -53.3037  -28.9374 C   0  0  0  0  0  0  0  0  0  0  0  0
   -0.7924  -52.8861  -29.3368 C   0  0  0  0  0  0  0  0  0  0  0  0
   -1.6464  -52.3299  -28.3973 C   0  0  0  0  0  0  0  0  0  0  0  0
   -1.2336  -52.2045  -27.0657 C   0  0  0  0  0  0  0  0  0  0  0  0
   -2.3193  -51.5032  -25.8979 Cl  0  0  0  0  0  0  0  0  0  0  0  0
    1.7687  -52.1248  -19.0562 N   0  0  0  0  0  0  0  0  0  0  0  0
    2.6523  -52.6518  -18.7741 H   0  0  0  0  0  0  0  0  0  0  0  0
    0.0015  -49.5665  -16.1756 C   0  0  0  0  0  0  0  0  0  0  0  0
   -0.6182  -50.6919  -16.6477 C   0  0  0  0  0  0  0  0  0  0  0  0
   -0.0507  -51.5073  -17.5787 C   0  0  0  0  0  0  0  0  0  0  0  0
    1.2221  -51.2251  -18.1074 C   0  0  0  0  0  0  0  0  0  0  0  0
    1.8409  -50.1026  -17.6359 C   0  0  0  0  0  0  0  0  0  0  0  0
    1.2380  -49.2725  -16.6741 C   0  0  0  0  0  0  0  0  0  0  0  0
    1.9417  -48.0643  -16.1897 C   0  0  0  0  0  0  0  0  0  0  0  0
   -2.0062  -46.1017  -12.8356 C   0  0  0  0  0  0  0  0  0  0  0  0
   -1.1127  -46.3160  -13.9265 N   0  0  0  0  0  0  0  0  0  0  0  0
    0.0571  -47.0576  -13.6138 C   0  0  0  0  0  0  0  0  0  0  0  0
   -0.0767  -48.5419  -13.8657 C   0  0  0  0  0  0  0  0  0  0  0  0
   -0.6352  -48.7559  -15.2095 N   0  0  0  0  0  0  0  0  0  0  0  0
   -1.8981  -48.0655  -15.4649 C   0  0  0  0  0  0  0  0  0  0  0  0
   -1.7220  -46.6044  -15.1762 C   0  0  0  0  0  0  0  0  0  0  0  0
 38 39  1  0  0  0
 39 40  1  0  0  0
 40 41  1  0  0  0
 41 42  1  0  0  0
 42 43  1  0  0  0
 43 44  1  0  0  0
 42 31  1  0  0  0
 31 32  2  0  0  0
 32 33  1  0  0  0
 33 34  2  0  0  0
 34 29  1  0  0  0
 29  1  1  0  0  0
  1  2  2  0  0  0
  2  3  1  0  0  0
  3  4  2  0  0  0
  4  5  1  0  0  0
  5  6  1  0  0  0
  6  7  1  0  0  0
  7  8  2  0  0  0
  7  9  1  0  0  0
  9 12  1  0  0  0
 12 13  1  0  0  0
 13 14  1  0  0  0
 14 15  1  0  0  0
 15 16  1  0  0  0
 15 17  1  0  0  0
 17 18  2  0  0  0
 17 19  1  0  0  0
 19 20  1  0  0  0
  9 10  1  0  0  0
 10 11  2  0  0  0
  6 22  1  0  0  0
 22 23  2  0  0  0
 23 24  1  0  0  0
 24 25  2  0  0  0
 25 26  1  0  0  0
 26 27  2  0  0  0
 27 28  1  0  0  0
 34 35  1  0  0  0
 35 36  2  0  0  0
 36 37  1  0  0  0
 44 39  1  0  0  0
 36 31  1  0  0  0
 11  1  1  0  0  0
 27 22  1  0  0  0
 10  4  1  0  0  0
 16 12  1  0  0  0
 29 30  1  0  0  0
 20 21  1  0  0  0
M  END
> <minimizedAffinity>
-8.76023

> <CNNscore>
0.1632779092

> <CNNaffinity>
7.1916122437

> <CNN_VS>
1.1742314100

> <CNNaffinity_variance>
0.3018984497

$$$$
[H]C1=C([H])C(=O)C(=C([H])N([H])c2c([H])c([H])c(C(=O)O[C@]([H])(C([H])([H])Oc3c([H])c([H])c(C(C([H])([H])[H])(C([H])([H])[H])C([H])([H])[H])c([H])c3[H])C([H])([H])n3c([N+](=O)[O-])nc([H])c3[H])c([H])c2[H])C1=O


 41 44  0  0  0  0  0  0  0  0999 V2000
   -0.0464  -53.7935  -25.1253 C   0  0  0  0  0  0  0  0  0  0  0  0
   -0.4196  -54.6967  -23.9360 C   0  0  0  0  0  0  0  0  0  0  0  0
   -1.1928  -53.9575  -23.0175 O   0  0  0  0  0  0  0  0  0  0  0  0
    0.4697  -51.6765  -19.9677 C   0  0  0  0  0  0  0  0  0  0  0  0
   -0.2333  -51.1354  -20.9940 C   0  0  0  0  0  0  0  0  0  0  0  0
   -0.7892  -51.8788  -22.0107 C   0  0  0  0  0  0  0  0  0  0  0  0
   -0.6162  -53.2665  -21.9781 C   0  0  0  0  0  0  0  0  0  0  0  0
    0.0943  -53.8182  -20.9430 C   0  0  0  0  0  0  0  0  0  0  0  0
    0.6471  -53.0600  -19.9276 C   0  0  0  0  0  0  0  0  0  0  0  0
    0.1586  -50.8787  -17.6725 C   0  0  0  0  0  0  0  0  0  0  0  0
    1.0348  -50.7923  -18.9113 C   0  0  0  0  0  0  0  0  0  0  0  0
    1.0880  -49.3841  -19.4252 C   0  0  0  0  0  0  0  0  0  0  0  0
    2.4223  -51.2353  -18.5456 C   0  0  0  0  0  0  0  0  0  0  0  0
    0.0085  -54.6582  -26.3603 C   0  0  0  0  0  0  0  0  0  0  0  0
   -0.1145  -53.8125  -27.5261 N   0  0  0  0  0  0  0  0  0  0  0  0
   -1.2350  -53.1441  -27.9263 C   0  0  0  0  0  0  0  0  0  0  0  0
   -0.9801  -52.4424  -29.0615 C   0  0  0  0  0  0  0  0  0  0  0  0
    0.2942  -52.6738  -29.3655 N   0  0  0  0  0  0  0  0  0  0  0  0
    0.8245  -53.5045  -28.4370 C   0  0  0  0  0  0  0  0  0  0  0  0
    2.1743  -53.9478  -28.4784 N   0  0  0  0  0  0  0  0  0  0  0  0
    2.5787  -54.9847  -29.2431 O   0  0  0  0  0  0  0  0  0  0  0  0
    3.0447  -53.3599  -27.7746 O   0  0  0  0  0  0  0  0  0  0  0  0
    1.2711  -53.2637  -24.9488 O   0  0  0  0  0  0  0  0  0  0  0  0
    1.4232  -51.8808  -24.8293 C   0  0  0  0  0  0  0  0  0  0  0  0
    0.6579  -51.2015  -25.6106 O   0  0  0  0  0  0  0  0  0  0  0  0
    2.3334  -51.2082  -23.9333 C   0  0  0  0  0  0  0  0  0  0  0  0
    2.7087  -49.9097  -24.2191 C   0  0  0  0  0  0  0  0  0  0  0  0
    3.5774  -49.2679  -23.3753 C   0  0  0  0  0  0  0  0  0  0  0  0
    4.1112  -49.8616  -22.2266 C   0  0  0  0  0  0  0  0  0  0  0  0
    3.7299  -51.1560  -21.9513 C   0  0  0  0  0  0  0  0  0  0  0  0
    2.8444  -51.7952  -22.8216 C   0  0  0  0  0  0  0  0  0  0  0  0
    5.0092  -49.1249  -21.3979 N   0  0  0  0  0  0  0  0  0  0  0  0
    5.8266  -48.6570  -21.8698 H   0  0  0  0  0  0  0  0  0  0  0  0
    4.7777  -49.0493  -20.0162 C   0  0  0  0  0  0  0  0  0  0  0  0
    4.3785  -47.8894  -19.5045 C   0  0  0  0  0  0  0  0  0  0  0  0
    4.0810  -47.5717  -18.1126 C   0  0  0  0  0  0  0  0  0  0  0  0
    4.1718  -48.3959  -17.1741 O   0  0  0  0  0  0  0  0  0  0  0  0
    3.6810  -46.1683  -18.0691 C   0  0  0  0  0  0  0  0  0  0  0  0
    3.7121  -45.6394  -19.2737 C   0  0  0  0  0  0  0  0  0  0  0  0
    4.1405  -46.6544  -20.2285 C   0  0  0  0  0  0  0  0  0  0  0  0
    4.2600  -46.4228  -21.4700 O   0  0  0  0  0  0  0  0  0  0  0  0
 10 11  1  0  0  0
 11 12  1  0  0  0
 11 13  1  0  0  0
 11  4  1  0  0  0
  4  5  2  0  0  0
  5  6  1  0  0  0
  6  7  2  0  0  0
  7  3  1  0  0  0
  3  2  1  0  0  0
  2  1  1  0  0  0
  1 14  1  0  0  0
 14 15  1  0  0  0
 15 16  1  0  0  0
 16 17  2  0  0  0
 17 18  1  0  0  0
 18 19  2  0  0  0
 19 20  1  0  0  0
 20 21  1  0  0  0
 20 22  2  0  0  0
  1 23  1  0  0  0
 23 24  1  0  0  0
 24 25  2  0  0  0
 24 26  1  0  0  0
 26 27  2  0  0  0
 27 28  1  0  0  0
 28 29  2  0  0  0
 29 32  1  0  0  0
 32 34  1  0  0  0
 34 35  2  0  0  0
 35 36  1  0  0  0
 36 37  2  0  0  0
 36 38  1  0  0  0
 38 39  2  0  0  0
 39 40  1  0  0  0
 40 41  2  0  0  0
 29 30  1  0  0  0
 30 31  2  0  0  0
  7  8  1  0  0  0
  8  9  2  0  0  0
  9  4  1  0  0  0
 19 15  1  0  0  0
 31 26  1  0  0  0
 40 35  1  0  0  0
 32 33  1  0  0  0
M  CHG 1  20   1
M  CHG 1  21  -1
M  END
> <minimizedAffinity>
-7.88132

> <CNNscore>
0.5122963786

> <CNNaffinity>
7.1704597473

> <CNN_VS>
3.6734006405

> <CNNaffinity_variance>
0.1924861819

$$$$
[H]C1=C([H])C(=O)C(=C([H])N([H])c2c([H])c([H])c(C(=O)O[C@]([H])(C([H])([H])Oc3c([H])c([H])c(C(C([H])([H])[H])(C([H])([H])[H])C([H])([H])[H])c([H])c3[H])C([H])([H])n3c([N+](=O)[O-])nc([H])c3[H])c([H])c2[H])C1=O


 41 44  0  0  0  0  0  0  0  0999 V2000
    0.2412  -52.7540  -24.5700 C   0  0  0  0  0  0  0  0  0  0  0  0
    1.6751  -52.7994  -24.0120 C   0  0  0  0  0  0  0  0  0  0  0  0
    2.3425  -51.6046  -24.3515 O   0  0  0  0  0  0  0  0  0  0  0  0
    3.7966  -49.1368  -21.3410 C   0  0  0  0  0  0  0  0  0  0  0  0
    3.9939  -50.4789  -21.3540 C   0  0  0  0  0  0  0  0  0  0  0  0
    3.5180  -51.3081  -22.3445 C   0  0  0  0  0  0  0  0  0  0  0  0
    2.7924  -50.7296  -23.3912 C   0  0  0  0  0  0  0  0  0  0  0  0
    2.5896  -49.3733  -23.3821 C   0  0  0  0  0  0  0  0  0  0  0  0
    3.0737  -48.5516  -22.3811 C   0  0  0  0  0  0  0  0  0  0  0  0
    5.0473  -47.0994  -20.8062 C   0  0  0  0  0  0  0  0  0  0  0  0
    4.3500  -48.3190  -20.2265 C   0  0  0  0  0  0  0  0  0  0  0  0
    5.3131  -49.1534  -19.4352 C   0  0  0  0  0  0  0  0  0  0  0  0
    3.2457  -47.8517  -19.3223 C   0  0  0  0  0  0  0  0  0  0  0  0
    0.1906  -51.6731  -25.6212 C   0  0  0  0  0  0  0  0  0  0  0  0
    0.1178  -52.2946  -26.9242 N   0  0  0  0  0  0  0  0  0  0  0  0
    1.1715  -52.7400  -27.6683 C   0  0  0  0  0  0  0  0  0  0  0  0
    0.7266  -53.2739  -28.8358 C   0  0  0  0  0  0  0  0  0  0  0  0
   -0.5988  -53.1610  -28.8171 N   0  0  0  0  0  0  0  0  0  0  0  0
   -0.9738  -52.5674  -27.6594 C   0  0  0  0  0  0  0  0  0  0  0  0
   -2.3310  -52.2996  -27.3331 N   0  0  0  0  0  0  0  0  0  0  0  0
   -3.3652  -52.8578  -27.9982 O   0  0  0  0  0  0  0  0  0  0  0  0
   -2.5990  -51.5066  -26.3855 O   0  0  0  0  0  0  0  0  0  0  0  0
   -0.6754  -52.3584  -23.5447 O   0  0  0  0  0  0  0  0  0  0  0  0
   -0.5523  -52.9382  -22.2804 C   0  0  0  0  0  0  0  0  0  0  0  0
   -0.7468  -54.2108  -22.2679 O   0  0  0  0  0  0  0  0  0  0  0  0
   -0.2374  -52.2359  -21.0592 C   0  0  0  0  0  0  0  0  0  0  0  0
   -0.3876  -52.8967  -19.8553 C   0  0  0  0  0  0  0  0  0  0  0  0
   -0.0958  -52.2332  -18.6920 C   0  0  0  0  0  0  0  0  0  0  0  0
    0.3517  -50.9082  -18.6557 C   0  0  0  0  0  0  0  0  0  0  0  0
    0.4982  -50.2596  -19.8616 C   0  0  0  0  0  0  0  0  0  0  0  0
    0.1962  -50.9502  -21.0371 C   0  0  0  0  0  0  0  0  0  0  0  0
    0.6359  -50.2885  -17.4022 N   0  0  0  0  0  0  0  0  0  0  0  0
    0.9931  -49.2977  -17.4244 H   0  0  0  0  0  0  0  0  0  0  0  0
    0.4335  -51.0023  -16.2114 C   0  0  0  0  0  0  0  0  0  0  0  0
    1.4910  -51.2917  -15.4601 C   0  0  0  0  0  0  0  0  0  0  0  0
    1.5285  -52.0180  -14.1960 C   0  0  0  0  0  0  0  0  0  0  0  0
    0.5144  -52.4875  -13.6309 O   0  0  0  0  0  0  0  0  0  0  0  0
    2.9244  -52.0680  -13.7715 C   0  0  0  0  0  0  0  0  0  0  0  0
    3.6967  -51.4545  -14.6426 C   0  0  0  0  0  0  0  0  0  0  0  0
    2.8731  -50.9412  -15.7306 C   0  0  0  0  0  0  0  0  0  0  0  0
    3.3552  -50.3025  -16.7148 O   0  0  0  0  0  0  0  0  0  0  0  0
 10 11  1  0  0  0
 11 12  1  0  0  0
 11 13  1  0  0  0
 11  4  1  0  0  0
  4  5  2  0  0  0
  5  6  1  0  0  0
  6  7  2  0  0  0
  7  3  1  0  0  0
  3  2  1  0  0  0
  2  1  1  0  0  0
  1 14  1  0  0  0
 14 15  1  0  0  0
 15 16  1  0  0  0
 16 17  2  0  0  0
 17 18  1  0  0  0
 18 19  2  0  0  0
 19 20  1  0  0  0
 20 21  1  0  0  0
 20 22  2  0  0  0
  1 23  1  0  0  0
 23 24  1  0  0  0
 24 25  2  0  0  0
 24 26  1  0  0  0
 26 27  2  0  0  0
 27 28  1  0  0  0
 28 29  2  0  0  0
 29 32  1  0  0  0
 32 34  1  0  0  0
 34 35  2  0  0  0
 35 36  1  0  0  0
 36 37  2  0  0  0
 36 38  1  0  0  0
 38 39  2  0  0  0
 39 40  1  0  0  0
 40 41  2  0  0  0
 29 30  1  0  0  0
 30 31  2  0  0  0
  7  8  1  0  0  0
  8  9  2  0  0  0
  9  4  1  0  0  0
 19 15  1  0  0  0
 31 26  1  0  0  0
 40 35  1  0  0  0
 32 33  1  0  0  0
M  CHG 1  20   1
M  CHG 1  21  -1
M  END
> <minimizedAffinity>
-7.91476

> <CNNscore>
0.4218559265

> <CNNaffinity>
7.0897169113

> <CNN_VS>
2.9908390045

> <CNNaffinity_variance>
0.2208122909

$$$$
[H]C1=C([H])C(=O)C(=C([H])N([H])c2c([H])c([H])c(C(=O)O[C@]([H])(C([H])([H])Oc3c([H])c([H])c(C(C([H])([H])[H])(C([H])([H])[H])C([H])([H])[H])c([H])c3[H])C([H])([H])n3c([N+](=O)[O-])nc([H])c3[H])c([H])c2[H])C1=O


 41 44  0  0  0  0  0  0  0  0999 V2000
    0.7720  -52.5600  -24.7285 C   0  0  0  0  0  0  0  0  0  0  0  0
    2.2695  -52.7621  -24.4355 C   0  0  0  0  0  0  0  0  0  0  0  0
    2.9050  -51.5046  -24.3815 O   0  0  0  0  0  0  0  0  0  0  0  0
    3.6825  -49.7395  -20.7008 C   0  0  0  0  0  0  0  0  0  0  0  0
    4.0394  -51.0142  -20.9975 C   0  0  0  0  0  0  0  0  0  0  0  0
    3.7882  -51.6114  -22.2121 C   0  0  0  0  0  0  0  0  0  0  0  0
    3.1288  -50.8580  -23.1890 C   0  0  0  0  0  0  0  0  0  0  0  0
    2.7652  -49.5691  -22.8937 C   0  0  0  0  0  0  0  0  0  0  0  0
    3.0242  -48.9809  -21.6695 C   0  0  0  0  0  0  0  0  0  0  0  0
    3.8485  -50.2727  -18.3156 C   0  0  0  0  0  0  0  0  0  0  0  0
    3.9967  -49.1771  -19.3584 C   0  0  0  0  0  0  0  0  0  0  0  0
    3.0608  -48.0410  -19.0696 C   0  0  0  0  0  0  0  0  0  0  0  0
    5.4104  -48.6716  -19.3211 C   0  0  0  0  0  0  0  0  0  0  0  0
    0.6523  -51.5263  -25.8208 C   0  0  0  0  0  0  0  0  0  0  0  0
    0.0239  -52.1358  -26.9711 N   0  0  0  0  0  0  0  0  0  0  0  0
   -1.3120  -52.1526  -27.2492 C   0  0  0  0  0  0  0  0  0  0  0  0
   -1.5377  -52.8084  -28.4176 C   0  0  0  0  0  0  0  0  0  0  0  0
   -0.3464  -53.1974  -28.8639 N   0  0  0  0  0  0  0  0  0  0  0  0
    0.6050  -52.7918  -27.9901 C   0  0  0  0  0  0  0  0  0  0  0  0
    1.9891  -53.0543  -28.1787 N   0  0  0  0  0  0  0  0  0  0  0  0
    2.4614  -54.2740  -28.5149 O   0  0  0  0  0  0  0  0  0  0  0  0
    2.8267  -52.1194  -28.0271 O   0  0  0  0  0  0  0  0  0  0  0  0
    0.1145  -52.0096  -23.5828 O   0  0  0  0  0  0  0  0  0  0  0  0
   -0.2700  -52.8738  -22.5555 C   0  0  0  0  0  0  0  0  0  0  0  0
   -0.6652  -54.0287  -22.9647 O   0  0  0  0  0  0  0  0  0  0  0  0
   -0.2503  -52.5664  -21.1453 C   0  0  0  0  0  0  0  0  0  0  0  0
    0.3896  -51.4164  -20.7250 C   0  0  0  0  0  0  0  0  0  0  0  0
    0.4167  -51.1222  -19.3865 C   0  0  0  0  0  0  0  0  0  0  0  0
   -0.1750  -51.9314  -18.4107 C   0  0  0  0  0  0  0  0  0  0  0  0
   -0.8104  -53.0748  -18.8411 C   0  0  0  0  0  0  0  0  0  0  0  0
   -0.8284  -53.3596  -20.2082 C   0  0  0  0  0  0  0  0  0  0  0  0
   -0.1042  -51.5541  -17.0365 N   0  0  0  0  0  0  0  0  0  0  0  0
    0.8460  -51.3112  -16.6517 H   0  0  0  0  0  0  0  0  0  0  0  0
   -1.2744  -51.5189  -16.2633 C   0  0  0  0  0  0  0  0  0  0  0  0
   -1.6388  -50.3619  -15.7202 C   0  0  0  0  0  0  0  0  0  0  0  0
   -2.8014  -50.0834  -14.8848 C   0  0  0  0  0  0  0  0  0  0  0  0
   -3.6462  -50.9469  -14.5548 O   0  0  0  0  0  0  0  0  0  0  0  0
   -2.7556  -48.6642  -14.5456 C   0  0  0  0  0  0  0  0  0  0  0  0
   -1.7028  -48.0910  -15.0885 C   0  0  0  0  0  0  0  0  0  0  0  0
   -0.9517  -49.0892  -15.8401 C   0  0  0  0  0  0  0  0  0  0  0  0
    0.1146  -48.8156  -16.4703 O   0  0  0  0  0  0  0  0  0  0  0  0
 10 11  1  0  0  0
 11 12  1  0  0  0
 11 13  1  0  0  0
 11  4  1  0  0  0
  4  5  2  0  0  0
  5  6  1  0  0  0
  6  7  2  0  0  0
  7  3  1  0  0  0
  3  2  1  0  0  0
  2  1  1  0  0  0
  1 14  1  0  0  0
 14 15  1  0  0  0
 15 16  1  0  0  0
 16 17  2  0  0  0
 17 18  1  0  0  0
 18 19  2  0  0  0
 19 20  1  0  0  0
 20 21  1  0  0  0
 20 22  2  0  0  0
  1 23  1  0  0  0
 23 24  1  0  0  0
 24 25  2  0  0  0
 24 26  1  0  0  0
 26 27  2  0  0  0
 27 28  1  0  0  0
 28 29  2  0  0  0
 29 32  1  0  0  0
 32 34  1  0  0  0
 34 35  2  0  0  0
 35 36  1  0  0  0
 36 37  2  0  0  0
 36 38  1  0  0  0
 38 39  2  0  0  0
 39 40  1  0  0  0
 40 41  2  0  0  0
 29 30  1  0  0  0
 30 31  2  0  0  0
  7  8  1  0  0  0
  8  9  2  0  0  0
  9  4  1  0  0  0
 19 15  1  0  0  0
 31 26  1  0  0  0
 40 35  1  0  0  0
 32 33  1  0  0  0
M  CHG 1  20   1
M  CHG 1  21  -1
M  END
> <minimizedAffinity>
-8.04910

> <CNNscore>
0.3897016048

> <CNNaffinity>
7.1131467819

> <CNN_VS>
2.7720046043

> <CNNaffinity_variance>
0.1079689488

$$$$
[H]C1=C([H])C(=O)C(=C([H])N([H])c2c([H])c([H])c(C(=O)O[C@]([H])(C([H])([H])Oc3c([H])c([H])c(C(C([H])([H])[H])(C([H])([H])[H])C([H])([H])[H])c([H])c3[H])C([H])([H])n3c([N+](=O)[O-])nc([H])c3[H])c([H])c2[H])C1=O


 41 44  0  0  0  0  0  0  0  0999 V2000
   -0.1168  -53.8746  -25.1610 C   0  0  0  0  0  0  0  0  0  0  0  0
   -0.5217  -54.8030  -24.0019 C   0  0  0  0  0  0  0  0  0  0  0  0
   -1.2618  -54.0661  -23.0547 O   0  0  0  0  0  0  0  0  0  0  0  0
    0.5084  -51.7129  -20.1228 C   0  0  0  0  0  0  0  0  0  0  0  0
   -0.2519  -51.1986  -21.1217 C   0  0  0  0  0  0  0  0  0  0  0  0
   -0.8440  -51.9661  -22.0992 C   0  0  0  0  0  0  0  0  0  0  0  0
   -0.6472  -53.3503  -22.0547 C   0  0  0  0  0  0  0  0  0  0  0  0
    0.1212  -53.8750  -21.0472 C   0  0  0  0  0  0  0  0  0  0  0  0
    0.7099  -53.0926  -20.0710 C   0  0  0  0  0  0  0  0  0  0  0  0
    1.1754  -49.3975  -19.6806 C   0  0  0  0  0  0  0  0  0  0  0  0
    1.1092  -50.8038  -19.1081 C   0  0  0  0  0  0  0  0  0  0  0  0
    2.4813  -51.2975  -18.7564 C   0  0  0  0  0  0  0  0  0  0  0  0
    0.2640  -50.7739  -17.8671 C   0  0  0  0  0  0  0  0  0  0  0  0
   -0.0781  -54.7024  -26.4216 C   0  0  0  0  0  0  0  0  0  0  0  0
   -0.1671  -53.8182  -27.5616 N   0  0  0  0  0  0  0  0  0  0  0  0
   -1.2767  -53.1393  -27.9744 C   0  0  0  0  0  0  0  0  0  0  0  0
   -0.9885  -52.3993  -29.0768 C   0  0  0  0  0  0  0  0  0  0  0  0
    0.2956  -52.6172  -29.3478 N   0  0  0  0  0  0  0  0  0  0  0  0
    0.7991  -53.4775  -28.4315 C   0  0  0  0  0  0  0  0  0  0  0  0
    2.1511  -53.9159  -28.4450 N   0  0  0  0  0  0  0  0  0  0  0  0
    3.1221  -53.3092  -27.7291 O   0  0  0  0  0  0  0  0  0  0  0  0
    2.4758  -54.9120  -29.1528 O   0  0  0  0  0  0  0  0  0  0  0  0
    1.2136  -53.3868  -24.9614 O   0  0  0  0  0  0  0  0  0  0  0  0
    1.4027  -52.0128  -24.7999 C   0  0  0  0  0  0  0  0  0  0  0  0
    0.7166  -51.2913  -25.6161 O   0  0  0  0  0  0  0  0  0  0  0  0
    2.2703  -51.3909  -23.8281 C   0  0  0  0  0  0  0  0  0  0  0  0
    2.3016  -50.0118  -23.7519 C   0  0  0  0  0  0  0  0  0  0  0  0
    3.1278  -49.4154  -22.8352 C   0  0  0  0  0  0  0  0  0  0  0  0
    3.9506  -50.1343  -21.9616 C   0  0  0  0  0  0  0  0  0  0  0  0
    3.9109  -51.5082  -22.0460 C   0  0  0  0  0  0  0  0  0  0  0  0
    3.0639  -52.0995  -22.9857 C   0  0  0  0  0  0  0  0  0  0  0  0
    4.7818  -49.4381  -21.0340 N   0  0  0  0  0  0  0  0  0  0  0  0
    4.9497  -49.8952  -20.0998 H   0  0  0  0  0  0  0  0  0  0  0  0
    5.3350  -48.1987  -21.3896 C   0  0  0  0  0  0  0  0  0  0  0  0
    6.6500  -48.1207  -21.5667 C   0  0  0  0  0  0  0  0  0  0  0  0
    7.4437  -46.9531  -21.9321 C   0  0  0  0  0  0  0  0  0  0  0  0
    6.9598  -45.8157  -22.1331 O   0  0  0  0  0  0  0  0  0  0  0  0
    8.8359  -47.3865  -22.0041 C   0  0  0  0  0  0  0  0  0  0  0  0
    8.9381  -48.6682  -21.7238 C   0  0  0  0  0  0  0  0  0  0  0  0
    7.6112  -49.2003  -21.4377 C   0  0  0  0  0  0  0  0  0  0  0  0
    7.4089  -50.4155  -21.1355 O   0  0  0  0  0  0  0  0  0  0  0  0
 10 11  1  0  0  0
 11 12  1  0  0  0
 11 13  1  0  0  0
 11  4  1  0  0  0
  4  5  2  0  0  0
  5  6  1  0  0  0
  6  7  2  0  0  0
  7  3  1  0  0  0
  3  2  1  0  0  0
  2  1  1  0  0  0
  1 14  1  0  0  0
 14 15  1  0  0  0
 15 16  1  0  0  0
 16 17  2  0  0  0
 17 18  1  0  0  0
 18 19  2  0  0  0
 19 20  1  0  0  0
 20 21  1  0  0  0
 20 22  2  0  0  0
  1 23  1  0  0  0
 23 24  1  0  0  0
 24 25  2  0  0  0
 24 26  1  0  0  0
 26 27  2  0  0  0
 27 28  1  0  0  0
 28 29  2  0  0  0
 29 32  1  0  0  0
 32 34  1  0  0  0
 34 35  2  0  0  0
 35 36  1  0  0  0
 36 37  2  0  0  0
 36 38  1  0  0  0
 38 39  2  0  0  0
 39 40  1  0  0  0
 40 41  2  0  0  0
 29 30  1  0  0  0
 30 31  2  0  0  0
  7  8  1  0  0  0
  8  9  2  0  0  0
  9  4  1  0  0  0
 19 15  1  0  0  0
 31 26  1  0  0  0
 40 35  1  0  0  0
 32 33  1  0  0  0
M  CHG 1  20   1
M  CHG 1  21  -1
M  END
> <minimizedAffinity>
-8.08059

> <CNNscore>
0.3816971779

> <CNNaffinity>
7.0426607132

> <CNN_VS>
2.6881637573

> <CNNaffinity_variance>
0.2472311556

$$$$
[H]C1=C([H])C(=O)C(=C([H])N([H])c2c([H])c([H])c(C(=O)O[C@]([H])(C([H])([H])Oc3c([H])c([H])c(C(C([H])([H])[H])(C([H])([H])[H])C([H])([H])[H])c([H])c3[H])C([H])([H])n3c([N+](=O)[O-])nc([H])c3[H])c([H])c2[H])C1=O


 41 44  0  0  0  0  0  0  0  0999 V2000
    0.3528  -52.7290  -24.9020 C   0  0  0  0  0  0  0  0  0  0  0  0
    1.8272  -52.8142  -24.4680 C   0  0  0  0  0  0  0  0  0  0  0  0
    2.4019  -51.5279  -24.5243 O   0  0  0  0  0  0  0  0  0  0  0  0
    3.6080  -49.6826  -21.0019 C   0  0  0  0  0  0  0  0  0  0  0  0
    3.7680  -51.0100  -21.2312 C   0  0  0  0  0  0  0  0  0  0  0  0
    3.3732  -51.6343  -22.3929 C   0  0  0  0  0  0  0  0  0  0  0  0
    2.7753  -50.8522  -23.3866 C   0  0  0  0  0  0  0  0  0  0  0  0
    2.6107  -49.5098  -23.1593 C   0  0  0  0  0  0  0  0  0  0  0  0
    3.0124  -48.8951  -21.9878 C   0  0  0  0  0  0  0  0  0  0  0  0
    3.9750  -50.1519  -18.6257 C   0  0  0  0  0  0  0  0  0  0  0  0
    4.0669  -49.0943  -19.7133 C   0  0  0  0  0  0  0  0  0  0  0  0
    3.2057  -47.9131  -19.3774 C   0  0  0  0  0  0  0  0  0  0  0  0
    5.4961  -48.6460  -19.8226 C   0  0  0  0  0  0  0  0  0  0  0  0
    0.2471  -51.6641  -25.9655 C   0  0  0  0  0  0  0  0  0  0  0  0
    0.0698  -52.3048  -27.2491 N   0  0  0  0  0  0  0  0  0  0  0  0
    1.0608  -52.7493  -28.0754 C   0  0  0  0  0  0  0  0  0  0  0  0
    0.5233  -53.3043  -29.1930 C   0  0  0  0  0  0  0  0  0  0  0  0
   -0.7968  -53.2054  -29.0615 N   0  0  0  0  0  0  0  0  0  0  0  0
   -1.0777  -52.5997  -27.8837 C   0  0  0  0  0  0  0  0  0  0  0  0
   -2.4049  -52.3419  -27.4451 N   0  0  0  0  0  0  0  0  0  0  0  0
   -3.4891  -52.8774  -28.0463 O   0  0  0  0  0  0  0  0  0  0  0  0
   -2.5966  -51.5802  -26.4543 O   0  0  0  0  0  0  0  0  0  0  0  0
   -0.4587  -52.2858  -23.8098 O   0  0  0  0  0  0  0  0  0  0  0  0
   -0.4141  -53.0026  -22.6123 C   0  0  0  0  0  0  0  0  0  0  0  0
   -0.6622  -54.2588  -22.7457 O   0  0  0  0  0  0  0  0  0  0  0  0
   -0.1224  -52.4503  -21.3110 C   0  0  0  0  0  0  0  0  0  0  0  0
    0.0098  -53.3111  -20.2385 C   0  0  0  0  0  0  0  0  0  0  0  0
    0.2810  -52.7922  -18.9992 C   0  0  0  0  0  0  0  0  0  0  0  0
    0.4335  -51.4228  -18.7571 C   0  0  0  0  0  0  0  0  0  0  0  0
    0.3001  -50.5742  -19.8335 C   0  0  0  0  0  0  0  0  0  0  0  0
    0.0236  -51.1195  -21.0890 C   0  0  0  0  0  0  0  0  0  0  0  0
    0.7169  -50.9620  -17.4368 N   0  0  0  0  0  0  0  0  0  0  0  0
    1.5158  -51.4219  -16.9269 H   0  0  0  0  0  0  0  0  0  0  0  0
   -0.0587  -49.9358  -16.8765 C   0  0  0  0  0  0  0  0  0  0  0  0
   -0.6569  -50.1598  -15.7109 C   0  0  0  0  0  0  0  0  0  0  0  0
   -1.5061  -49.2557  -14.9440 C   0  0  0  0  0  0  0  0  0  0  0  0
   -1.7959  -48.0932  -15.3086 O   0  0  0  0  0  0  0  0  0  0  0  0
   -1.9124  -49.9696  -13.7371 C   0  0  0  0  0  0  0  0  0  0  0  0
   -1.3960  -51.1797  -13.7176 C   0  0  0  0  0  0  0  0  0  0  0  0
   -0.5966  -51.3757  -14.9210 C   0  0  0  0  0  0  0  0  0  0  0  0
    0.0213  -52.4559  -15.1669 O   0  0  0  0  0  0  0  0  0  0  0  0
 10 11  1  0  0  0
 11 12  1  0  0  0
 11 13  1  0  0  0
 11  4  1  0  0  0
  4  5  2  0  0  0
  5  6  1  0  0  0
  6  7  2  0  0  0
  7  3  1  0  0  0
  3  2  1  0  0  0
  2  1  1  0  0  0
  1 14  1  0  0  0
 14 15  1  0  0  0
 15 16  1  0  0  0
 16 17  2  0  0  0
 17 18  1  0  0  0
 18 19  2  0  0  0
 19 20  1  0  0  0
 20 21  1  0  0  0
 20 22  2  0  0  0
  1 23  1  0  0  0
 23 24  1  0  0  0
 24 25  2  0  0  0
 24 26  1  0  0  0
 26 27  2  0  0  0
 27 28  1  0  0  0
 28 29  2  0  0  0
 29 32  1  0  0  0
 32 34  1  0  0  0
 34 35  2  0  0  0
 35 36  1  0  0  0
 36 37  2  0  0  0
 36 38  1  0  0  0
 38 39  2  0  0  0
 39 40  1  0  0  0
 40 41  2  0  0  0
 29 30  1  0  0  0
 30 31  2  0  0  0
  7  8  1  0  0  0
  8  9  2  0  0  0
  9  4  1  0  0  0
 19 15  1  0  0  0
 31 26  1  0  0  0
 40 35  1  0  0  0
 32 33  1  0  0  0
M  CHG 1  20   1
M  CHG 1  21  -1
M  END
> <minimizedAffinity>
-7.64694

> <CNNscore>
0.3685437441

> <CNNaffinity>
7.0727410316

> <CNN_VS>
2.6066143513

> <CNNaffinity_variance>
0.1767082810

$$$$
[H]C1=C([H])C(=O)C(=C([H])N([H])c2c([H])c([H])c(C(=O)O[C@]([H])(C([H])([H])Oc3c([H])c([H])c(C(C([H])([H])[H])(C([H])([H])[H])C([H])([H])[H])c([H])c3[H])C([H])([H])n3c([N+](=O)[O-])nc([H])c3[H])c([H])c2[H])C1=O


 41 44  0  0  0  0  0  0  0  0999 V2000
    0.4335  -52.7773  -24.6896 C   0  0  0  0  0  0  0  0  0  0  0  0
    1.8939  -52.7481  -24.2041 C   0  0  0  0  0  0  0  0  0  0  0  0
    2.2784  -51.4116  -23.9718 O   0  0  0  0  0  0  0  0  0  0  0  0
    2.6383  -49.7775  -20.1682 C   0  0  0  0  0  0  0  0  0  0  0  0
    1.7354  -49.3347  -21.0787 C   0  0  0  0  0  0  0  0  0  0  0  0
    1.6054  -49.8665  -22.3418 C   0  0  0  0  0  0  0  0  0  0  0  0
    2.4531  -50.9200  -22.6998 C   0  0  0  0  0  0  0  0  0  0  0  0
    3.3680  -51.3708  -21.7831 C   0  0  0  0  0  0  0  0  0  0  0  0
    3.4878  -50.8280  -20.5171 C   0  0  0  0  0  0  0  0  0  0  0  0
    2.9999  -47.6587  -18.9929 C   0  0  0  0  0  0  0  0  0  0  0  0
    2.7063  -49.1403  -18.8241 C   0  0  0  0  0  0  0  0  0  0  0  0
    3.7829  -49.8051  -18.0185 C   0  0  0  0  0  0  0  0  0  0  0  0
    1.3943  -49.2878  -18.1085 C   0  0  0  0  0  0  0  0  0  0  0  0
    0.2510  -51.6433  -25.6676 C   0  0  0  0  0  0  0  0  0  0  0  0
    0.1275  -52.1927  -26.9990 N   0  0  0  0  0  0  0  0  0  0  0  0
   -1.0364  -52.4806  -27.6508 C   0  0  0  0  0  0  0  0  0  0  0  0
   -0.7691  -52.9762  -28.8873 C   0  0  0  0  0  0  0  0  0  0  0  0
    0.5560  -52.9958  -29.0036 N   0  0  0  0  0  0  0  0  0  0  0  0
    1.1053  -52.5213  -27.8606 C   0  0  0  0  0  0  0  0  0  0  0  0
    2.5090  -52.4152  -27.6645 N   0  0  0  0  0  0  0  0  0  0  0  0
    3.2886  -53.4803  -27.3795 O   0  0  0  0  0  0  0  0  0  0  0  0
    3.0667  -51.2840  -27.7545 O   0  0  0  0  0  0  0  0  0  0  0  0
   -0.4548  -52.5124  -23.5993 O   0  0  0  0  0  0  0  0  0  0  0  0
   -0.6848  -53.5249  -22.6656 C   0  0  0  0  0  0  0  0  0  0  0  0
   -0.8447  -54.6908  -23.1878 O   0  0  0  0  0  0  0  0  0  0  0  0
   -0.7489  -53.3512  -21.2341 C   0  0  0  0  0  0  0  0  0  0  0  0
   -1.8698  -53.7966  -20.5604 C   0  0  0  0  0  0  0  0  0  0  0  0
   -1.9390  -53.6292  -19.2018 C   0  0  0  0  0  0  0  0  0  0  0  0
   -0.9252  -53.0255  -18.4503 C   0  0  0  0  0  0  0  0  0  0  0  0
    0.1876  -52.5858  -19.1321 C   0  0  0  0  0  0  0  0  0  0  0  0
    0.2416  -52.7640  -20.5161 C   0  0  0  0  0  0  0  0  0  0  0  0
   -1.0729  -52.8900  -17.0375 N   0  0  0  0  0  0  0  0  0  0  0  0
   -1.2176  -53.7728  -16.4812 H   0  0  0  0  0  0  0  0  0  0  0  0
   -1.0203  -51.6164  -16.4514 C   0  0  0  0  0  0  0  0  0  0  0  0
   -2.1373  -51.1089  -15.9403 C   0  0  0  0  0  0  0  0  0  0  0  0
   -2.3268  -49.8176  -15.2896 C   0  0  0  0  0  0  0  0  0  0  0  0
   -1.4118  -48.9788  -15.1243 O   0  0  0  0  0  0  0  0  0  0  0  0
   -3.7321  -49.7345  -14.9027 C   0  0  0  0  0  0  0  0  0  0  0  0
   -4.3754  -50.8276  -15.2534 C   0  0  0  0  0  0  0  0  0  0  0  0
   -3.4450  -51.7377  -15.9102 C   0  0  0  0  0  0  0  0  0  0  0  0
   -3.7931  -52.8740  -16.3538 O   0  0  0  0  0  0  0  0  0  0  0  0
 10 11  1  0  0  0
 11 12  1  0  0  0
 11 13  1  0  0  0
 11  4  1  0  0  0
  4  5  2  0  0  0
  5  6  1  0  0  0
  6  7  2  0  0  0
  7  3  1  0  0  0
  3  2  1  0  0  0
  2  1  1  0  0  0
  1 14  1  0  0  0
 14 15  1  0  0  0
 15 16  1  0  0  0
 16 17  2  0  0  0
 17 18  1  0  0  0
 18 19  2  0  0  0
 19 20  1  0  0  0
 20 21  1  0  0  0
 20 22  2  0  0  0
  1 23  1  0  0  0
 23 24  1  0  0  0
 24 25  2  0  0  0
 24 26  1  0  0  0
 26 27  2  0  0  0
 27 28  1  0  0  0
 28 29  2  0  0  0
 29 32  1  0  0  0
 32 34  1  0  0  0
 34 35  2  0  0  0
 35 36  1  0  0  0
 36 37  2  0  0  0
 36 38  1  0  0  0
 38 39  2  0  0  0
 39 40  1  0  0  0
 40 41  2  0  0  0
 29 30  1  0  0  0
 30 31  2  0  0  0
  7  8  1  0  0  0
  8  9  2  0  0  0
  9  4  1  0  0  0
 19 15  1  0  0  0
 31 26  1  0  0  0
 40 35  1  0  0  0
 32 33  1  0  0  0
M  CHG 1  20   1
M  CHG 1  21  -1
M  END
> <minimizedAffinity>
-8.44044

> <CNNscore>
0.3537106514

> <CNNaffinity>
7.0907883644

> <CNN_VS>
2.5080873966

> <CNNaffinity_variance>
0.1270783246

$$$$
[H]C1=C([H])C(=O)C(=C([H])N([H])c2c([H])c([H])c(C(=O)O[C@]([H])(C([H])([H])Oc3c([H])c([H])c(C(C([H])([H])[H])(C([H])([H])[H])C([H])([H])[H])c([H])c3[H])C([H])([H])n3c([N+](=O)[O-])nc([H])c3[H])c([H])c2[H])C1=O


 41 44  0  0  0  0  0  0  0  0999 V2000
    0.1686  -53.1721  -24.7246 C   0  0  0  0  0  0  0  0  0  0  0  0
   -0.2280  -53.7064  -23.3366 C   0  0  0  0  0  0  0  0  0  0  0  0
   -0.7915  -52.6582  -22.5803 O   0  0  0  0  0  0  0  0  0  0  0  0
    1.0436  -50.9567  -19.2629 C   0  0  0  0  0  0  0  0  0  0  0  0
    0.5471  -50.2214  -20.2892 C   0  0  0  0  0  0  0  0  0  0  0  0
   -0.0630  -50.7717  -21.3938 C   0  0  0  0  0  0  0  0  0  0  0  0
   -0.1736  -52.1647  -21.4556 C   0  0  0  0  0  0  0  0  0  0  0  0
    0.3275  -52.9125  -20.4209 C   0  0  0  0  0  0  0  0  0  0  0  0
    0.9376  -52.3469  -19.3166 C   0  0  0  0  0  0  0  0  0  0  0  0
    0.7947  -50.4183  -16.8860 C   0  0  0  0  0  0  0  0  0  0  0  0
    1.6875  -50.2731  -18.1074 C   0  0  0  0  0  0  0  0  0  0  0  0
    1.8929  -48.8259  -18.4441 C   0  0  0  0  0  0  0  0  0  0  0  0
    3.0173  -50.9010  -17.8031 C   0  0  0  0  0  0  0  0  0  0  0  0
   -0.1577  -54.2399  -25.7391 C   0  0  0  0  0  0  0  0  0  0  0  0
   -0.0829  -53.6627  -27.0623 N   0  0  0  0  0  0  0  0  0  0  0  0
    0.9472  -53.7980  -27.9471 C   0  0  0  0  0  0  0  0  0  0  0  0
    0.6695  -53.1247  -29.0941 C   0  0  0  0  0  0  0  0  0  0  0  0
   -0.5290  -52.5732  -28.9227 N   0  0  0  0  0  0  0  0  0  0  0  0
   -0.9903  -52.8965  -27.6914 C   0  0  0  0  0  0  0  0  0  0  0  0
   -2.2494  -52.4579  -27.1989 N   0  0  0  0  0  0  0  0  0  0  0  0
   -2.3712  -51.6496  -26.1240 O   0  0  0  0  0  0  0  0  0  0  0  0
   -3.3094  -52.8326  -27.7775 O   0  0  0  0  0  0  0  0  0  0  0  0
    1.5845  -52.9753  -24.7919 O   0  0  0  0  0  0  0  0  0  0  0  0
    2.0786  -51.6698  -24.7573 C   0  0  0  0  0  0  0  0  0  0  0  0
    1.9009  -51.0147  -25.8513 O   0  0  0  0  0  0  0  0  0  0  0  0
    2.7370  -51.0483  -23.6331 C   0  0  0  0  0  0  0  0  0  0  0  0
    2.8177  -49.6698  -23.5895 C   0  0  0  0  0  0  0  0  0  0  0  0
    3.4468  -49.0741  -22.5275 C   0  0  0  0  0  0  0  0  0  0  0  0
    4.0182  -49.7931  -21.4722 C   0  0  0  0  0  0  0  0  0  0  0  0
    3.9314  -51.1664  -21.5258 C   0  0  0  0  0  0  0  0  0  0  0  0
    3.2873  -51.7570  -22.6151 C   0  0  0  0  0  0  0  0  0  0  0  0
    4.6546  -49.0975  -20.4011 N   0  0  0  0  0  0  0  0  0  0  0  0
    4.0727  -48.4023  -19.8647 H   0  0  0  0  0  0  0  0  0  0  0  0
    6.0011  -49.3580  -20.1051 C   0  0  0  0  0  0  0  0  0  0  0  0
    6.8793  -48.3684  -20.2321 C   0  0  0  0  0  0  0  0  0  0  0  0
    8.3165  -48.4002  -19.9867 C   0  0  0  0  0  0  0  0  0  0  0  0
    8.9371  -49.4197  -19.6075 O   0  0  0  0  0  0  0  0  0  0  0  0
    8.8289  -47.0620  -20.2661 C   0  0  0  0  0  0  0  0  0  0  0  0
    7.8550  -46.2615  -20.6432 C   0  0  0  0  0  0  0  0  0  0  0  0
    6.6015  -47.0061  -20.6481 C   0  0  0  0  0  0  0  0  0  0  0  0
    5.4925  -46.4822  -20.9718 O   0  0  0  0  0  0  0  0  0  0  0  0
 10 11  1  0  0  0
 11 12  1  0  0  0
 11 13  1  0  0  0
 11  4  1  0  0  0
  4  5  2  0  0  0
  5  6  1  0  0  0
  6  7  2  0  0  0
  7  3  1  0  0  0
  3  2  1  0  0  0
  2  1  1  0  0  0
  1 14  1  0  0  0
 14 15  1  0  0  0
 15 16  1  0  0  0
 16 17  2  0  0  0
 17 18  1  0  0  0
 18 19  2  0  0  0
 19 20  1  0  0  0
 20 21  1  0  0  0
 20 22  2  0  0  0
  1 23  1  0  0  0
 23 24  1  0  0  0
 24 25  2  0  0  0
 24 26  1  0  0  0
 26 27  2  0  0  0
 27 28  1  0  0  0
 28 29  2  0  0  0
 29 32  1  0  0  0
 32 34  1  0  0  0
 34 35  2  0  0  0
 35 36  1  0  0  0
 36 37  2  0  0  0
 36 38  1  0  0  0
 38 39  2  0  0  0
 39 40  1  0  0  0
 40 41  2  0  0  0
 29 30  1  0  0  0
 30 31  2  0  0  0
  7  8  1  0  0  0
  8  9  2  0  0  0
  9  4  1  0  0  0
 19 15  1  0  0  0
 31 26  1  0  0  0
 40 35  1  0  0  0
 32 33  1  0  0  0
M  CHG 1  20   1
M  CHG 1  21  -1
M  END
> <minimizedAffinity>
-7.21670

> <CNNscore>
0.3247149885

> <CNNaffinity>
6.9091310501

> <CNN_VS>
2.2434983253

> <CNNaffinity_variance>
0.1545176208

$$$$
[H]C1=C([H])C(=O)C(=C([H])N([H])c2c([H])c([H])c(C(=O)O[C@]([H])(C([H])([H])Oc3c([H])c([H])c(C(C([H])([H])[H])(C([H])([H])[H])C([H])([H])[H])c([H])c3[H])C([H])([H])n3c([N+](=O)[O-])nc([H])c3[H])c([H])c2[H])C1=O


 41 44  0  0  0  0  0  0  0  0999 V2000
    1.0817  -52.3577  -24.5745 C   0  0  0  0  0  0  0  0  0  0  0  0
    2.5132  -52.0192  -24.1211 C   0  0  0  0  0  0  0  0  0  0  0  0
    2.7895  -50.6708  -24.4268 O   0  0  0  0  0  0  0  0  0  0  0  0
    3.7281  -47.8304  -21.5426 C   0  0  0  0  0  0  0  0  0  0  0  0
    4.5948  -48.2077  -22.5155 C   0  0  0  0  0  0  0  0  0  0  0  0
    4.2973  -49.1471  -23.4769 C   0  0  0  0  0  0  0  0  0  0  0  0
    3.0313  -49.7411  -23.4432 C   0  0  0  0  0  0  0  0  0  0  0  0
    2.1518  -49.3635  -22.4611 C   0  0  0  0  0  0  0  0  0  0  0  0
    2.4632  -48.4180  -21.5016 C   0  0  0  0  0  0  0  0  0  0  0  0
    3.9698  -45.4235  -21.1555 C   0  0  0  0  0  0  0  0  0  0  0  0
    4.1382  -46.8047  -20.5441 C   0  0  0  0  0  0  0  0  0  0  0  0
    5.5675  -47.0409  -20.1550 C   0  0  0  0  0  0  0  0  0  0  0  0
    3.2739  -46.8923  -19.3191 C   0  0  0  0  0  0  0  0  0  0  0  0
    0.7632  -51.4982  -25.7727 C   0  0  0  0  0  0  0  0  0  0  0  0
    0.7139  -52.3384  -26.9479 N   0  0  0  0  0  0  0  0  0  0  0  0
    1.7846  -52.8338  -27.6339 C   0  0  0  0  0  0  0  0  0  0  0  0
    1.3601  -53.5894  -28.6803 C   0  0  0  0  0  0  0  0  0  0  0  0
    0.0305  -53.5638  -28.6444 N   0  0  0  0  0  0  0  0  0  0  0  0
   -0.3671  -52.8062  -27.5951 C   0  0  0  0  0  0  0  0  0  0  0  0
   -1.7346  -52.5776  -27.2819 N   0  0  0  0  0  0  0  0  0  0  0  0
   -2.1629  -52.3220  -26.0270 O   0  0  0  0  0  0  0  0  0  0  0  0
   -2.5992  -52.6137  -28.2037 O   0  0  0  0  0  0  0  0  0  0  0  0
    0.1425  -51.9921  -23.5586 O   0  0  0  0  0  0  0  0  0  0  0  0
   -0.4053  -53.0004  -22.7630 C   0  0  0  0  0  0  0  0  0  0  0  0
   -0.8000  -54.0319  -23.4248 O   0  0  0  0  0  0  0  0  0  0  0  0
   -0.5458  -52.9569  -21.3271 C   0  0  0  0  0  0  0  0  0  0  0  0
   -1.5568  -53.6898  -20.7360 C   0  0  0  0  0  0  0  0  0  0  0  0
   -1.6989  -53.6479  -19.3734 C   0  0  0  0  0  0  0  0  0  0  0  0
   -0.8666  -52.8955  -18.5378 C   0  0  0  0  0  0  0  0  0  0  0  0
    0.1380  -52.1693  -19.1377 C   0  0  0  0  0  0  0  0  0  0  0  0
    0.2684  -52.2231  -20.5270 C   0  0  0  0  0  0  0  0  0  0  0  0
   -1.0794  -52.9062  -17.1269 N   0  0  0  0  0  0  0  0  0  0  0  0
   -1.2167  -53.8441  -16.6673 H   0  0  0  0  0  0  0  0  0  0  0  0
   -1.0968  -51.6963  -16.4167 C   0  0  0  0  0  0  0  0  0  0  0  0
   -2.2507  -51.2802  -15.9047 C   0  0  0  0  0  0  0  0  0  0  0  0
   -2.5129  -50.0673  -15.1386 C   0  0  0  0  0  0  0  0  0  0  0  0
   -1.6369  -49.2189  -14.8539 O   0  0  0  0  0  0  0  0  0  0  0  0
   -3.9339  -50.0705  -14.8038 C   0  0  0  0  0  0  0  0  0  0  0  0
   -4.5220  -51.1442  -15.2865 C   0  0  0  0  0  0  0  0  0  0  0  0
   -3.5340  -51.9524  -15.9907 C   0  0  0  0  0  0  0  0  0  0  0  0
   -3.8222  -53.0499  -16.5578 O   0  0  0  0  0  0  0  0  0  0  0  0
 10 11  1  0  0  0
 11 12  1  0  0  0
 11 13  1  0  0  0
 11  4  1  0  0  0
  4  5  2  0  0  0
  5  6  1  0  0  0
  6  7  2  0  0  0
  7  3  1  0  0  0
  3  2  1  0  0  0
  2  1  1  0  0  0
  1 14  1  0  0  0
 14 15  1  0  0  0
 15 16  1  0  0  0
 16 17  2  0  0  0
 17 18  1  0  0  0
 18 19  2  0  0  0
 19 20  1  0  0  0
 20 21  1  0  0  0
 20 22  2  0  0  0
  1 23  1  0  0  0
 23 24  1  0  0  0
 24 25  2  0  0  0
 24 26  1  0  0  0
 26 27  2  0  0  0
 27 28  1  0  0  0
 28 29  2  0  0  0
 29 32  1  0  0  0
 32 34  1  0  0  0
 34 35  2  0  0  0
 35 36  1  0  0  0
 36 37  2  0  0  0
 36 38  1  0  0  0
 38 39  2  0  0  0
 39 40  1  0  0  0
 40 41  2  0  0  0
 29 30  1  0  0  0
 30 31  2  0  0  0
  7  8  1  0  0  0
  8  9  2  0  0  0
  9  4  1  0  0  0
 19 15  1  0  0  0
 31 26  1  0  0  0
 40 35  1  0  0  0
 32 33  1  0  0  0
M  CHG 1  20   1
M  CHG 1  21  -1
M  END
> <minimizedAffinity>
-7.96978

> <CNNscore>
0.2915169299

> <CNNaffinity>
6.9859657288

> <CNN_VS>
2.0365273952

> <CNNaffinity_variance>
0.0806120485

$$$$
[H]C1=C([H])C(=O)C(=C([H])N([H])c2c([H])c([H])c(C(=O)O[C@]([H])(C([H])([H])Oc3c([H])c([H])c(C(C([H])([H])[H])(C([H])([H])[H])C([H])([H])[H])c([H])c3[H])C([H])([H])n3c([N+](=O)[O-])nc([H])c3[H])c([H])c2[H])C1=O


 41 44  0  0  0  0  0  0  0  0999 V2000
    0.2055  -52.1415  -24.6336 C   0  0  0  0  0  0  0  0  0  0  0  0
    1.3233  -51.2120  -24.1275 C   0  0  0  0  0  0  0  0  0  0  0  0
    2.4151  -51.9927  -23.6957 O   0  0  0  0  0  0  0  0  0  0  0  0
    6.0319  -50.1796  -22.7475 C   0  0  0  0  0  0  0  0  0  0  0  0
    4.8664  -49.8697  -22.1263 C   0  0  0  0  0  0  0  0  0  0  0  0
    3.6614  -50.4621  -22.4302 C   0  0  0  0  0  0  0  0  0  0  0  0
    3.6445  -51.4352  -23.4349 C   0  0  0  0  0  0  0  0  0  0  0  0
    4.8200  -51.7515  -24.0664 C   0  0  0  0  0  0  0  0  0  0  0  0
    6.0239  -51.1492  -23.7509 C   0  0  0  0  0  0  0  0  0  0  0  0
    8.3200  -49.6616  -23.4530 C   0  0  0  0  0  0  0  0  0  0  0  0
    7.2882  -49.4857  -22.3510 C   0  0  0  0  0  0  0  0  0  0  0  0
    7.7861  -50.0683  -21.0616 C   0  0  0  0  0  0  0  0  0  0  0  0
    7.0374  -48.0170  -22.1629 C   0  0  0  0  0  0  0  0  0  0  0  0
   -0.4447  -51.4753  -25.8207 C   0  0  0  0  0  0  0  0  0  0  0  0
   -0.1739  -52.2629  -27.0021 N   0  0  0  0  0  0  0  0  0  0  0  0
    1.0505  -52.6925  -27.4251 C   0  0  0  0  0  0  0  0  0  0  0  0
    0.9229  -53.4134  -28.5697 C   0  0  0  0  0  0  0  0  0  0  0  0
   -0.3760  -53.4320  -28.8567 N   0  0  0  0  0  0  0  0  0  0  0  0
   -1.0463  -52.7354  -27.9087 C   0  0  0  0  0  0  0  0  0  0  0  0
   -2.4573  -52.5649  -27.9288 N   0  0  0  0  0  0  0  0  0  0  0  0
   -3.2604  -53.2288  -28.7877 O   0  0  0  0  0  0  0  0  0  0  0  0
   -2.9990  -51.7606  -27.1175 O   0  0  0  0  0  0  0  0  0  0  0  0
   -0.8155  -52.2728  -23.6395 O   0  0  0  0  0  0  0  0  0  0  0  0
   -0.5898  -53.1311  -22.5613 C   0  0  0  0  0  0  0  0  0  0  0  0
   -0.5271  -54.3749  -22.8878 O   0  0  0  0  0  0  0  0  0  0  0  0
   -0.4312  -52.7290  -21.1841 C   0  0  0  0  0  0  0  0  0  0  0  0
   -0.8871  -53.5722  -20.1892 C   0  0  0  0  0  0  0  0  0  0  0  0
   -0.7445  -53.1932  -18.8797 C   0  0  0  0  0  0  0  0  0  0  0  0
   -0.1555  -51.9856  -18.4900 C   0  0  0  0  0  0  0  0  0  0  0  0
    0.2958  -51.1533  -19.4900 C   0  0  0  0  0  0  0  0  0  0  0  0
    0.1424  -51.5547  -20.8187 C   0  0  0  0  0  0  0  0  0  0  0  0
   -0.0429  -51.6649  -17.1042 N   0  0  0  0  0  0  0  0  0  0  0  0
    0.9278  -51.6191  -16.6974 H   0  0  0  0  0  0  0  0  0  0  0  0
   -1.2009  -51.4257  -16.3490 C   0  0  0  0  0  0  0  0  0  0  0  0
   -1.3992  -50.2036  -15.8656 C   0  0  0  0  0  0  0  0  0  0  0  0
   -2.5152  -49.7221  -15.0596 C   0  0  0  0  0  0  0  0  0  0  0  0
   -3.4770  -50.4392  -14.7005 O   0  0  0  0  0  0  0  0  0  0  0  0
   -2.2688  -48.3092  -14.7868 C   0  0  0  0  0  0  0  0  0  0  0  0
   -1.1415  -47.9190  -15.3421 C   0  0  0  0  0  0  0  0  0  0  0  0
   -0.5363  -49.0493  -16.0362 C   0  0  0  0  0  0  0  0  0  0  0  0
    0.5622  -48.9615  -16.6645 O   0  0  0  0  0  0  0  0  0  0  0  0
 10 11  1  0  0  0
 11 12  1  0  0  0
 11 13  1  0  0  0
 11  4  1  0  0  0
  4  5  2  0  0  0
  5  6  1  0  0  0
  6  7  2  0  0  0
  7  3  1  0  0  0
  3  2  1  0  0  0
  2  1  1  0  0  0
  1 14  1  0  0  0
 14 15  1  0  0  0
 15 16  1  0  0  0
 16 17  2  0  0  0
 17 18  1  0  0  0
 18 19  2  0  0  0
 19 20  1  0  0  0
 20 21  1  0  0  0
 20 22  2  0  0  0
  1 23  1  0  0  0
 23 24  1  0  0  0
 24 25  2  0  0  0
 24 26  1  0  0  0
 26 27  2  0  0  0
 27 28  1  0  0  0
 28 29  2  0  0  0
 29 32  1  0  0  0
 32 34  1  0  0  0
 34 35  2  0  0  0
 35 36  1  0  0  0
 36 37  2  0  0  0
 36 38  1  0  0  0
 38 39  2  0  0  0
 39 40  1  0  0  0
 40 41  2  0  0  0
 29 30  1  0  0  0
 30 31  2  0  0  0
  7  8  1  0  0  0
  8  9  2  0  0  0
  9  4  1  0  0  0
 19 15  1  0  0  0
 31 26  1  0  0  0
 40 35  1  0  0  0
 32 33  1  0  0  0
M  CHG 1  20   1
M  CHG 1  21  -1
M  END
> <minimizedAffinity>
-8.01349

> <CNNscore>
0.2882278860

> <CNNaffinity>
6.8542814255

> <CNN_VS>
1.9755949974

> <CNNaffinity_variance>
0.0822963417

$$$$
[H]c1nc(N([H])c2c([H])c([H])c3c(c([H])nn3C([H])([H])c3c([H])c([H])c([H])c(F)c3[H])c2[H])c2c(C([H])([H])N3C([H])([H])C([H])([H])[C@]([H])(N([H])[H])C3([H])[H])c([H])c([H])n2n1


 37 42  0  0  0  0  0  0  0  0999 V2000
    0.1945  -51.8505  -22.8477 N   0  0  0  0  0  0  0  0  0  0  0  0
    0.4675  -51.0329  -23.3787 H   0  0  0  0  0  0  0  0  0  0  0  0
    0.8225  -52.7609  -25.7574 C   0  0  0  0  0  0  0  0  0  0  0  0
    0.7906  -53.6313  -26.8537 C   0  0  0  0  0  0  0  0  0  0  0  0
    0.0909  -54.7440  -26.4632 C   0  0  0  0  0  0  0  0  0  0  0  0
   -0.2938  -54.5848  -25.1979 N   0  0  0  0  0  0  0  0  0  0  0  0
   -0.9858  -55.4194  -24.4263 N   0  0  0  0  0  0  0  0  0  0  0  0
   -1.2857  -55.1030  -23.1506 C   0  0  0  0  0  0  0  0  0  0  0  0
   -0.8719  -53.9420  -22.6926 N   0  0  0  0  0  0  0  0  0  0  0  0
   -0.1705  -53.0675  -23.4360 C   0  0  0  0  0  0  0  0  0  0  0  0
    0.1432  -53.3887  -24.7595 C   0  0  0  0  0  0  0  0  0  0  0  0
    1.4726  -51.4334  -25.7168 C   0  0  0  0  0  0  0  0  0  0  0  0
    4.8375  -51.8794  -22.7560 N   0  0  0  0  0  0  0  0  0  0  0  0
    3.7414  -51.3487  -23.5731 C   0  0  0  0  0  0  0  0  0  0  0  0
    4.2382  -50.1161  -24.3246 C   0  0  0  0  0  0  0  0  0  0  0  0
    3.6099  -50.2765  -25.6686 C   0  0  0  0  0  0  0  0  0  0  0  0
    2.9216  -51.4967  -25.7336 N   0  0  0  0  0  0  0  0  0  0  0  0
    3.3694  -52.3209  -24.6618 C   0  0  0  0  0  0  0  0  0  0  0  0
    5.7063  -51.3103  -22.8862 H   0  0  0  0  0  0  0  0  0  0  0  0
    5.0344  -52.8462  -23.0884 H   0  0  0  0  0  0  0  0  0  0  0  0
    0.2146  -51.6638  -21.4184 C   0  0  0  0  0  0  0  0  0  0  0  0
   -0.3858  -52.6434  -20.6130 C   0  0  0  0  0  0  0  0  0  0  0  0
   -0.4561  -52.5446  -19.2446 C   0  0  0  0  0  0  0  0  0  0  0  0
    0.0799  -51.4426  -18.6050 C   0  0  0  0  0  0  0  0  0  0  0  0
    0.1496  -51.0975  -17.3051 N   0  0  0  0  0  0  0  0  0  0  0  0
    0.7766  -49.9286  -17.2718 N   0  0  0  0  0  0  0  0  0  0  0  0
    1.1086  -49.5166  -18.5035 C   0  0  0  0  0  0  0  0  0  0  0  0
    0.6679  -50.4813  -19.3894 C   0  0  0  0  0  0  0  0  0  0  0  0
    0.7426  -50.5760  -20.7877 C   0  0  0  0  0  0  0  0  0  0  0  0
   -0.3599  -51.8476  -16.1456 C   0  0  0  0  0  0  0  0  0  0  0  0
   -1.7466  -51.4539  -15.8978 C   0  0  0  0  0  0  0  0  0  0  0  0
   -2.0438  -50.2891  -15.2636 C   0  0  0  0  0  0  0  0  0  0  0  0
   -3.3811  -49.9900  -15.0657 C   0  0  0  0  0  0  0  0  0  0  0  0
   -4.3761  -50.8347  -15.4920 C   0  0  0  0  0  0  0  0  0  0  0  0
   -4.0657  -51.9993  -16.1264 C   0  0  0  0  0  0  0  0  0  0  0  0
   -5.0690  -52.8179  -16.5384 F   0  0  0  0  0  0  0  0  0  0  0  0
   -2.7497  -52.3159  -16.3332 C   0  0  0  0  0  0  0  0  0  0  0  0
 13 14  1  0  0  0
 14 15  1  0  0  0
 15 16  1  0  0  0
 16 17  1  0  0  0
 17 12  1  0  0  0
 12  3  1  0  0  0
  3  4  1  0  0  0
  4  5  2  0  0  0
  5  6  1  0  0  0
  6  7  1  0  0  0
  7  8  2  0  0  0
  8  9  1  0  0  0
  9 10  2  0  0  0
 10  1  1  0  0  0
  1 21  1  0  0  0
 21 22  2  0  0  0
 22 23  1  0  0  0
 23 24  2  0  0  0
 24 25  1  0  0  0
 25 30  1  0  0  0
 30 31  1  0  0  0
 31 32  2  0  0  0
 32 33  1  0  0  0
 33 34  2  0  0  0
 34 35  1  0  0  0
 35 36  1  0  0  0
 35 37  2  0  0  0
 25 26  1  0  0  0
 26 27  2  0  0  0
 27 28  1  0  0  0
 28 29  2  0  0  0
 10 11  1  0  0  0
 17 18  1  0  0  0
 18 14  1  0  0  0
 11  3  2  0  0  0
 11  6  1  0  0  0
 29 21  1  0  0  0
 28 24  1  0  0  0
 37 31  1  0  0  0
 13 19  1  0  0  0
 13 20  1  0  0  0
  1  2  1  0  0  0
M  END
> <minimizedAffinity>
-9.29540

> <CNNscore>
0.6060811281

> <CNNaffinity>
7.3763213158

> <CNN_VS>
4.4706492424

> <CNNaffinity_variance>
0.1064327583

$$$$
[H]c1nc(N([H])c2c([H])c([H])c3c(c([H])nn3C([H])([H])c3c([H])c([H])c([H])c(F)c3[H])c2[H])c2c(C([H])([H])N3C([H])([H])C([H])([H])[C@]([H])(N([H])[H])C3([H])[H])c([H])c([H])n2n1


 37 42  0  0  0  0  0  0  0  0999 V2000
    0.0596  -53.2567  -18.8061 N   0  0  0  0  0  0  0  0  0  0  0  0
    0.8963  -53.7590  -18.5370 H   0  0  0  0  0  0  0  0  0  0  0  0
    0.6041  -50.6220  -17.2403 C   0  0  0  0  0  0  0  0  0  0  0  0
    0.3121  -49.5983  -16.3308 C   0  0  0  0  0  0  0  0  0  0  0  0
   -0.9236  -49.8705  -15.8024 C   0  0  0  0  0  0  0  0  0  0  0  0
   -1.3826  -50.9965  -16.3466 N   0  0  0  0  0  0  0  0  0  0  0  0
   -2.5389  -51.6170  -16.1263 N   0  0  0  0  0  0  0  0  0  0  0  0
   -2.8538  -52.7557  -16.7757 C   0  0  0  0  0  0  0  0  0  0  0  0
   -1.9808  -53.2339  -17.6348 N   0  0  0  0  0  0  0  0  0  0  0  0
   -0.8005  -52.6408  -17.8888 C   0  0  0  0  0  0  0  0  0  0  0  0
   -0.4673  -51.4606  -17.2186 C   0  0  0  0  0  0  0  0  0  0  0  0
    1.8346  -50.7430  -18.0512 C   0  0  0  0  0  0  0  0  0  0  0  0
    2.3691  -48.6117  -21.9831 N   0  0  0  0  0  0  0  0  0  0  0  0
    2.5284  -49.5098  -20.8347 C   0  0  0  0  0  0  0  0  0  0  0  0
    3.9403  -49.3507  -20.2760 C   0  0  0  0  0  0  0  0  0  0  0  0
    3.7165  -49.3998  -18.8014 C   0  0  0  0  0  0  0  0  0  0  0  0
    2.3430  -49.4707  -18.5269 N   0  0  0  0  0  0  0  0  0  0  0  0
    1.6317  -49.0883  -19.7002 C   0  0  0  0  0  0  0  0  0  0  0  0
    3.2429  -48.0588  -22.1455 H   0  0  0  0  0  0  0  0  0  0  0  0
    1.6047  -47.9434  -21.7525 H   0  0  0  0  0  0  0  0  0  0  0  0
   -0.1796  -53.2204  -20.2272 C   0  0  0  0  0  0  0  0  0  0  0  0
   -0.1551  -51.9745  -20.8723 C   0  0  0  0  0  0  0  0  0  0  0  0
   -0.4078  -51.8235  -22.2142 C   0  0  0  0  0  0  0  0  0  0  0  0
   -0.7022  -52.9300  -22.9886 C   0  0  0  0  0  0  0  0  0  0  0  0
   -0.9833  -53.0673  -24.2985 N   0  0  0  0  0  0  0  0  0  0  0  0
   -1.1840  -54.3643  -24.4938 N   0  0  0  0  0  0  0  0  0  0  0  0
   -1.0411  -55.0580  -23.3557 C   0  0  0  0  0  0  0  0  0  0  0  0
   -0.7279  -54.1510  -22.3612 C   0  0  0  0  0  0  0  0  0  0  0  0
   -0.4710  -54.3120  -20.9909 C   0  0  0  0  0  0  0  0  0  0  0  0
   -1.0588  -52.0093  -25.3191 C   0  0  0  0  0  0  0  0  0  0  0  0
   -0.3500  -52.4554  -26.5183 C   0  0  0  0  0  0  0  0  0  0  0  0
    0.9895  -52.6843  -26.4985 C   0  0  0  0  0  0  0  0  0  0  0  0
    1.5859  -53.1027  -27.6759 C   0  0  0  0  0  0  0  0  0  0  0  0
    0.8566  -53.2819  -28.8254 C   0  0  0  0  0  0  0  0  0  0  0  0
   -0.4854  -53.0491  -28.8328 C   0  0  0  0  0  0  0  0  0  0  0  0
   -1.1842  -53.2340  -29.9834 F   0  0  0  0  0  0  0  0  0  0  0  0
   -1.0967  -52.6347  -27.6798 C   0  0  0  0  0  0  0  0  0  0  0  0
 13 14  1  0  0  0
 14 15  1  0  0  0
 15 16  1  0  0  0
 16 17  1  0  0  0
 17 12  1  0  0  0
 12  3  1  0  0  0
  3  4  1  0  0  0
  4  5  2  0  0  0
  5  6  1  0  0  0
  6  7  1  0  0  0
  7  8  2  0  0  0
  8  9  1  0  0  0
  9 10  2  0  0  0
 10  1  1  0  0  0
  1 21  1  0  0  0
 21 22  2  0  0  0
 22 23  1  0  0  0
 23 24  2  0  0  0
 24 25  1  0  0  0
 25 30  1  0  0  0
 30 31  1  0  0  0
 31 32  2  0  0  0
 32 33  1  0  0  0
 33 34  2  0  0  0
 34 35  1  0  0  0
 35 36  1  0  0  0
 35 37  2  0  0  0
 25 26  1  0  0  0
 26 27  2  0  0  0
 27 28  1  0  0  0
 28 29  2  0  0  0
 10 11  1  0  0  0
 17 18  1  0  0  0
 18 14  1  0  0  0
 11  3  2  0  0  0
 11  6  1  0  0  0
 29 21  1  0  0  0
 28 24  1  0  0  0
 37 31  1  0  0  0
 13 19  1  0  0  0
 13 20  1  0  0  0
  1  2  1  0  0  0
M  END
> <minimizedAffinity>
-9.16983

> <CNNscore>
0.4547320008

> <CNNaffinity>
7.2458734512

> <CNN_VS>
3.2949304581

> <CNNaffinity_variance>
0.0568635240

$$$$
[H]c1nc(N([H])c2c([H])c([H])c3c(c([H])nn3C([H])([H])c3c([H])c([H])c([H])c(F)c3[H])c2[H])c2c(C([H])([H])N3C([H])([H])C([H])([H])[C@]([H])(N([H])[H])C3([H])[H])c([H])c([H])n2n1


 37 42  0  0  0  0  0  0  0  0999 V2000
   -0.6707  -52.2025  -16.8688 N   0  0  0  0  0  0  0  0  0  0  0  0
    0.1205  -52.4180  -16.2752 H   0  0  0  0  0  0  0  0  0  0  0  0
   -1.1251  -49.3895  -15.6156 C   0  0  0  0  0  0  0  0  0  0  0  0
   -1.8722  -48.3698  -15.0135 C   0  0  0  0  0  0  0  0  0  0  0  0
   -3.1565  -48.8334  -14.8876 C   0  0  0  0  0  0  0  0  0  0  0  0
   -3.2151  -50.0694  -15.3810 N   0  0  0  0  0  0  0  0  0  0  0  0
   -4.2641  -50.8838  -15.4652 N   0  0  0  0  0  0  0  0  0  0  0  0
   -4.1509  -52.1128  -16.0076 C   0  0  0  0  0  0  0  0  0  0  0  0
   -2.9693  -52.4813  -16.4513 N   0  0  0  0  0  0  0  0  0  0  0  0
   -1.8820  -51.6920  -16.3868 C   0  0  0  0  0  0  0  0  0  0  0  0
   -1.9922  -50.4170  -15.8250 C   0  0  0  0  0  0  0  0  0  0  0  0
    0.3145  -49.3349  -15.9491 C   0  0  0  0  0  0  0  0  0  0  0  0
    4.5452  -48.4204  -14.7028 N   0  0  0  0  0  0  0  0  0  0  0  0
    3.3590  -48.9994  -15.3421 C   0  0  0  0  0  0  0  0  0  0  0  0
    3.3512  -50.5060  -15.0953 C   0  0  0  0  0  0  0  0  0  0  0  0
    1.9100  -50.7869  -14.8290 C   0  0  0  0  0  0  0  0  0  0  0  0
    1.1824  -49.5880  -14.8149 N   0  0  0  0  0  0  0  0  0  0  0  0
    2.1010  -48.5085  -14.6748 C   0  0  0  0  0  0  0  0  0  0  0  0
    5.1005  -49.1601  -14.2128 H   0  0  0  0  0  0  0  0  0  0  0  0
    4.2133  -47.7412  -13.9869 H   0  0  0  0  0  0  0  0  0  0  0  0
   -0.4496  -52.4615  -18.2696 C   0  0  0  0  0  0  0  0  0  0  0  0
    0.5644  -51.7461  -18.9245 C   0  0  0  0  0  0  0  0  0  0  0  0
    0.8323  -51.8880  -20.2644 C   0  0  0  0  0  0  0  0  0  0  0  0
    0.0863  -52.7673  -21.0267 C   0  0  0  0  0  0  0  0  0  0  0  0
    0.1337  -53.0966  -22.3317 N   0  0  0  0  0  0  0  0  0  0  0  0
   -0.8222  -53.9984  -22.5146 N   0  0  0  0  0  0  0  0  0  0  0  0
   -1.4769  -54.2553  -21.3734 C   0  0  0  0  0  0  0  0  0  0  0  0
   -0.9073  -53.4690  -20.3900 C   0  0  0  0  0  0  0  0  0  0  0  0
   -1.1863  -53.3283  -19.0218 C   0  0  0  0  0  0  0  0  0  0  0  0
    1.0486  -52.5742  -23.3597 C   0  0  0  0  0  0  0  0  0  0  0  0
    0.3916  -52.6535  -24.6642 C   0  0  0  0  0  0  0  0  0  0  0  0
   -0.5015  -51.7085  -25.0598 C   0  0  0  0  0  0  0  0  0  0  0  0
   -1.0811  -51.8569  -26.3084 C   0  0  0  0  0  0  0  0  0  0  0  0
   -0.7696  -52.9178  -27.1226 C   0  0  0  0  0  0  0  0  0  0  0  0
    0.1271  -53.8585  -26.7150 C   0  0  0  0  0  0  0  0  0  0  0  0
    0.4181  -54.8986  -27.5396 F   0  0  0  0  0  0  0  0  0  0  0  0
    0.7130  -53.7322  -25.4838 C   0  0  0  0  0  0  0  0  0  0  0  0
 13 14  1  0  0  0
 14 15  1  0  0  0
 15 16  1  0  0  0
 16 17  1  0  0  0
 17 12  1  0  0  0
 12  3  1  0  0  0
  3  4  1  0  0  0
  4  5  2  0  0  0
  5  6  1  0  0  0
  6  7  1  0  0  0
  7  8  2  0  0  0
  8  9  1  0  0  0
  9 10  2  0  0  0
 10  1  1  0  0  0
  1 21  1  0  0  0
 21 22  2  0  0  0
 22 23  1  0  0  0
 23 24  2  0  0  0
 24 25  1  0  0  0
 25 30  1  0  0  0
 30 31  1  0  0  0
 31 32  2  0  0  0
 32 33  1  0  0  0
 33 34  2  0  0  0
 34 35  1  0  0  0
 35 36  1  0  0  0
 35 37  2  0  0  0
 25 26  1  0  0  0
 26 27  2  0  0  0
 27 28  1  0  0  0
 28 29  2  0  0  0
 10 11  1  0  0  0
 17 18  1  0  0  0
 18 14  1  0  0  0
 11  3  2  0  0  0
 11  6  1  0  0  0
 29 21  1  0  0  0
 28 24  1  0  0  0
 37 31  1  0  0  0
 13 19  1  0  0  0
 13 20  1  0  0  0
  1  2  1  0  0  0
M  END
> <minimizedAffinity>
-8.63354

> <CNNscore>
0.4001075327

> <CNNaffinity>
6.8783378601

> <CNN_VS>
2.7520747185

> <CNNaffinity_variance>
0.1591648757

$$$$
[H]c1nc(N([H])c2c([H])c([H])c3c(c([H])nn3C([H])([H])c3c([H])c([H])c([H])c(F)c3[H])c2[H])c2c(C([H])([H])N3C([H])([H])C([H])([H])[C@]([H])(N([H])[H])C3([H])[H])c([H])c([H])n2n1


 37 42  0  0  0  0  0  0  0  0999 V2000
   -0.0617  -52.9187  -17.9902 N   0  0  0  0  0  0  0  0  0  0  0  0
    0.8201  -53.2527  -17.6219 H   0  0  0  0  0  0  0  0  0  0  0  0
    0.0618  -50.9811  -15.5572 C   0  0  0  0  0  0  0  0  0  0  0  0
   -0.4589  -50.2650  -14.4724 C   0  0  0  0  0  0  0  0  0  0  0  0
   -1.7995  -50.5467  -14.4113 C   0  0  0  0  0  0  0  0  0  0  0  0
   -2.1049  -51.3882  -15.3978 N   0  0  0  0  0  0  0  0  0  0  0  0
   -3.2878  -51.9117  -15.7098 N   0  0  0  0  0  0  0  0  0  0  0  0
   -3.4253  -52.7486  -16.7576 C   0  0  0  0  0  0  0  0  0  0  0  0
   -2.3518  -53.0312  -17.4624 N   0  0  0  0  0  0  0  0  0  0  0  0
   -1.1367  -52.5258  -17.1838 C   0  0  0  0  0  0  0  0  0  0  0  0
   -0.9869  -51.6582  -16.0985 C   0  0  0  0  0  0  0  0  0  0  0  0
    1.4709  -50.9819  -16.0055 C   0  0  0  0  0  0  0  0  0  0  0  0
    4.8029  -49.2935  -18.5225 N   0  0  0  0  0  0  0  0  0  0  0  0
    3.7311  -49.4660  -17.5365 C   0  0  0  0  0  0  0  0  0  0  0  0
    2.6874  -48.3715  -17.7456 C   0  0  0  0  0  0  0  0  0  0  0  0
    1.4017  -49.1021  -17.5450 C   0  0  0  0  0  0  0  0  0  0  0  0
    1.6520  -50.4682  -17.3498 N   0  0  0  0  0  0  0  0  0  0  0  0
    2.9790  -50.7470  -17.7857 C   0  0  0  0  0  0  0  0  0  0  0  0
    4.6022  -48.4800  -19.1499 H   0  0  0  0  0  0  0  0  0  0  0  0
    4.8279  -50.1530  -19.1095 H   0  0  0  0  0  0  0  0  0  0  0  0
   -0.1249  -52.8743  -19.4297 C   0  0  0  0  0  0  0  0  0  0  0  0
   -0.7679  -53.9272  -20.0983 C   0  0  0  0  0  0  0  0  0  0  0  0
   -0.8505  -54.0022  -21.4675 C   0  0  0  0  0  0  0  0  0  0  0  0
   -0.2843  -53.0111  -22.2472 C   0  0  0  0  0  0  0  0  0  0  0  0
   -0.2194  -52.8373  -23.5811 N   0  0  0  0  0  0  0  0  0  0  0  0
    0.4465  -51.7052  -23.7688 N   0  0  0  0  0  0  0  0  0  0  0  0
    0.8083  -51.1517  -22.6028 C   0  0  0  0  0  0  0  0  0  0  0  0
    0.3463  -51.9794  -21.5972 C   0  0  0  0  0  0  0  0  0  0  0  0
    0.4345  -51.8969  -20.1989 C   0  0  0  0  0  0  0  0  0  0  0  0
   -0.7666  -53.7121  -24.6310 C   0  0  0  0  0  0  0  0  0  0  0  0
   -0.1255  -53.3837  -25.9040 C   0  0  0  0  0  0  0  0  0  0  0  0
    1.2164  -53.5196  -26.0707 C   0  0  0  0  0  0  0  0  0  0  0  0
    1.7462  -53.1858  -27.3055 C   0  0  0  0  0  0  0  0  0  0  0  0
    0.9506  -52.7334  -28.3291 C   0  0  0  0  0  0  0  0  0  0  0  0
   -0.3931  -52.6014  -28.1500 C   0  0  0  0  0  0  0  0  0  0  0  0
   -1.1583  -52.1516  -29.1789 F   0  0  0  0  0  0  0  0  0  0  0  0
   -0.9392  -52.9257  -26.9369 C   0  0  0  0  0  0  0  0  0  0  0  0
 13 14  1  0  0  0
 14 15  1  0  0  0
 15 16  1  0  0  0
 16 17  1  0  0  0
 17 12  1  0  0  0
 12  3  1  0  0  0
  3  4  1  0  0  0
  4  5  2  0  0  0
  5  6  1  0  0  0
  6  7  1  0  0  0
  7  8  2  0  0  0
  8  9  1  0  0  0
  9 10  2  0  0  0
 10  1  1  0  0  0
  1 21  1  0  0  0
 21 22  2  0  0  0
 22 23  1  0  0  0
 23 24  2  0  0  0
 24 25  1  0  0  0
 25 30  1  0  0  0
 30 31  1  0  0  0
 31 32  2  0  0  0
 32 33  1  0  0  0
 33 34  2  0  0  0
 34 35  1  0  0  0
 35 36  1  0  0  0
 35 37  2  0  0  0
 25 26  1  0  0  0
 26 27  2  0  0  0
 27 28  1  0  0  0
 28 29  2  0  0  0
 10 11  1  0  0  0
 17 18  1  0  0  0
 18 14  1  0  0  0
 11  3  2  0  0  0
 11  6  1  0  0  0
 29 21  1  0  0  0
 28 24  1  0  0  0
 37 31  1  0  0  0
 13 19  1  0  0  0
 13 20  1  0  0  0
  1  2  1  0  0  0
M  END
> <minimizedAffinity>
-8.19910

> <CNNscore>
0.3411831856

> <CNNaffinity>
6.9873595238

> <CNN_VS>
2.3839695454

> <CNNaffinity_variance>
0.0373636112

$$$$
[H]c1nc(N([H])c2c([H])c([H])c3c(c([H])nn3C([H])([H])c3c([H])c([H])c([H])c(F)c3[H])c2[H])c2c(C([H])([H])N3C([H])([H])C([H])([H])[C@]([H])(N([H])[H])C3([H])[H])c([H])c([H])n2n1


 37 42  0  0  0  0  0  0  0  0999 V2000
    0.7525  -50.6816  -20.6864 N   0  0  0  0  0  0  0  0  0  0  0  0
    1.0416  -49.7131  -20.7433 H   0  0  0  0  0  0  0  0  0  0  0  0
    1.1871  -49.6951  -17.7662 C   0  0  0  0  0  0  0  0  0  0  0  0
    1.0482  -49.7396  -16.3736 C   0  0  0  0  0  0  0  0  0  0  0  0
    0.2760  -50.8344  -16.0815 C   0  0  0  0  0  0  0  0  0  0  0  0
   -0.0523  -51.4421  -17.2206 N   0  0  0  0  0  0  0  0  0  0  0  0
   -0.7940  -52.5323  -17.3993 N   0  0  0  0  0  0  0  0  0  0  0  0
   -1.0391  -53.0141  -18.6343 C   0  0  0  0  0  0  0  0  0  0  0  0
   -0.5213  -52.3713  -19.6578 N   0  0  0  0  0  0  0  0  0  0  0  0
    0.2340  -51.2662  -19.5246 C   0  0  0  0  0  0  0  0  0  0  0  0
    0.4927  -50.7619  -18.2472 C   0  0  0  0  0  0  0  0  0  0  0  0
    1.9396  -48.6808  -18.5353 C   0  0  0  0  0  0  0  0  0  0  0  0
    5.3573  -48.6222  -21.4685 N   0  0  0  0  0  0  0  0  0  0  0  0
    4.1737  -49.0062  -20.6924 C   0  0  0  0  0  0  0  0  0  0  0  0
    4.4250  -50.3685  -20.0506 C   0  0  0  0  0  0  0  0  0  0  0  0
    3.8244  -50.2075  -18.6941 C   0  0  0  0  0  0  0  0  0  0  0  0
    3.3747  -48.8902  -18.5221 N   0  0  0  0  0  0  0  0  0  0  0  0
    3.9786  -48.0767  -19.5233 C   0  0  0  0  0  0  0  0  0  0  0  0
    6.1036  -49.3522  -21.3921 H   0  0  0  0  0  0  0  0  0  0  0  0
    5.7275  -47.7405  -21.0568 H   0  0  0  0  0  0  0  0  0  0  0  0
    0.9143  -51.4222  -21.9125 C   0  0  0  0  0  0  0  0  0  0  0  0
   -0.1723  -52.1772  -22.3797 C   0  0  0  0  0  0  0  0  0  0  0  0
   -0.1121  -52.9488  -23.5148 C   0  0  0  0  0  0  0  0  0  0  0  0
    1.0574  -53.0033  -24.2496 C   0  0  0  0  0  0  0  0  0  0  0  0
    1.3862  -53.6625  -25.3771 N   0  0  0  0  0  0  0  0  0  0  0  0
    2.6488  -53.3428  -25.6306 N   0  0  0  0  0  0  0  0  0  0  0  0
    3.1360  -52.5041  -24.7054 C   0  0  0  0  0  0  0  0  0  0  0  0
    2.1232  -52.2665  -23.7957 C   0  0  0  0  0  0  0  0  0  0  0  0
    2.0685  -51.4767  -22.6369 C   0  0  0  0  0  0  0  0  0  0  0  0
    0.5355  -54.5586  -26.1771 C   0  0  0  0  0  0  0  0  0  0  0  0
   -0.0871  -53.7870  -27.2525 C   0  0  0  0  0  0  0  0  0  0  0  0
    0.5385  -53.6144  -28.4466 C   0  0  0  0  0  0  0  0  0  0  0  0
   -0.1170  -52.8691  -29.4119 C   0  0  0  0  0  0  0  0  0  0  0  0
   -1.3542  -52.3215  -29.1782 C   0  0  0  0  0  0  0  0  0  0  0  0
   -1.9712  -52.5014  -27.9773 C   0  0  0  0  0  0  0  0  0  0  0  0
   -3.1954  -51.9490  -27.7713 F   0  0  0  0  0  0  0  0  0  0  0  0
   -1.3417  -53.2350  -27.0075 C   0  0  0  0  0  0  0  0  0  0  0  0
 13 14  1  0  0  0
 14 15  1  0  0  0
 15 16  1  0  0  0
 16 17  1  0  0  0
 17 12  1  0  0  0
 12  3  1  0  0  0
  3  4  1  0  0  0
  4  5  2  0  0  0
  5  6  1  0  0  0
  6  7  1  0  0  0
  7  8  2  0  0  0
  8  9  1  0  0  0
  9 10  2  0  0  0
 10  1  1  0  0  0
  1 21  1  0  0  0
 21 22  2  0  0  0
 22 23  1  0  0  0
 23 24  2  0  0  0
 24 25  1  0  0  0
 25 30  1  0  0  0
 30 31  1  0  0  0
 31 32  2  0  0  0
 32 33  1  0  0  0
 33 34  2  0  0  0
 34 35  1  0  0  0
 35 36  1  0  0  0
 35 37  2  0  0  0
 25 26  1  0  0  0
 26 27  2  0  0  0
 27 28  1  0  0  0
 28 29  2  0  0  0
 10 11  1  0  0  0
 17 18  1  0  0  0
 18 14  1  0  0  0
 11  3  2  0  0  0
 11  6  1  0  0  0
 29 21  1  0  0  0
 28 24  1  0  0  0
 37 31  1  0  0  0
 13 19  1  0  0  0
 13 20  1  0  0  0
  1  2  1  0  0  0
M  END
> <minimizedAffinity>
-8.45763

> <CNNscore>
0.3040090799

> <CNNaffinity>
7.1603598595

> <CNN_VS>
2.1768143177

> <CNNaffinity_variance>
0.1402607709

$$$$
[H]c1nc(N([H])c2c([H])c([H])c3c(c([H])nn3C([H])([H])c3c([H])c([H])c([H])c(F)c3[H])c2[H])c2c(C([H])([H])N3C([H])([H])C([H])([H])[C@]([H])(N([H])[H])C3([H])[H])c([H])c([H])n2n1


 37 42  0  0  0  0  0  0  0  0999 V2000
    0.3845  -52.0217  -18.6488 N   0  0  0  0  0  0  0  0  0  0  0  0
    1.3613  -51.8532  -18.4433 H   0  0  0  0  0  0  0  0  0  0  0  0
   -0.0761  -49.6296  -16.7110 C   0  0  0  0  0  0  0  0  0  0  0  0
   -0.7207  -48.9291  -15.6842 C   0  0  0  0  0  0  0  0  0  0  0  0
   -1.7637  -49.7105  -15.2579 C   0  0  0  0  0  0  0  0  0  0  0  0
   -1.7761  -50.8342  -15.9731 N   0  0  0  0  0  0  0  0  0  0  0  0
   -2.6184  -51.8615  -15.8959 N   0  0  0  0  0  0  0  0  0  0  0  0
   -2.4931  -52.9286  -16.7101 C   0  0  0  0  0  0  0  0  0  0  0  0
   -1.5108  -52.9217  -17.5842 N   0  0  0  0  0  0  0  0  0  0  0  0
   -0.6363  -51.9059  -17.6976 C   0  0  0  0  0  0  0  0  0  0  0  0
   -0.7599  -50.7970  -16.8561 C   0  0  0  0  0  0  0  0  0  0  0  0
    1.1061  -49.1701  -17.4712 C   0  0  0  0  0  0  0  0  0  0  0  0
    5.5134  -48.8671  -18.3494 N   0  0  0  0  0  0  0  0  0  0  0  0
    4.1187  -49.3148  -18.2796 C   0  0  0  0  0  0  0  0  0  0  0  0
    4.0816  -50.7249  -17.6956 C   0  0  0  0  0  0  0  0  0  0  0  0
    2.8909  -50.6765  -16.7975 C   0  0  0  0  0  0  0  0  0  0  0  0
    2.3607  -49.3783  -16.7738 N   0  0  0  0  0  0  0  0  0  0  0  0
    3.3414  -48.4847  -17.2919 C   0  0  0  0  0  0  0  0  0  0  0  0
    6.1575  -49.6000  -17.9704 H   0  0  0  0  0  0  0  0  0  0  0  0
    5.6000  -48.0217  -17.7478 H   0  0  0  0  0  0  0  0  0  0  0  0
    0.1211  -52.3916  -20.0170 C   0  0  0  0  0  0  0  0  0  0  0  0
    0.3354  -51.4306  -21.0169 C   0  0  0  0  0  0  0  0  0  0  0  0
    0.0794  -51.6663  -22.3459 C   0  0  0  0  0  0  0  0  0  0  0  0
   -0.4115  -52.8951  -22.7456 C   0  0  0  0  0  0  0  0  0  0  0  0
   -0.7422  -53.3859  -23.9554 N   0  0  0  0  0  0  0  0  0  0  0  0
   -1.1585  -54.6277  -23.7431 N   0  0  0  0  0  0  0  0  0  0  0  0
   -1.1050  -54.9456  -22.4419 C   0  0  0  0  0  0  0  0  0  0  0  0
   -0.6232  -53.8380  -21.7704 C   0  0  0  0  0  0  0  0  0  0  0  0
   -0.3642  -53.6036  -20.4111 C   0  0  0  0  0  0  0  0  0  0  0  0
   -0.6664  -52.7015  -25.2564 C   0  0  0  0  0  0  0  0  0  0  0  0
    0.7252  -52.3364  -25.5201 C   0  0  0  0  0  0  0  0  0  0  0  0
    1.6984  -53.2824  -25.5920 C   0  0  0  0  0  0  0  0  0  0  0  0
    2.9910  -52.8547  -25.8432 C   0  0  0  0  0  0  0  0  0  0  0  0
    3.2862  -51.5247  -26.0144 C   0  0  0  0  0  0  0  0  0  0  0  0
    2.3022  -50.5858  -25.9400 C   0  0  0  0  0  0  0  0  0  0  0  0
    2.6207  -49.2762  -26.1132 F   0  0  0  0  0  0  0  0  0  0  0  0
    1.0163  -50.9857  -25.6925 C   0  0  0  0  0  0  0  0  0  0  0  0
 13 14  1  0  0  0
 14 15  1  0  0  0
 15 16  1  0  0  0
 16 17  1  0  0  0
 17 12  1  0  0  0
 12  3  1  0  0  0
  3  4  1  0  0  0
  4  5  2  0  0  0
  5  6  1  0  0  0
  6  7  1  0  0  0
  7  8  2  0  0  0
  8  9  1  0  0  0
  9 10  2  0  0  0
 10  1  1  0  0  0
  1 21  1  0  0  0
 21 22  2  0  0  0
 22 23  1  0  0  0
 23 24  2  0  0  0
 24 25  1  0  0  0
 25 30  1  0  0  0
 30 31  1  0  0  0
 31 32  2  0  0  0
 32 33  1  0  0  0
 33 34  2  0  0  0
 34 35  1  0  0  0
 35 36  1  0  0  0
 35 37  2  0  0  0
 25 26  1  0  0  0
 26 27  2  0  0  0
 27 28  1  0  0  0
 28 29  2  0  0  0
 10 11  1  0  0  0
 17 18  1  0  0  0
 18 14  1  0  0  0
 11  3  2  0  0  0
 11  6  1  0  0  0
 29 21  1  0  0  0
 28 24  1  0  0  0
 37 31  1  0  0  0
 13 19  1  0  0  0
 13 20  1  0  0  0
  1  2  1  0  0  0
M  END
> <minimizedAffinity>
-8.21955

> <CNNscore>
0.2821501195

> <CNNaffinity>
6.8796133995

> <CNN_VS>
1.9410837889

> <CNNaffinity_variance>
0.0984798446

$$$$
[H]c1nc(N([H])c2c([H])c([H])c3c(c([H])nn3C([H])([H])c3c([H])c([H])c([H])c(F)c3[H])c2[H])c2c(C([H])([H])N3C([H])([H])C([H])([H])[C@]([H])(N([H])[H])C3([H])[H])c([H])c([H])n2n1


 37 42  0  0  0  0  0  0  0  0999 V2000
   -0.9878  -52.5732  -16.8760 N   0  0  0  0  0  0  0  0  0  0  0  0
   -0.3018  -53.0475  -16.3021 H   0  0  0  0  0  0  0  0  0  0  0  0
   -1.3605  -49.9072  -15.3130 C   0  0  0  0  0  0  0  0  0  0  0  0
   -2.0828  -48.9287  -14.6191 C   0  0  0  0  0  0  0  0  0  0  0  0
   -3.3910  -49.3386  -14.5920 C   0  0  0  0  0  0  0  0  0  0  0  0
   -3.4872  -50.5037  -15.2306 N   0  0  0  0  0  0  0  0  0  0  0  0
   -4.5686  -51.2487  -15.4459 N   0  0  0  0  0  0  0  0  0  0  0  0
   -4.4910  -52.4098  -16.1264 C   0  0  0  0  0  0  0  0  0  0  0  0
   -3.3113  -52.7829  -16.5713 N   0  0  0  0  0  0  0  0  0  0  0  0
   -2.1921  -52.0623  -16.3772 C   0  0  0  0  0  0  0  0  0  0  0  0
   -2.2652  -50.8580  -15.6718 C   0  0  0  0  0  0  0  0  0  0  0  0
    0.0920  -49.8865  -15.5895 C   0  0  0  0  0  0  0  0  0  0  0  0
    4.3655  -49.4728  -14.2280 N   0  0  0  0  0  0  0  0  0  0  0  0
    3.1407  -49.8959  -14.9147 C   0  0  0  0  0  0  0  0  0  0  0  0
    2.9729  -51.4034  -14.7405 C   0  0  0  0  0  0  0  0  0  0  0  0
    1.5050  -51.5456  -14.5128 C   0  0  0  0  0  0  0  0  0  0  0  0
    0.9041  -50.2797  -14.4540 N   0  0  0  0  0  0  0  0  0  0  0  0
    1.9252  -49.3087  -14.2464 C   0  0  0  0  0  0  0  0  0  0  0  0
    4.8311  -50.2876  -13.7645 H   0  0  0  0  0  0  0  0  0  0  0  0
    4.0893  -48.7964  -13.4862 H   0  0  0  0  0  0  0  0  0  0  0  0
   -0.6220  -52.4590  -18.2657 C   0  0  0  0  0  0  0  0  0  0  0  0
    0.1576  -51.3603  -18.6583 C   0  0  0  0  0  0  0  0  0  0  0  0
    0.5285  -51.1358  -19.9619 C   0  0  0  0  0  0  0  0  0  0  0  0
    0.1310  -52.0143  -20.9523 C   0  0  0  0  0  0  0  0  0  0  0  0
    0.3481  -52.0360  -22.2812 N   0  0  0  0  0  0  0  0  0  0  0  0
   -0.2736  -53.1172  -22.7341 N   0  0  0  0  0  0  0  0  0  0  0  0
   -0.8789  -53.7848  -21.7417 C   0  0  0  0  0  0  0  0  0  0  0  0
   -0.6324  -53.0904  -20.5726 C   0  0  0  0  0  0  0  0  0  0  0  0
   -1.0151  -53.3252  -19.2429 C   0  0  0  0  0  0  0  0  0  0  0  0
    1.1130  -51.0685  -23.0848 C   0  0  0  0  0  0  0  0  0  0  0  0
    2.4703  -51.5789  -23.2765 C   0  0  0  0  0  0  0  0  0  0  0  0
    2.7874  -52.3447  -24.3536 C   0  0  0  0  0  0  0  0  0  0  0  0
    4.0939  -52.7901  -24.4612 C   0  0  0  0  0  0  0  0  0  0  0  0
    5.0400  -52.4736  -23.5177 C   0  0  0  0  0  0  0  0  0  0  0  0
    4.7099  -51.7052  -22.4425 C   0  0  0  0  0  0  0  0  0  0  0  0
    5.6648  -51.4062  -21.5231 F   0  0  0  0  0  0  0  0  0  0  0  0
    3.4237  -51.2533  -22.3154 C   0  0  0  0  0  0  0  0  0  0  0  0
 13 14  1  0  0  0
 14 15  1  0  0  0
 15 16  1  0  0  0
 16 17  1  0  0  0
 17 12  1  0  0  0
 12  3  1  0  0  0
  3  4  1  0  0  0
  4  5  2  0  0  0
  5  6  1  0  0  0
  6  7  1  0  0  0
  7  8  2  0  0  0
  8  9  1  0  0  0
  9 10  2  0  0  0
 10  1  1  0  0  0
  1 21  1  0  0  0
 21 22  2  0  0  0
 22 23  1  0  0  0
 23 24  2  0  0  0
 24 25  1  0  0  0
 25 30  1  0  0  0
 30 31  1  0  0  0
 31 32  2  0  0  0
 32 33  1  0  0  0
 33 34  2  0  0  0
 34 35  1  0  0  0
 35 36  1  0  0  0
 35 37  2  0  0  0
 25 26  1  0  0  0
 26 27  2  0  0  0
 27 28  1  0  0  0
 28 29  2  0  0  0
 10 11  1  0  0  0
 17 18  1  0  0  0
 18 14  1  0  0  0
 11  3  2  0  0  0
 11  6  1  0  0  0
 29 21  1  0  0  0
 28 24  1  0  0  0
 37 31  1  0  0  0
 13 19  1  0  0  0
 13 20  1  0  0  0
  1  2  1  0  0  0
M  END
> <minimizedAffinity>
-8.27832

> <CNNscore>
0.2504783869

> <CNNaffinity>
6.7481255531

> <CNN_VS>
1.6902595758

> <CNNaffinity_variance>
0.0925064459

$$$$
[H]c1nc(N([H])c2c([H])c([H])c3c(c([H])nn3C([H])([H])c3c([H])c([H])c([H])c(F)c3[H])c2[H])c2c(C([H])([H])N3C([H])([H])C([H])([H])[C@]([H])(N([H])[H])C3([H])[H])c([H])c([H])n2n1


 37 42  0  0  0  0  0  0  0  0999 V2000
    1.9028  -52.3674  -22.7427 N   0  0  0  0  0  0  0  0  0  0  0  0
    2.9054  -52.4977  -22.6917 H   0  0  0  0  0  0  0  0  0  0  0  0
    3.0950  -52.4647  -25.6166 C   0  0  0  0  0  0  0  0  0  0  0  0
    3.0443  -52.4846  -27.0157 C   0  0  0  0  0  0  0  0  0  0  0  0
    1.7205  -52.4435  -27.3705 C   0  0  0  0  0  0  0  0  0  0  0  0
    0.9821  -52.4013  -26.2625 N   0  0  0  0  0  0  0  0  0  0  0  0
   -0.3428  -52.3605  -26.1455 N   0  0  0  0  0  0  0  0  0  0  0  0
   -0.9352  -52.3304  -24.9350 C   0  0  0  0  0  0  0  0  0  0  0  0
   -0.1609  -52.3428  -23.8722 N   0  0  0  0  0  0  0  0  0  0  0  0
    1.1817  -52.3835  -23.9428 C   0  0  0  0  0  0  0  0  0  0  0  0
    1.8024  -52.4140  -25.1946 C   0  0  0  0  0  0  0  0  0  0  0  0
    4.3194  -52.4964  -24.7880 C   0  0  0  0  0  0  0  0  0  0  0  0
    6.6520  -50.2168  -21.6815 N   0  0  0  0  0  0  0  0  0  0  0  0
    5.5758  -50.8458  -22.4541 C   0  0  0  0  0  0  0  0  0  0  0  0
    4.5372  -49.7844  -22.8083 C   0  0  0  0  0  0  0  0  0  0  0  0
    4.1702  -50.1400  -24.2103 C   0  0  0  0  0  0  0  0  0  0  0  0
    4.9657  -51.2044  -24.6589 N   0  0  0  0  0  0  0  0  0  0  0  0
    6.0866  -51.3235  -23.7882 C   0  0  0  0  0  0  0  0  0  0  0  0
    6.4750  -49.1917  -21.5656 H   0  0  0  0  0  0  0  0  0  0  0  0
    7.5332  -50.3309  -22.2243 H   0  0  0  0  0  0  0  0  0  0  0  0
    1.2649  -52.1650  -21.4660 C   0  0  0  0  0  0  0  0  0  0  0  0
    1.6540  -51.0568  -20.6983 C   0  0  0  0  0  0  0  0  0  0  0  0
    1.1380  -50.7934  -19.4526 C   0  0  0  0  0  0  0  0  0  0  0  0
    0.1921  -51.6400  -18.9055 C   0  0  0  0  0  0  0  0  0  0  0  0
   -0.4667  -51.6203  -17.7310 N   0  0  0  0  0  0  0  0  0  0  0  0
   -1.2581  -52.6852  -17.7397 N   0  0  0  0  0  0  0  0  0  0  0  0
   -1.1271  -53.3825  -18.8770 C   0  0  0  0  0  0  0  0  0  0  0  0
   -0.1910  -52.7259  -19.6531 C   0  0  0  0  0  0  0  0  0  0  0  0
    0.3324  -53.0009  -20.9259 C   0  0  0  0  0  0  0  0  0  0  0  0
   -0.3465  -50.6313  -16.6475 C   0  0  0  0  0  0  0  0  0  0  0  0
    0.5739  -51.1468  -15.6343 C   0  0  0  0  0  0  0  0  0  0  0  0
    0.1306  -51.9289  -14.6150 C   0  0  0  0  0  0  0  0  0  0  0  0
    1.0652  -52.3749  -13.6960 C   0  0  0  0  0  0  0  0  0  0  0  0
    2.3931  -52.0431  -13.8042 C   0  0  0  0  0  0  0  0  0  0  0  0
    2.8253  -51.2585  -14.8303 C   0  0  0  0  0  0  0  0  0  0  0  0
    4.1447  -50.9446  -14.9149 F   0  0  0  0  0  0  0  0  0  0  0  0
    1.9188  -50.8058  -15.7513 C   0  0  0  0  0  0  0  0  0  0  0  0
 13 14  1  0  0  0
 14 15  1  0  0  0
 15 16  1  0  0  0
 16 17  1  0  0  0
 17 12  1  0  0  0
 12  3  1  0  0  0
  3  4  1  0  0  0
  4  5  2  0  0  0
  5  6  1  0  0  0
  6  7  1  0  0  0
  7  8  2  0  0  0
  8  9  1  0  0  0
  9 10  2  0  0  0
 10  1  1  0  0  0
  1 21  1  0  0  0
 21 22  2  0  0  0
 22 23  1  0  0  0
 23 24  2  0  0  0
 24 25  1  0  0  0
 25 30  1  0  0  0
 30 31  1  0  0  0
 31 32  2  0  0  0
 32 33  1  0  0  0
 33 34  2  0  0  0
 34 35  1  0  0  0
 35 36  1  0  0  0
 35 37  2  0  0  0
 25 26  1  0  0  0
 26 27  2  0  0  0
 27 28  1  0  0  0
 28 29  2  0  0  0
 10 11  1  0  0  0
 17 18  1  0  0  0
 18 14  1  0  0  0
 11  3  2  0  0  0
 11  6  1  0  0  0
 29 21  1  0  0  0
 28 24  1  0  0  0
 37 31  1  0  0  0
 13 19  1  0  0  0
 13 20  1  0  0  0
  1  2  1  0  0  0
M  END
> <minimizedAffinity>
-7.56121

> <CNNscore>
0.2398358583

> <CNNaffinity>
6.8826704025

> <CNN_VS>
1.6507111788

> <CNNaffinity_variance>
0.1155631915

$$$$
[H]c1nc(N([H])c2c([H])c([H])c3c(c([H])nn3C([H])([H])c3c([H])c([H])c([H])c(F)c3[H])c2[H])c2c(C([H])([H])N3C([H])([H])C([H])([H])[C@]([H])(N([H])[H])C3([H])[H])c([H])c([H])n2n1


 37 42  0  0  0  0  0  0  0  0999 V2000
    0.6561  -50.1473  -20.9863 N   0  0  0  0  0  0  0  0  0  0  0  0
    0.4761  -49.2114  -21.3275 H   0  0  0  0  0  0  0  0  0  0  0  0
    3.4611  -49.8932  -19.6609 C   0  0  0  0  0  0  0  0  0  0  0  0
    4.3887  -49.9879  -18.6163 C   0  0  0  0  0  0  0  0  0  0  0  0
    3.7119  -50.4550  -17.5190 C   0  0  0  0  0  0  0  0  0  0  0  0
    2.4357  -50.6423  -17.8517 N   0  0  0  0  0  0  0  0  0  0  0  0
    1.4323  -51.0765  -17.0932 N   0  0  0  0  0  0  0  0  0  0  0  0
    0.1855  -51.2006  -17.5906 C   0  0  0  0  0  0  0  0  0  0  0  0
   -0.0076  -50.8785  -18.8508 N   0  0  0  0  0  0  0  0  0  0  0  0
    0.9763  -50.4358  -19.6542 C   0  0  0  0  0  0  0  0  0  0  0  0
    2.2713  -50.3055  -19.1452 C   0  0  0  0  0  0  0  0  0  0  0  0
    3.7424  -49.4321  -21.0374 C   0  0  0  0  0  0  0  0  0  0  0  0
    5.6744  -49.9226  -25.0765 N   0  0  0  0  0  0  0  0  0  0  0  0
    4.8273  -50.0882  -23.8909 C   0  0  0  0  0  0  0  0  0  0  0  0
    4.9782  -51.5162  -23.3721 C   0  0  0  0  0  0  0  0  0  0  0  0
    5.0034  -51.3262  -21.8922 C   0  0  0  0  0  0  0  0  0  0  0  0
    4.9785  -49.9583  -21.5839 N   0  0  0  0  0  0  0  0  0  0  0  0
    5.3228  -49.2285  -22.7577 C   0  0  0  0  0  0  0  0  0  0  0  0
    6.1979  -50.8048  -25.2844 H   0  0  0  0  0  0  0  0  0  0  0  0
    6.3710  -49.1794  -24.8606 H   0  0  0  0  0  0  0  0  0  0  0  0
    0.5518  -51.1756  -21.9912 C   0  0  0  0  0  0  0  0  0  0  0  0
    1.3498  -51.0638  -23.1400 C   0  0  0  0  0  0  0  0  0  0  0  0
    1.3000  -51.9666  -24.1743 C   0  0  0  0  0  0  0  0  0  0  0  0
    0.4351  -53.0428  -24.1084 C   0  0  0  0  0  0  0  0  0  0  0  0
    0.1879  -54.0569  -24.9595 N   0  0  0  0  0  0  0  0  0  0  0  0
   -0.7431  -54.8019  -24.3775 N   0  0  0  0  0  0  0  0  0  0  0  0
   -1.0979  -54.2991  -23.1866 C   0  0  0  0  0  0  0  0  0  0  0  0
   -0.3479  -53.1558  -22.9863 C   0  0  0  0  0  0  0  0  0  0  0  0
   -0.3022  -52.2369  -21.9264 C   0  0  0  0  0  0  0  0  0  0  0  0
    0.8102  -54.3045  -26.2703 C   0  0  0  0  0  0  0  0  0  0  0  0
    0.0305  -53.6216  -27.3023 C   0  0  0  0  0  0  0  0  0  0  0  0
    0.5266  -53.4435  -28.5551 C   0  0  0  0  0  0  0  0  0  0  0  0
   -0.2734  -52.7855  -29.4738 C   0  0  0  0  0  0  0  0  0  0  0  0
   -1.5234  -52.3269  -29.1384 C   0  0  0  0  0  0  0  0  0  0  0  0
   -2.0096  -52.5113  -27.8795 C   0  0  0  0  0  0  0  0  0  0  0  0
   -3.2496  -52.0479  -27.5730 F   0  0  0  0  0  0  0  0  0  0  0  0
   -1.2360  -53.1595  -26.9541 C   0  0  0  0  0  0  0  0  0  0  0  0
 13 14  1  0  0  0
 14 15  1  0  0  0
 15 16  1  0  0  0
 16 17  1  0  0  0
 17 12  1  0  0  0
 12  3  1  0  0  0
  3  4  1  0  0  0
  4  5  2  0  0  0
  5  6  1  0  0  0
  6  7  1  0  0  0
  7  8  2  0  0  0
  8  9  1  0  0  0
  9 10  2  0  0  0
 10  1  1  0  0  0
  1 21  1  0  0  0
 21 22  2  0  0  0
 22 23  1  0  0  0
 23 24  2  0  0  0
 24 25  1  0  0  0
 25 30  1  0  0  0
 30 31  1  0  0  0
 31 32  2  0  0  0
 32 33  1  0  0  0
 33 34  2  0  0  0
 34 35  1  0  0  0
 35 36  1  0  0  0
 35 37  2  0  0  0
 25 26  1  0  0  0
 26 27  2  0  0  0
 27 28  1  0  0  0
 28 29  2  0  0  0
 10 11  1  0  0  0
 17 18  1  0  0  0
 18 14  1  0  0  0
 11  3  2  0  0  0
 11  6  1  0  0  0
 29 21  1  0  0  0
 28 24  1  0  0  0
 37 31  1  0  0  0
 13 19  1  0  0  0
 13 20  1  0  0  0
  1  2  1  0  0  0
M  END
> <minimizedAffinity>
-8.55359

> <CNNscore>
0.2368285656

> <CNNaffinity>
7.1817827225

> <CNN_VS>
1.7008513212

> <CNNaffinity_variance>
0.1118201017

$$$$
[H]C([H])=C([H])C(=O)N([H])c1c(OC([H])([H])C([H])([H])N([H])C(=O)C([H])([H])[H])c([H])c2nc([H])nc(N([H])c3c([H])c(OC([H])([H])[H])c(Cl)c([H])c3F)c2c1[H]


 36 38  0  0  0  0  0  0  0  0999 V2000
   -0.1116  -53.2393  -23.1797 C   0  0  0  0  0  0  0  0  0  0  0  0
   -0.9223  -54.2818  -23.3293 N   0  0  0  0  0  0  0  0  0  0  0  0
   -1.5731  -54.8920  -22.3516 C   0  0  0  0  0  0  0  0  0  0  0  0
   -1.4896  -54.5241  -21.0679 N   0  0  0  0  0  0  0  0  0  0  0  0
   -0.6728  -53.4544  -20.8338 C   0  0  0  0  0  0  0  0  0  0  0  0
   -0.5106  -52.9971  -19.5389 C   0  0  0  0  0  0  0  0  0  0  0  0
    0.2946  -51.9385  -19.2263 C   0  0  0  0  0  0  0  0  0  0  0  0
    0.9953  -51.2776  -20.2645 C   0  0  0  0  0  0  0  0  0  0  0  0
    0.8338  -51.7309  -21.5352 C   0  0  0  0  0  0  0  0  0  0  0  0
    0.0122  -52.8069  -21.8356 C   0  0  0  0  0  0  0  0  0  0  0  0
    1.8052  -50.1697  -19.9550 N   0  0  0  0  0  0  0  0  0  0  0  0
    1.5869  -48.8466  -20.3170 C   0  0  0  0  0  0  0  0  0  0  0  0
    0.6283  -48.3893  -21.0017 O   0  0  0  0  0  0  0  0  0  0  0  0
    2.6705  -50.3921  -19.3715 H   0  0  0  0  0  0  0  0  0  0  0  0
    2.5523  -47.8013  -19.8757 C   0  0  0  0  0  0  0  0  0  0  0  0
    3.3851  -47.2045  -20.6926 C   0  0  0  0  0  0  0  0  0  0  0  0
    0.5596  -52.5951  -24.2230 N   0  0  0  0  0  0  0  0  0  0  0  0
    1.2880  -51.8883  -23.9764 H   0  0  0  0  0  0  0  0  0  0  0  0
    0.9225  -53.5781  -27.8629 C   0  0  0  0  0  0  0  0  0  0  0  0
    1.1649  -53.4396  -26.4687 C   0  0  0  0  0  0  0  0  0  0  0  0
    0.3558  -52.7907  -25.6124 C   0  0  0  0  0  0  0  0  0  0  0  0
   -0.8180  -52.2179  -26.1907 C   0  0  0  0  0  0  0  0  0  0  0  0
   -1.6567  -51.5587  -25.3625 F   0  0  0  0  0  0  0  0  0  0  0  0
   -1.1063  -52.3131  -27.5099 C   0  0  0  0  0  0  0  0  0  0  0  0
   -0.2770  -52.9695  -28.3439 C   0  0  0  0  0  0  0  0  0  0  0  0
   -0.6803  -53.0716  -30.0311 Cl  0  0  0  0  0  0  0  0  0  0  0  0
    2.4949  -54.8331  -29.4386 C   0  0  0  0  0  0  0  0  0  0  0  0
    1.6898  -54.1827  -28.6241 O   0  0  0  0  0  0  0  0  0  0  0  0
    0.4937  -51.4413  -17.9738 O   0  0  0  0  0  0  0  0  0  0  0  0
   -0.3688  -50.8008  -17.0945 C   0  0  0  0  0  0  0  0  0  0  0  0
   -0.9996  -51.8481  -16.1343 C   0  0  0  0  0  0  0  0  0  0  0  0
   -2.3331  -51.7926  -16.0154 N   0  0  0  0  0  0  0  0  0  0  0  0
   -3.6912  -51.7358  -15.8944 C   0  0  0  0  0  0  0  0  0  0  0  0
   -4.4046  -53.0841  -16.0399 C   0  0  0  0  0  0  0  0  0  0  0  0
   -4.4539  -50.7900  -15.6887 O   0  0  0  0  0  0  0  0  0  0  0  0
   -2.3097  -50.4201  -15.8142 H   0  0  0  0  0  0  0  0  0  0  0  0
 27 28  1  0  0  0
 28 19  1  0  0  0
 19 20  2  0  0  0
 20 21  1  0  0  0
 21 17  1  0  0  0
 17  1  1  0  0  0
  1  2  2  0  0  0
  2  3  1  0  0  0
  3  4  2  0  0  0
  4  5  1  0  0  0
  5  6  2  0  0  0
  6  7  1  0  0  0
  7 29  1  0  0  0
 29 30  1  0  0  0
 30 31  1  0  0  0
 31 32  1  0  0  0
 32 33  1  0  0  0
 33 34  1  0  0  0
 33 35  2  0  0  0
  7  8  2  0  0  0
  8 11  1  0  0  0
 11 12  1  0  0  0
 12 13  2  0  0  0
 12 15  1  0  0  0
 15 16  2  0  0  0
  8  9  1  0  0  0
  9 10  2  0  0  0
 21 22  2  0  0  0
 22 23  1  0  0  0
 22 24  1  0  0  0
 24 25  2  0  0  0
 25 26  1  0  0  0
 25 19  1  0  0  0
 10  1  1  0  0  0
 10  5  1  0  0  0
 17 18  1  0  0  0
 32 36  1  0  0  0
 11 14  1  0  0  0
M  END
> <minimizedAffinity>
-7.70053

> <CNNscore>
0.9397712946

> <CNNaffinity>
7.7901701927

> <CNN_VS>
7.3209781647

> <CNNaffinity_variance>
0.0869381875

$$$$
[H]C([H])=C([H])C(=O)N([H])c1c(OC([H])([H])C([H])([H])N([H])C(=O)C([H])([H])[H])c([H])c2nc([H])nc(N([H])c3c([H])c(OC([H])([H])[H])c(Cl)c([H])c3F)c2c1[H]


 36 38  0  0  0  0  0  0  0  0999 V2000
    0.0782  -53.2416  -22.5523 C   0  0  0  0  0  0  0  0  0  0  0  0
   -0.8160  -54.2117  -22.7125 N   0  0  0  0  0  0  0  0  0  0  0  0
   -1.6063  -54.6887  -21.7640 C   0  0  0  0  0  0  0  0  0  0  0  0
   -1.5981  -54.2415  -20.5030 N   0  0  0  0  0  0  0  0  0  0  0  0
   -0.7024  -53.2391  -20.2599 C   0  0  0  0  0  0  0  0  0  0  0  0
   -0.6082  -52.7097  -18.9859 C   0  0  0  0  0  0  0  0  0  0  0  0
    0.2681  -51.7117  -18.6651 C   0  0  0  0  0  0  0  0  0  0  0  0
    1.1181  -51.1932  -19.6723 C   0  0  0  0  0  0  0  0  0  0  0  0
    1.0229  -51.7170  -20.9223 C   0  0  0  0  0  0  0  0  0  0  0  0
    0.1275  -52.7299  -21.2314 C   0  0  0  0  0  0  0  0  0  0  0  0
    2.0042  -50.1469  -19.3571 N   0  0  0  0  0  0  0  0  0  0  0  0
    3.2428  -50.2573  -18.7383 C   0  0  0  0  0  0  0  0  0  0  0  0
    3.8025  -51.3144  -18.3307 O   0  0  0  0  0  0  0  0  0  0  0  0
    1.6721  -49.1733  -19.6408 H   0  0  0  0  0  0  0  0  0  0  0  0
    4.0531  -49.0292  -18.5046 C   0  0  0  0  0  0  0  0  0  0  0  0
    5.2429  -48.8467  -19.0223 C   0  0  0  0  0  0  0  0  0  0  0  0
    0.8977  -52.7373  -23.5662 N   0  0  0  0  0  0  0  0  0  0  0  0
    1.7995  -52.2878  -23.2912 H   0  0  0  0  0  0  0  0  0  0  0  0
   -0.7654  -52.7067  -26.9692 C   0  0  0  0  0  0  0  0  0  0  0  0
   -0.5601  -52.6455  -25.5635 C   0  0  0  0  0  0  0  0  0  0  0  0
    0.6362  -52.7603  -24.9595 C   0  0  0  0  0  0  0  0  0  0  0  0
    1.7493  -52.9552  -25.8331 C   0  0  0  0  0  0  0  0  0  0  0  0
    2.9683  -53.0738  -25.2643 F   0  0  0  0  0  0  0  0  0  0  0  0
    1.6213  -53.0235  -27.1790 C   0  0  0  0  0  0  0  0  0  0  0  0
    0.4101  -52.9051  -27.7561 C   0  0  0  0  0  0  0  0  0  0  0  0
    0.2848  -52.9974  -29.4870 Cl  0  0  0  0  0  0  0  0  0  0  0  0
   -3.0761  -52.4858  -28.0379 C   0  0  0  0  0  0  0  0  0  0  0  0
   -1.8823  -52.5975  -27.4930 O   0  0  0  0  0  0  0  0  0  0  0  0
    0.4065  -51.1491  -17.4323 O   0  0  0  0  0  0  0  0  0  0  0  0
   -0.4993  -50.4715  -16.6275 C   0  0  0  0  0  0  0  0  0  0  0  0
   -1.1936  -51.4793  -15.6688 C   0  0  0  0  0  0  0  0  0  0  0  0
   -2.5313  -51.5132  -15.7375 N   0  0  0  0  0  0  0  0  0  0  0  0
   -3.8938  -51.5475  -15.8074 C   0  0  0  0  0  0  0  0  0  0  0  0
   -4.4880  -52.9379  -16.0561 C   0  0  0  0  0  0  0  0  0  0  0  0
   -4.7393  -50.6567  -15.7071 O   0  0  0  0  0  0  0  0  0  0  0  0
   -2.6282  -50.1448  -15.5301 H   0  0  0  0  0  0  0  0  0  0  0  0
 27 28  1  0  0  0
 28 19  1  0  0  0
 19 20  2  0  0  0
 20 21  1  0  0  0
 21 17  1  0  0  0
 17  1  1  0  0  0
  1  2  2  0  0  0
  2  3  1  0  0  0
  3  4  2  0  0  0
  4  5  1  0  0  0
  5  6  2  0  0  0
  6  7  1  0  0  0
  7 29  1  0  0  0
 29 30  1  0  0  0
 30 31  1  0  0  0
 31 32  1  0  0  0
 32 33  1  0  0  0
 33 34  1  0  0  0
 33 35  2  0  0  0
  7  8  2  0  0  0
  8 11  1  0  0  0
 11 12  1  0  0  0
 12 13  2  0  0  0
 12 15  1  0  0  0
 15 16  2  0  0  0
  8  9  1  0  0  0
  9 10  2  0  0  0
 21 22  2  0  0  0
 22 23  1  0  0  0
 22 24  1  0  0  0
 24 25  2  0  0  0
 25 26  1  0  0  0
 25 19  1  0  0  0
 10  1  1  0  0  0
 10  5  1  0  0  0
 17 18  1  0  0  0
 32 36  1  0  0  0
 11 14  1  0  0  0
M  END
> <minimizedAffinity>
-8.10389

> <CNNscore>
0.8657104373

> <CNNaffinity>
7.6199250221

> <CNN_VS>
6.5966486931

> <CNNaffinity_variance>
0.0645058528

$$$$
[H]C([H])=C([H])C(=O)N([H])c1c(OC([H])([H])C([H])([H])N([H])C(=O)C([H])([H])[H])c([H])c2nc([H])nc(N([H])c3c([H])c(OC([H])([H])[H])c(Cl)c([H])c3F)c2c1[H]


 36 38  0  0  0  0  0  0  0  0999 V2000
   -0.1377  -53.3371  -23.0869 C   0  0  0  0  0  0  0  0  0  0  0  0
   -0.9725  -54.3559  -23.2641 N   0  0  0  0  0  0  0  0  0  0  0  0
   -1.6773  -54.9431  -22.3100 C   0  0  0  0  0  0  0  0  0  0  0  0
   -1.6314  -54.5729  -21.0251 N   0  0  0  0  0  0  0  0  0  0  0  0
   -0.7928  -53.5267  -20.7633 C   0  0  0  0  0  0  0  0  0  0  0  0
   -0.6661  -53.0694  -19.4645 C   0  0  0  0  0  0  0  0  0  0  0  0
    0.1577  -52.0337  -19.1245 C   0  0  0  0  0  0  0  0  0  0  0  0
    0.9161  -51.3976  -20.1374 C   0  0  0  0  0  0  0  0  0  0  0  0
    0.7892  -51.8508  -21.4120 C   0  0  0  0  0  0  0  0  0  0  0  0
   -0.0519  -52.9034  -21.7403 C   0  0  0  0  0  0  0  0  0  0  0  0
    1.7461  -50.3128  -19.8005 N   0  0  0  0  0  0  0  0  0  0  0  0
    3.1023  -50.3575  -19.5040 C   0  0  0  0  0  0  0  0  0  0  0  0
    3.8441  -51.3800  -19.4686 O   0  0  0  0  0  0  0  0  0  0  0  0
    1.2621  -49.3619  -19.7855 H   0  0  0  0  0  0  0  0  0  0  0  0
    3.8217  -49.0917  -19.1884 C   0  0  0  0  0  0  0  0  0  0  0  0
    3.2139  -47.9405  -19.0384 C   0  0  0  0  0  0  0  0  0  0  0  0
    0.5909  -52.7168  -24.1059 N   0  0  0  0  0  0  0  0  0  0  0  0
    1.3759  -52.0840  -23.8336 H   0  0  0  0  0  0  0  0  0  0  0  0
    0.9183  -53.5449  -27.7876 C   0  0  0  0  0  0  0  0  0  0  0  0
    1.1689  -53.4738  -26.3897 C   0  0  0  0  0  0  0  0  0  0  0  0
    0.3776  -52.8459  -25.5016 C   0  0  0  0  0  0  0  0  0  0  0  0
   -0.7852  -52.2222  -26.0484 C   0  0  0  0  0  0  0  0  0  0  0  0
   -1.6060  -51.5822  -25.1878 F   0  0  0  0  0  0  0  0  0  0  0  0
   -1.0805  -52.2523  -27.3692 C   0  0  0  0  0  0  0  0  0  0  0  0
   -0.2691  -52.8891  -28.2354 C   0  0  0  0  0  0  0  0  0  0  0  0
   -0.6809  -52.9072  -29.9236 Cl  0  0  0  0  0  0  0  0  0  0  0  0
    2.4788  -54.7529  -29.4110 C   0  0  0  0  0  0  0  0  0  0  0  0
    1.6692  -54.1318  -28.5784 O   0  0  0  0  0  0  0  0  0  0  0  0
    0.3241  -51.5378  -17.8668 O   0  0  0  0  0  0  0  0  0  0  0  0
   -0.5651  -51.4060  -16.8088 C   0  0  0  0  0  0  0  0  0  0  0  0
    0.2291  -51.1916  -15.4897 C   0  0  0  0  0  0  0  0  0  0  0  0
    1.5436  -50.9767  -15.6360 N   0  0  0  0  0  0  0  0  0  0  0  0
    2.8824  -50.7581  -15.7851 C   0  0  0  0  0  0  0  0  0  0  0  0
    3.3434  -49.3399  -15.4324 C   0  0  0  0  0  0  0  0  0  0  0  0
    3.7947  -51.4992  -16.1553 O   0  0  0  0  0  0  0  0  0  0  0  0
    1.7608  -52.2774  -16.0673 H   0  0  0  0  0  0  0  0  0  0  0  0
 27 28  1  0  0  0
 28 19  1  0  0  0
 19 20  2  0  0  0
 20 21  1  0  0  0
 21 17  1  0  0  0
 17  1  1  0  0  0
  1  2  2  0  0  0
  2  3  1  0  0  0
  3  4  2  0  0  0
  4  5  1  0  0  0
  5  6  2  0  0  0
  6  7  1  0  0  0
  7 29  1  0  0  0
 29 30  1  0  0  0
 30 31  1  0  0  0
 31 32  1  0  0  0
 32 33  1  0  0  0
 33 34  1  0  0  0
 33 35  2  0  0  0
  7  8  2  0  0  0
  8 11  1  0  0  0
 11 12  1  0  0  0
 12 13  2  0  0  0
 12 15  1  0  0  0
 15 16  2  0  0  0
  8  9  1  0  0  0
  9 10  2  0  0  0
 21 22  2  0  0  0
 22 23  1  0  0  0
 22 24  1  0  0  0
 24 25  2  0  0  0
 25 26  1  0  0  0
 25 19  1  0  0  0
 10  1  1  0  0  0
 10  5  1  0  0  0
 17 18  1  0  0  0
 32 36  1  0  0  0
 11 14  1  0  0  0
M  END
> <minimizedAffinity>
-7.18315

> <CNNscore>
0.8248847723

> <CNNaffinity>
7.5549545288

> <CNN_VS>
6.2319669724

> <CNNaffinity_variance>
0.1466493607

$$$$
[H]C([H])=C([H])C(=O)N([H])c1c(OC([H])([H])C([H])([H])N([H])C(=O)C([H])([H])[H])c([H])c2nc([H])nc(N([H])c3c([H])c(OC([H])([H])[H])c(Cl)c([H])c3F)c2c1[H]


 36 38  0  0  0  0  0  0  0  0999 V2000
    0.1832  -53.1488  -22.6790 C   0  0  0  0  0  0  0  0  0  0  0  0
   -0.6450  -54.1802  -22.8072 N   0  0  0  0  0  0  0  0  0  0  0  0
   -1.3733  -54.7030  -21.8334 C   0  0  0  0  0  0  0  0  0  0  0  0
   -1.3613  -54.2453  -20.5763 N   0  0  0  0  0  0  0  0  0  0  0  0
   -0.5315  -53.1807  -20.3655 C   0  0  0  0  0  0  0  0  0  0  0  0
   -0.4392  -52.6349  -19.0983 C   0  0  0  0  0  0  0  0  0  0  0  0
    0.3737  -51.5754  -18.8093 C   0  0  0  0  0  0  0  0  0  0  0  0
    1.1569  -51.0077  -19.8436 C   0  0  0  0  0  0  0  0  0  0  0  0
    1.0638  -51.5477  -21.0869 C   0  0  0  0  0  0  0  0  0  0  0  0
    0.2334  -52.6234  -21.3636 C   0  0  0  0  0  0  0  0  0  0  0  0
    1.9760  -49.8994  -19.5609 N   0  0  0  0  0  0  0  0  0  0  0  0
    1.8382  -48.6091  -20.0564 C   0  0  0  0  0  0  0  0  0  0  0  0
    0.9603  -48.1893  -20.8626 O   0  0  0  0  0  0  0  0  0  0  0  0
    2.7783  -50.0920  -18.8842 H   0  0  0  0  0  0  0  0  0  0  0  0
    2.7982  -47.5554  -19.6233 C   0  0  0  0  0  0  0  0  0  0  0  0
    3.6172  -46.9499  -20.4478 C   0  0  0  0  0  0  0  0  0  0  0  0
    0.9368  -52.5973  -23.7192 N   0  0  0  0  0  0  0  0  0  0  0  0
    1.8065  -52.0744  -23.4722 H   0  0  0  0  0  0  0  0  0  0  0  0
   -0.7981  -52.6711  -27.0855 C   0  0  0  0  0  0  0  0  0  0  0  0
   -0.5631  -52.5677  -25.6869 C   0  0  0  0  0  0  0  0  0  0  0  0
    0.6459  -52.6622  -25.1053 C   0  0  0  0  0  0  0  0  0  0  0  0
    1.7408  -52.8809  -25.9963 C   0  0  0  0  0  0  0  0  0  0  0  0
    2.9719  -52.9802  -25.4502 F   0  0  0  0  0  0  0  0  0  0  0  0
    1.5845  -52.9894  -27.3365 C   0  0  0  0  0  0  0  0  0  0  0  0
    0.3610  -52.8905  -27.8910 C   0  0  0  0  0  0  0  0  0  0  0  0
    0.1993  -53.0345  -29.6153 Cl  0  0  0  0  0  0  0  0  0  0  0  0
   -3.1314  -52.4852  -28.1107 C   0  0  0  0  0  0  0  0  0  0  0  0
   -1.9261  -52.5796  -27.5885 O   0  0  0  0  0  0  0  0  0  0  0  0
    0.5066  -50.9938  -17.5847 O   0  0  0  0  0  0  0  0  0  0  0  0
   -0.2553  -51.1058  -16.4296 C   0  0  0  0  0  0  0  0  0  0  0  0
    0.6053  -50.6972  -15.2011 C   0  0  0  0  0  0  0  0  0  0  0  0
    1.8904  -51.0740  -15.2458 N   0  0  0  0  0  0  0  0  0  0  0  0
    3.1992  -51.4576  -15.2916 C   0  0  0  0  0  0  0  0  0  0  0  0
    3.7992  -51.8521  -13.9378 C   0  0  0  0  0  0  0  0  0  0  0  0
    3.9925  -51.5444  -16.2306 O   0  0  0  0  0  0  0  0  0  0  0  0
    1.9561  -50.8705  -16.6166 H   0  0  0  0  0  0  0  0  0  0  0  0
 27 28  1  0  0  0
 28 19  1  0  0  0
 19 20  2  0  0  0
 20 21  1  0  0  0
 21 17  1  0  0  0
 17  1  1  0  0  0
  1  2  2  0  0  0
  2  3  1  0  0  0
  3  4  2  0  0  0
  4  5  1  0  0  0
  5  6  2  0  0  0
  6  7  1  0  0  0
  7 29  1  0  0  0
 29 30  1  0  0  0
 30 31  1  0  0  0
 31 32  1  0  0  0
 32 33  1  0  0  0
 33 34  1  0  0  0
 33 35  2  0  0  0
  7  8  2  0  0  0
  8 11  1  0  0  0
 11 12  1  0  0  0
 12 13  2  0  0  0
 12 15  1  0  0  0
 15 16  2  0  0  0
  8  9  1  0  0  0
  9 10  2  0  0  0
 21 22  2  0  0  0
 22 23  1  0  0  0
 22 24  1  0  0  0
 24 25  2  0  0  0
 25 26  1  0  0  0
 25 19  1  0  0  0
 10  1  1  0  0  0
 10  5  1  0  0  0
 17 18  1  0  0  0
 32 36  1  0  0  0
 11 14  1  0  0  0
M  END
> <minimizedAffinity>
-7.79201

> <CNNscore>
0.7826054096

> <CNNaffinity>
7.5357427597

> <CNN_VS>
5.8975129128

> <CNNaffinity_variance>
0.1824294329

$$$$
[H]C([H])=C([H])C(=O)N([H])c1c(OC([H])([H])C([H])([H])N([H])C(=O)C([H])([H])[H])c([H])c2nc([H])nc(N([H])c3c([H])c(OC([H])([H])[H])c(Cl)c([H])c3F)c2c1[H]


 36 38  0  0  0  0  0  0  0  0999 V2000
   -0.2747  -53.0454  -23.1353 C   0  0  0  0  0  0  0  0  0  0  0  0
   -0.9662  -54.1737  -23.2576 N   0  0  0  0  0  0  0  0  0  0  0  0
   -1.4870  -54.8649  -22.2561 C   0  0  0  0  0  0  0  0  0  0  0  0
   -1.3758  -54.5020  -20.9731 N   0  0  0  0  0  0  0  0  0  0  0  0
   -0.6766  -53.3467  -20.7664 C   0  0  0  0  0  0  0  0  0  0  0  0
   -0.4971  -52.8860  -19.4750 C   0  0  0  0  0  0  0  0  0  0  0  0
    0.1962  -51.7439  -19.1894 C   0  0  0  0  0  0  0  0  0  0  0  0
    0.7572  -50.9960  -20.2532 C   0  0  0  0  0  0  0  0  0  0  0  0
    0.5792  -51.4529  -21.5203 C   0  0  0  0  0  0  0  0  0  0  0  0
   -0.1276  -52.6144  -21.7931 C   0  0  0  0  0  0  0  0  0  0  0  0
    1.4493  -49.8043  -19.9701 N   0  0  0  0  0  0  0  0  0  0  0  0
    2.8082  -49.6656  -19.7183 C   0  0  0  0  0  0  0  0  0  0  0  0
    3.6771  -50.5826  -19.6839 O   0  0  0  0  0  0  0  0  0  0  0  0
    0.8468  -48.9236  -19.9612 H   0  0  0  0  0  0  0  0  0  0  0  0
    3.3666  -48.3094  -19.4571 C   0  0  0  0  0  0  0  0  0  0  0  0
    3.1982  -47.6712  -18.3251 C   0  0  0  0  0  0  0  0  0  0  0  0
    0.2587  -52.3175  -24.2029 N   0  0  0  0  0  0  0  0  0  0  0  0
    0.8359  -51.4751  -23.9836 H   0  0  0  0  0  0  0  0  0  0  0  0
    0.7581  -53.4562  -27.7808 C   0  0  0  0  0  0  0  0  0  0  0  0
    0.9618  -53.2339  -26.3911 C   0  0  0  0  0  0  0  0  0  0  0  0
    0.0969  -52.5941  -25.5840 C   0  0  0  0  0  0  0  0  0  0  0  0
   -1.0967  -52.1238  -26.2122 C   0  0  0  0  0  0  0  0  0  0  0  0
   -1.9912  -51.4770  -25.4342 F   0  0  0  0  0  0  0  0  0  0  0  0
   -1.3504  -52.3020  -27.5299 C   0  0  0  0  0  0  0  0  0  0  0  0
   -0.4653  -52.9469  -28.3140 C   0  0  0  0  0  0  0  0  0  0  0  0
   -0.8255  -53.1574  -30.0010 Cl  0  0  0  0  0  0  0  0  0  0  0  0
    2.4392  -54.6779  -29.2679 C   0  0  0  0  0  0  0  0  0  0  0  0
    1.5767  -54.0497  -28.4959 O   0  0  0  0  0  0  0  0  0  0  0  0
    0.4054  -51.2388  -17.9417 O   0  0  0  0  0  0  0  0  0  0  0  0
   -0.4786  -50.9428  -16.9130 C   0  0  0  0  0  0  0  0  0  0  0  0
   -0.1597  -49.5303  -16.3477 C   0  0  0  0  0  0  0  0  0  0  0  0
   -1.1461  -48.9521  -15.6490 N   0  0  0  0  0  0  0  0  0  0  0  0
   -2.1505  -48.3630  -14.9374 C   0  0  0  0  0  0  0  0  0  0  0  0
   -3.5086  -49.0646  -15.0444 C   0  0  0  0  0  0  0  0  0  0  0  0
   -2.1642  -47.3614  -14.2196 O   0  0  0  0  0  0  0  0  0  0  0  0
   -0.3024  -47.9525  -15.1864 H   0  0  0  0  0  0  0  0  0  0  0  0
 27 28  1  0  0  0
 28 19  1  0  0  0
 19 20  2  0  0  0
 20 21  1  0  0  0
 21 17  1  0  0  0
 17  1  1  0  0  0
  1  2  2  0  0  0
  2  3  1  0  0  0
  3  4  2  0  0  0
  4  5  1  0  0  0
  5  6  2  0  0  0
  6  7  1  0  0  0
  7 29  1  0  0  0
 29 30  1  0  0  0
 30 31  1  0  0  0
 31 32  1  0  0  0
 32 33  1  0  0  0
 33 34  1  0  0  0
 33 35  2  0  0  0
  7  8  2  0  0  0
  8 11  1  0  0  0
 11 12  1  0  0  0
 12 13  2  0  0  0
 12 15  1  0  0  0
 15 16  2  0  0  0
  8  9  1  0  0  0
  9 10  2  0  0  0
 21 22  2  0  0  0
 22 23  1  0  0  0
 22 24  1  0  0  0
 24 25  2  0  0  0
 25 26  1  0  0  0
 25 19  1  0  0  0
 10  1  1  0  0  0
 10  5  1  0  0  0
 17 18  1  0  0  0
 32 36  1  0  0  0
 11 14  1  0  0  0
M  END
> <minimizedAffinity>
-7.11351

> <CNNscore>
0.7647943497

> <CNNaffinity>
7.4815039635

> <CNN_VS>
5.7218117714

> <CNNaffinity_variance>
0.2031446993

$$$$
[H]C([H])=C([H])C(=O)N([H])c1c(OC([H])([H])C([H])([H])N([H])C(=O)C([H])([H])[H])c([H])c2nc([H])nc(N([H])c3c([H])c(OC([H])([H])[H])c(Cl)c([H])c3F)c2c1[H]


 36 38  0  0  0  0  0  0  0  0999 V2000
    0.1619  -53.3201  -22.6758 C   0  0  0  0  0  0  0  0  0  0  0  0
   -0.6951  -54.3307  -22.7785 N   0  0  0  0  0  0  0  0  0  0  0  0
   -1.4922  -54.7597  -21.8128 C   0  0  0  0  0  0  0  0  0  0  0  0
   -1.5301  -54.2152  -20.5912 N   0  0  0  0  0  0  0  0  0  0  0  0
   -0.6747  -53.1658  -20.4085 C   0  0  0  0  0  0  0  0  0  0  0  0
   -0.6297  -52.5354  -19.1786 C   0  0  0  0  0  0  0  0  0  0  0  0
    0.2045  -51.4851  -18.9185 C   0  0  0  0  0  0  0  0  0  0  0  0
    1.0613  -51.0173  -19.9445 C   0  0  0  0  0  0  0  0  0  0  0  0
    1.0145  -51.6403  -21.1511 C   0  0  0  0  0  0  0  0  0  0  0  0
    0.1615  -52.7053  -21.3988 C   0  0  0  0  0  0  0  0  0  0  0  0
    1.9039  -49.9190  -19.6937 N   0  0  0  0  0  0  0  0  0  0  0  0
    1.7797  -48.6347  -20.2079 C   0  0  0  0  0  0  0  0  0  0  0  0
    0.8956  -48.2127  -21.0062 O   0  0  0  0  0  0  0  0  0  0  0  0
    2.7141  -50.1145  -19.0274 H   0  0  0  0  0  0  0  0  0  0  0  0
    2.7648  -47.5909  -19.8083 C   0  0  0  0  0  0  0  0  0  0  0  0
    3.5650  -46.9977  -20.6596 C   0  0  0  0  0  0  0  0  0  0  0  0
    0.9889  -52.8681  -23.7082 N   0  0  0  0  0  0  0  0  0  0  0  0
    1.9323  -52.4979  -23.4557 H   0  0  0  0  0  0  0  0  0  0  0  0
   -0.7792  -52.7372  -27.0554 C   0  0  0  0  0  0  0  0  0  0  0  0
   -0.5306  -52.7202  -25.6555 C   0  0  0  0  0  0  0  0  0  0  0  0
    0.6843  -52.8476  -25.0927 C   0  0  0  0  0  0  0  0  0  0  0  0
    1.7707  -53.0079  -26.0062 C   0  0  0  0  0  0  0  0  0  0  0  0
    3.0074  -53.1378  -25.4794 F   0  0  0  0  0  0  0  0  0  0  0  0
    1.6013  -53.0335  -27.3490 C   0  0  0  0  0  0  0  0  0  0  0  0
    0.3722  -52.9035  -27.8843 C   0  0  0  0  0  0  0  0  0  0  0  0
    0.1937  -52.9406  -29.6125 Cl  0  0  0  0  0  0  0  0  0  0  0  0
   -3.1212  -52.4825  -28.0455 C   0  0  0  0  0  0  0  0  0  0  0  0
   -1.9123  -52.6176  -27.5407 O   0  0  0  0  0  0  0  0  0  0  0  0
    0.2936  -50.8232  -17.7312 O   0  0  0  0  0  0  0  0  0  0  0  0
    0.3211  -51.2875  -16.4232 C   0  0  0  0  0  0  0  0  0  0  0  0
   -0.8955  -50.7125  -15.6448 C   0  0  0  0  0  0  0  0  0  0  0  0
   -2.0652  -51.3275  -15.8662 N   0  0  0  0  0  0  0  0  0  0  0  0
   -3.2564  -51.9540  -16.0918 C   0  0  0  0  0  0  0  0  0  0  0  0
   -4.4931  -51.1435  -15.6895 C   0  0  0  0  0  0  0  0  0  0  0  0
   -3.5202  -53.0617  -16.5629 O   0  0  0  0  0  0  0  0  0  0  0  0
   -1.4356  -52.4536  -16.3764 H   0  0  0  0  0  0  0  0  0  0  0  0
 27 28  1  0  0  0
 28 19  1  0  0  0
 19 20  2  0  0  0
 20 21  1  0  0  0
 21 17  1  0  0  0
 17  1  1  0  0  0
  1  2  2  0  0  0
  2  3  1  0  0  0
  3  4  2  0  0  0
  4  5  1  0  0  0
  5  6  2  0  0  0
  6  7  1  0  0  0
  7 29  1  0  0  0
 29 30  1  0  0  0
 30 31  1  0  0  0
 31 32  1  0  0  0
 32 33  1  0  0  0
 33 34  1  0  0  0
 33 35  2  0  0  0
  7  8  2  0  0  0
  8 11  1  0  0  0
 11 12  1  0  0  0
 12 13  2  0  0  0
 12 15  1  0  0  0
 15 16  2  0  0  0
  8  9  1  0  0  0
  9 10  2  0  0  0
 21 22  2  0  0  0
 22 23  1  0  0  0
 22 24  1  0  0  0
 24 25  2  0  0  0
 25 26  1  0  0  0
 25 19  1  0  0  0
 10  1  1  0  0  0
 10  5  1  0  0  0
 17 18  1  0  0  0
 32 36  1  0  0  0
 11 14  1  0  0  0
M  END
> <minimizedAffinity>
-7.99705

> <CNNscore>
0.7198191285

> <CNNaffinity>
7.5173873901

> <CNN_VS>
5.4111590385

> <CNNaffinity_variance>
0.1355637312

$$$$
[H]C([H])=C([H])C(=O)N([H])c1c(OC([H])([H])C([H])([H])N([H])C(=O)C([H])([H])[H])c([H])c2nc([H])nc(N([H])c3c([H])c(OC([H])([H])[H])c(Cl)c([H])c3F)c2c1[H]


 36 38  0  0  0  0  0  0  0  0999 V2000
    0.0970  -52.8066  -23.4810 C   0  0  0  0  0  0  0  0  0  0  0  0
   -0.4139  -53.8208  -24.1713 N   0  0  0  0  0  0  0  0  0  0  0  0
   -1.1126  -54.8212  -23.6585 C   0  0  0  0  0  0  0  0  0  0  0  0
   -1.3931  -54.9329  -22.3550 N   0  0  0  0  0  0  0  0  0  0  0  0
   -0.9007  -53.9231  -21.5777 C   0  0  0  0  0  0  0  0  0  0  0  0
   -1.1282  -53.9461  -20.2140 C   0  0  0  0  0  0  0  0  0  0  0  0
   -0.6615  -52.9765  -19.3722 C   0  0  0  0  0  0  0  0  0  0  0  0
    0.0868  -51.9011  -19.9100 C   0  0  0  0  0  0  0  0  0  0  0  0
    0.3088  -51.8830  -21.2504 C   0  0  0  0  0  0  0  0  0  0  0  0
   -0.1724  -52.8753  -22.0912 C   0  0  0  0  0  0  0  0  0  0  0  0
    0.5479  -50.8841  -19.0542 N   0  0  0  0  0  0  0  0  0  0  0  0
    1.8278  -50.7458  -18.5329 C   0  0  0  0  0  0  0  0  0  0  0  0
    2.8159  -51.5116  -18.7180 O   0  0  0  0  0  0  0  0  0  0  0  0
   -0.1788  -50.1460  -18.7979 H   0  0  0  0  0  0  0  0  0  0  0  0
    2.1353  -49.5828  -17.6540 C   0  0  0  0  0  0  0  0  0  0  0  0
    1.2275  -48.9665  -16.9376 C   0  0  0  0  0  0  0  0  0  0  0  0
    0.8219  -51.7486  -24.0370 N   0  0  0  0  0  0  0  0  0  0  0  0
    0.3095  -51.0622  -24.6346 H   0  0  0  0  0  0  0  0  0  0  0  0
    4.1840  -50.2196  -23.1968 C   0  0  0  0  0  0  0  0  0  0  0  0
    2.7816  -50.4336  -23.2932 C   0  0  0  0  0  0  0  0  0  0  0  0
    2.2089  -51.4972  -23.8846 C   0  0  0  0  0  0  0  0  0  0  0  0
    3.1141  -52.4528  -24.4396 C   0  0  0  0  0  0  0  0  0  0  0  0
    2.5771  -53.5360  -25.0413 F   0  0  0  0  0  0  0  0  0  0  0  0
    4.4588  -52.3077  -24.3822 C   0  0  0  0  0  0  0  0  0  0  0  0
    5.0040  -51.2317  -23.7832 C   0  0  0  0  0  0  0  0  0  0  0  0
    6.7343  -51.0798  -23.7285 Cl  0  0  0  0  0  0  0  0  0  0  0  0
    5.2169  -48.1790  -22.0571 C   0  0  0  0  0  0  0  0  0  0  0  0
    4.6785  -49.2274  -22.6449 O   0  0  0  0  0  0  0  0  0  0  0  0
   -0.8534  -52.9426  -18.0240 O   0  0  0  0  0  0  0  0  0  0  0  0
   -2.0149  -52.9460  -17.2635 C   0  0  0  0  0  0  0  0  0  0  0  0
   -1.9938  -51.7405  -16.2822 C   0  0  0  0  0  0  0  0  0  0  0  0
   -3.1647  -51.4509  -15.6986 N   0  0  0  0  0  0  0  0  0  0  0  0
   -4.3572  -51.1563  -15.1042 C   0  0  0  0  0  0  0  0  0  0  0  0
   -4.6741  -49.6599  -15.0102 C   0  0  0  0  0  0  0  0  0  0  0  0
   -5.2318  -51.8802  -14.6250 O   0  0  0  0  0  0  0  0  0  0  0  0
   -3.4500  -52.7921  -15.4872 H   0  0  0  0  0  0  0  0  0  0  0  0
 27 28  1  0  0  0
 28 19  1  0  0  0
 19 20  2  0  0  0
 20 21  1  0  0  0
 21 17  1  0  0  0
 17  1  1  0  0  0
  1  2  2  0  0  0
  2  3  1  0  0  0
  3  4  2  0  0  0
  4  5  1  0  0  0
  5  6  2  0  0  0
  6  7  1  0  0  0
  7 29  1  0  0  0
 29 30  1  0  0  0
 30 31  1  0  0  0
 31 32  1  0  0  0
 32 33  1  0  0  0
 33 34  1  0  0  0
 33 35  2  0  0  0
  7  8  2  0  0  0
  8 11  1  0  0  0
 11 12  1  0  0  0
 12 13  2  0  0  0
 12 15  1  0  0  0
 15 16  2  0  0  0
  8  9  1  0  0  0
  9 10  2  0  0  0
 21 22  2  0  0  0
 22 23  1  0  0  0
 22 24  1  0  0  0
 24 25  2  0  0  0
 25 26  1  0  0  0
 25 19  1  0  0  0
 10  1  1  0  0  0
 10  5  1  0  0  0
 17 18  1  0  0  0
 32 36  1  0  0  0
 11 14  1  0  0  0
M  END
> <minimizedAffinity>
-7.73484

> <CNNscore>
0.6718702912

> <CNNaffinity>
7.2328352928

> <CNN_VS>
4.8595271111

> <CNNaffinity_variance>
0.0677540228

$$$$
[H]C([H])=C([H])C(=O)N([H])c1c(OC([H])([H])C([H])([H])N([H])C(=O)C([H])([H])[H])c([H])c2nc([H])nc(N([H])c3c([H])c(OC([H])([H])[H])c(Cl)c([H])c3F)c2c1[H]


 36 38  0  0  0  0  0  0  0  0999 V2000
   -0.2681  -53.5856  -20.4362 C   0  0  0  0  0  0  0  0  0  0  0  0
   -1.2567  -54.3657  -20.8608 N   0  0  0  0  0  0  0  0  0  0  0  0
   -1.5913  -54.5568  -22.1270 C   0  0  0  0  0  0  0  0  0  0  0  0
   -0.9603  -53.9737  -23.1527 N   0  0  0  0  0  0  0  0  0  0  0  0
    0.0728  -53.1547  -22.7946 C   0  0  0  0  0  0  0  0  0  0  0  0
    0.7876  -52.4969  -23.7788 C   0  0  0  0  0  0  0  0  0  0  0  0
    1.8277  -51.6567  -23.4978 C   0  0  0  0  0  0  0  0  0  0  0  0
    2.1948  -51.4453  -22.1464 C   0  0  0  0  0  0  0  0  0  0  0  0
    1.4892  -52.0929  -21.1826 C   0  0  0  0  0  0  0  0  0  0  0  0
    0.4359  -52.9427  -21.4850 C   0  0  0  0  0  0  0  0  0  0  0  0
    3.2820  -50.6032  -21.8496 N   0  0  0  0  0  0  0  0  0  0  0  0
    4.6277  -50.9471  -21.8375 C   0  0  0  0  0  0  0  0  0  0  0  0
    5.1293  -52.0817  -22.0785 O   0  0  0  0  0  0  0  0  0  0  0  0
    3.0218  -49.5941  -21.6200 H   0  0  0  0  0  0  0  0  0  0  0  0
    5.6435  -49.9056  -21.5167 C   0  0  0  0  0  0  0  0  0  0  0  0
    6.9194  -50.1686  -21.3760 C   0  0  0  0  0  0  0  0  0  0  0  0
    0.0838  -53.4029  -19.0957 N   0  0  0  0  0  0  0  0  0  0  0  0
    1.0108  -53.7638  -18.7774 H   0  0  0  0  0  0  0  0  0  0  0  0
   -2.6406  -52.4842  -16.6298 C   0  0  0  0  0  0  0  0  0  0  0  0
   -1.8891  -53.1748  -17.6199 C   0  0  0  0  0  0  0  0  0  0  0  0
   -0.6950  -52.7741  -18.0916 C   0  0  0  0  0  0  0  0  0  0  0  0
   -0.1859  -51.5647  -17.5273 C   0  0  0  0  0  0  0  0  0  0  0  0
    1.0119  -51.1300  -17.9745 F   0  0  0  0  0  0  0  0  0  0  0  0
   -0.8518  -50.8597  -16.5828 C   0  0  0  0  0  0  0  0  0  0  0  0
   -2.0464  -51.2854  -16.1293 C   0  0  0  0  0  0  0  0  0  0  0  0
   -2.8717  -50.3544  -14.9159 Cl  0  0  0  0  0  0  0  0  0  0  0  0
   -4.9067  -53.3140  -15.7894 C   0  0  0  0  0  0  0  0  0  0  0  0
   -3.7389  -52.8813  -16.2178 O   0  0  0  0  0  0  0  0  0  0  0  0
    2.5695  -50.9830  -24.4206 O   0  0  0  0  0  0  0  0  0  0  0  0
    3.4220  -51.4357  -25.4183 C   0  0  0  0  0  0  0  0  0  0  0  0
    2.7626  -51.2029  -26.8067 C   0  0  0  0  0  0  0  0  0  0  0  0
    2.2832  -52.2996  -27.4090 N   0  0  0  0  0  0  0  0  0  0  0  0
    1.7952  -53.4166  -28.0225 C   0  0  0  0  0  0  0  0  0  0  0  0
    0.2776  -53.5976  -27.9115 C   0  0  0  0  0  0  0  0  0  0  0  0
    2.3574  -54.3134  -28.6536 O   0  0  0  0  0  0  0  0  0  0  0  0
    3.5486  -52.6869  -27.8257 H   0  0  0  0  0  0  0  0  0  0  0  0
 27 28  1  0  0  0
 28 19  1  0  0  0
 19 20  2  0  0  0
 20 21  1  0  0  0
 21 17  1  0  0  0
 17  1  1  0  0  0
  1  2  2  0  0  0
  2  3  1  0  0  0
  3  4  2  0  0  0
  4  5  1  0  0  0
  5  6  2  0  0  0
  6  7  1  0  0  0
  7 29  1  0  0  0
 29 30  1  0  0  0
 30 31  1  0  0  0
 31 32  1  0  0  0
 32 33  1  0  0  0
 33 34  1  0  0  0
 33 35  2  0  0  0
  7  8  2  0  0  0
  8 11  1  0  0  0
 11 12  1  0  0  0
 12 13  2  0  0  0
 12 15  1  0  0  0
 15 16  2  0  0  0
  8  9  1  0  0  0
  9 10  2  0  0  0
 21 22  2  0  0  0
 22 23  1  0  0  0
 22 24  1  0  0  0
 24 25  2  0  0  0
 25 26  1  0  0  0
 25 19  1  0  0  0
 10  1  1  0  0  0
 10  5  1  0  0  0
 17 18  1  0  0  0
 32 36  1  0  0  0
 11 14  1  0  0  0
M  END
> <minimizedAffinity>
-7.63952

> <CNNscore>
0.6606426239

> <CNNaffinity>
7.3979811668

> <CNN_VS>
4.8874216080

> <CNNaffinity_variance>
0.0725276619

$$$$
[H]C([H])=C([H])C(=O)N([H])c1c(OC([H])([H])C([H])([H])N([H])C(=O)C([H])([H])[H])c([H])c2nc([H])nc(N([H])c3c([H])c(OC([H])([H])[H])c(Cl)c([H])c3F)c2c1[H]


 36 38  0  0  0  0  0  0  0  0999 V2000
   -0.2354  -53.5576  -20.5326 C   0  0  0  0  0  0  0  0  0  0  0  0
   -1.0463  -54.5350  -20.9238 N   0  0  0  0  0  0  0  0  0  0  0  0
   -1.4138  -54.7710  -22.1733 C   0  0  0  0  0  0  0  0  0  0  0  0
   -1.0039  -54.0366  -23.2138 N   0  0  0  0  0  0  0  0  0  0  0  0
   -0.1631  -53.0096  -22.8903 C   0  0  0  0  0  0  0  0  0  0  0  0
    0.3139  -52.1841  -23.8919 C   0  0  0  0  0  0  0  0  0  0  0  0
    1.1514  -51.1333  -23.6449 C   0  0  0  0  0  0  0  0  0  0  0  0
    1.5516  -50.8719  -22.3118 C   0  0  0  0  0  0  0  0  0  0  0  0
    1.0798  -51.6849  -21.3307 C   0  0  0  0  0  0  0  0  0  0  0  0
    0.2302  -52.7477  -21.5985 C   0  0  0  0  0  0  0  0  0  0  0  0
    2.4355  -49.8086  -22.0517 N   0  0  0  0  0  0  0  0  0  0  0  0
    2.1162  -48.5670  -21.5174 C   0  0  0  0  0  0  0  0  0  0  0  0
    0.9724  -48.1528  -21.1752 O   0  0  0  0  0  0  0  0  0  0  0  0
    3.4572  -50.0023  -22.2908 H   0  0  0  0  0  0  0  0  0  0  0  0
    3.1996  -47.5691  -21.2937 C   0  0  0  0  0  0  0  0  0  0  0  0
    4.2118  -47.7790  -20.4884 C   0  0  0  0  0  0  0  0  0  0  0  0
    0.1559  -53.3274  -19.2105 N   0  0  0  0  0  0  0  0  0  0  0  0
    1.1153  -53.6239  -18.9232 H   0  0  0  0  0  0  0  0  0  0  0  0
   -2.5573  -52.4919  -16.7029 C   0  0  0  0  0  0  0  0  0  0  0  0
   -1.8064  -53.1531  -17.7134 C   0  0  0  0  0  0  0  0  0  0  0  0
   -0.6214  -52.7286  -18.1871 C   0  0  0  0  0  0  0  0  0  0  0  0
   -0.1217  -51.5248  -17.6025 C   0  0  0  0  0  0  0  0  0  0  0  0
    1.0669  -51.0668  -18.0511 F   0  0  0  0  0  0  0  0  0  0  0  0
   -0.7876  -50.8472  -16.6382 C   0  0  0  0  0  0  0  0  0  0  0  0
   -1.9730  -51.2965  -16.1831 C   0  0  0  0  0  0  0  0  0  0  0  0
   -2.7984  -50.4003  -14.9440 Cl  0  0  0  0  0  0  0  0  0  0  0  0
   -4.8126  -53.3457  -15.8578 C   0  0  0  0  0  0  0  0  0  0  0  0
   -3.6470  -52.9105  -16.2896 O   0  0  0  0  0  0  0  0  0  0  0  0
    1.6552  -50.2874  -24.5863 O   0  0  0  0  0  0  0  0  0  0  0  0
    2.4748  -50.5200  -25.6824 C   0  0  0  0  0  0  0  0  0  0  0  0
    3.8720  -49.8884  -25.4263 C   0  0  0  0  0  0  0  0  0  0  0  0
    4.7360  -50.6548  -24.7470 N   0  0  0  0  0  0  0  0  0  0  0  0
    5.6159  -51.4355  -24.0552 C   0  0  0  0  0  0  0  0  0  0  0  0
    6.5918  -50.6636  -23.1608 C   0  0  0  0  0  0  0  0  0  0  0  0
    5.7700  -52.6576  -24.0194 O   0  0  0  0  0  0  0  0  0  0  0  0
    4.2122  -51.8182  -25.2917 H   0  0  0  0  0  0  0  0  0  0  0  0
 27 28  1  0  0  0
 28 19  1  0  0  0
 19 20  2  0  0  0
 20 21  1  0  0  0
 21 17  1  0  0  0
 17  1  1  0  0  0
  1  2  2  0  0  0
  2  3  1  0  0  0
  3  4  2  0  0  0
  4  5  1  0  0  0
  5  6  2  0  0  0
  6  7  1  0  0  0
  7 29  1  0  0  0
 29 30  1  0  0  0
 30 31  1  0  0  0
 31 32  1  0  0  0
 32 33  1  0  0  0
 33 34  1  0  0  0
 33 35  2  0  0  0
  7  8  2  0  0  0
  8 11  1  0  0  0
 11 12  1  0  0  0
 12 13  2  0  0  0
 12 15  1  0  0  0
 15 16  2  0  0  0
  8  9  1  0  0  0
  9 10  2  0  0  0
 21 22  2  0  0  0
 22 23  1  0  0  0
 22 24  1  0  0  0
 24 25  2  0  0  0
 25 26  1  0  0  0
 25 19  1  0  0  0
 10  1  1  0  0  0
 10  5  1  0  0  0
 17 18  1  0  0  0
 32 36  1  0  0  0
 11 14  1  0  0  0
M  END
> <minimizedAffinity>
-6.88708

> <CNNscore>
0.6330410242

> <CNNaffinity>
7.1815452576

> <CNN_VS>
4.5462126732

> <CNNaffinity_variance>
0.0505260341

$$$$
[H]c1nc(N([H])c2c([H])c([H])c(Br)c([H])c2[H])c2c([H])c(OC([H])([H])[H])c(OC([H])([H])[H])c([H])c2n1


 23 25  0  0  0  0  0  0  0  0999 V2000
   -0.0286  -51.7298  -18.7085 C   0  0  0  0  0  0  0  0  0  0  0  0
   -0.6089  -52.8852  -19.1694 C   0  0  0  0  0  0  0  0  0  0  0  0
   -0.5696  -53.2575  -20.5018 C   0  0  0  0  0  0  0  0  0  0  0  0
   -1.1410  -54.3967  -20.9381 N   0  0  0  0  0  0  0  0  0  0  0  0
   -1.1047  -54.7675  -22.2269 C   0  0  0  0  0  0  0  0  0  0  0  0
   -0.4766  -53.9644  -23.0832 N   0  0  0  0  0  0  0  0  0  0  0  0
    0.1147  -52.8137  -22.7164 C   0  0  0  0  0  0  0  0  0  0  0  0
    0.0880  -52.4092  -21.3752 C   0  0  0  0  0  0  0  0  0  0  0  0
    0.6795  -51.2457  -20.9493 C   0  0  0  0  0  0  0  0  0  0  0  0
    0.6241  -50.8924  -19.5890 C   0  0  0  0  0  0  0  0  0  0  0  0
   -1.1119  -51.7180  -16.4754 C   0  0  0  0  0  0  0  0  0  0  0  0
   -0.0936  -51.4018  -17.3707 O   0  0  0  0  0  0  0  0  0  0  0  0
    0.7198  -52.0054  -23.6701 N   0  0  0  0  0  0  0  0  0  0  0  0
    1.3764  -51.2123  -23.4930 H   0  0  0  0  0  0  0  0  0  0  0  0
    0.4820  -52.2007  -25.0769 C   0  0  0  0  0  0  0  0  0  0  0  0
    1.4575  -52.6708  -25.9138 C   0  0  0  0  0  0  0  0  0  0  0  0
    1.1398  -52.8678  -27.2489 C   0  0  0  0  0  0  0  0  0  0  0  0
   -0.1044  -52.6114  -27.7627 C   0  0  0  0  0  0  0  0  0  0  0  0
   -0.5573  -52.8744  -29.5872 Br  0  0  0  0  0  0  0  0  0  0  0  0
   -1.0618  -52.1384  -26.8940 C   0  0  0  0  0  0  0  0  0  0  0  0
   -0.8041  -51.9263  -25.5683 C   0  0  0  0  0  0  0  0  0  0  0  0
    1.2261  -49.7156  -19.1761 O   0  0  0  0  0  0  0  0  0  0  0  0
    1.4565  -48.6917  -20.1178 C   0  0  0  0  0  0  0  0  0  0  0  0
 11 12  1  0  0  0
 12  1  1  0  0  0
  1  2  2  0  0  0
  2  3  1  0  0  0
  3  4  2  0  0  0
  4  5  1  0  0  0
  5  6  2  0  0  0
  6  7  1  0  0  0
  7 13  1  0  0  0
 13 15  1  0  0  0
 15 16  2  0  0  0
 16 17  1  0  0  0
 17 18  2  0  0  0
 18 19  1  0  0  0
 18 20  1  0  0  0
 20 21  2  0  0  0
  7  8  2  0  0  0
  8  9  1  0  0  0
  9 10  2  0  0  0
 10 22  1  0  0  0
 22 23  1  0  0  0
 10  1  1  0  0  0
  8  3  1  0  0  0
 21 15  1  0  0  0
 13 14  1  0  0  0
M  END
> <minimizedAffinity>
-7.49019

> <CNNscore>
0.9190376997

> <CNNaffinity>
6.4769415855

> <CNN_VS>
5.9525532722

> <CNNaffinity_variance>
0.1318055689

$$$$
[H]c1nc(N([H])c2c([H])c([H])c(Br)c([H])c2[H])c2c([H])c(OC([H])([H])[H])c(OC([H])([H])[H])c([H])c2n1


 23 25  0  0  0  0  0  0  0  0999 V2000
   -0.2220  -51.8574  -19.0096 C   0  0  0  0  0  0  0  0  0  0  0  0
   -0.8067  -53.0189  -19.4492 C   0  0  0  0  0  0  0  0  0  0  0  0
   -0.8230  -53.3849  -20.7839 C   0  0  0  0  0  0  0  0  0  0  0  0
   -1.3977  -54.5301  -21.1993 N   0  0  0  0  0  0  0  0  0  0  0  0
   -1.4152  -54.8949  -22.4902 C   0  0  0  0  0  0  0  0  0  0  0  0
   -0.8382  -54.0792  -23.3704 N   0  0  0  0  0  0  0  0  0  0  0  0
   -0.2469  -52.9219  -23.0252 C   0  0  0  0  0  0  0  0  0  0  0  0
   -0.2179  -52.5236  -21.6822 C   0  0  0  0  0  0  0  0  0  0  0  0
    0.3761  -51.3536  -21.2780 C   0  0  0  0  0  0  0  0  0  0  0  0
    0.3780  -51.0070  -19.9148 C   0  0  0  0  0  0  0  0  0  0  0  0
   -0.7893  -52.2757  -16.6297 C   0  0  0  0  0  0  0  0  0  0  0  0
   -0.2304  -51.5361  -17.6686 O   0  0  0  0  0  0  0  0  0  0  0  0
    0.3028  -52.1009  -24.0015 N   0  0  0  0  0  0  0  0  0  0  0  0
   -0.2012  -51.6538  -24.7998 H   0  0  0  0  0  0  0  0  0  0  0  0
    1.7047  -51.7715  -24.0003 C   0  0  0  0  0  0  0  0  0  0  0  0
    2.1478  -50.5104  -23.7067 C   0  0  0  0  0  0  0  0  0  0  0  0
    3.5152  -50.2812  -23.6894 C   0  0  0  0  0  0  0  0  0  0  0  0
    4.4365  -51.2605  -23.9539 C   0  0  0  0  0  0  0  0  0  0  0  0
    6.3114  -50.9652  -23.9354 Br  0  0  0  0  0  0  0  0  0  0  0  0
    3.9568  -52.5171  -24.2466 C   0  0  0  0  0  0  0  0  0  0  0  0
    2.6196  -52.7996  -24.2771 C   0  0  0  0  0  0  0  0  0  0  0  0
    0.9817  -49.8236  -19.5240 O   0  0  0  0  0  0  0  0  0  0  0  0
    2.0054  -49.2749  -20.3236 C   0  0  0  0  0  0  0  0  0  0  0  0
 11 12  1  0  0  0
 12  1  1  0  0  0
  1  2  2  0  0  0
  2  3  1  0  0  0
  3  4  2  0  0  0
  4  5  1  0  0  0
  5  6  2  0  0  0
  6  7  1  0  0  0
  7 13  1  0  0  0
 13 15  1  0  0  0
 15 16  2  0  0  0
 16 17  1  0  0  0
 17 18  2  0  0  0
 18 19  1  0  0  0
 18 20  1  0  0  0
 20 21  2  0  0  0
  7  8  2  0  0  0
  8  9  1  0  0  0
  9 10  2  0  0  0
 10 22  1  0  0  0
 22 23  1  0  0  0
 10  1  1  0  0  0
  8  3  1  0  0  0
 21 15  1  0  0  0
 13 14  1  0  0  0
M  END
> <minimizedAffinity>
-6.71673

> <CNNscore>
0.7411941290

> <CNNaffinity>
6.0275664330

> <CNN_VS>
4.4675970078

> <CNNaffinity_variance>
0.1009250060

$$$$
[H]c1nc(N([H])c2c([H])c([H])c(Br)c([H])c2[H])c2c([H])c(OC([H])([H])[H])c(OC([H])([H])[H])c([H])c2n1


 23 25  0  0  0  0  0  0  0  0999 V2000
   -0.3805  -53.6978  -25.1047 C   0  0  0  0  0  0  0  0  0  0  0  0
   -0.8065  -54.3771  -23.9906 C   0  0  0  0  0  0  0  0  0  0  0  0
   -0.7662  -53.8253  -22.7220 C   0  0  0  0  0  0  0  0  0  0  0  0
   -1.1915  -54.5035  -21.6386 N   0  0  0  0  0  0  0  0  0  0  0  0
   -1.1596  -53.9755  -20.4057 C   0  0  0  0  0  0  0  0  0  0  0  0
   -0.6868  -52.7376  -20.2759 N   0  0  0  0  0  0  0  0  0  0  0  0
   -0.2462  -52.0044  -21.3135 C   0  0  0  0  0  0  0  0  0  0  0  0
   -0.2716  -52.5379  -22.6088 C   0  0  0  0  0  0  0  0  0  0  0  0
    0.1633  -51.8291  -23.7014 C   0  0  0  0  0  0  0  0  0  0  0  0
    0.1105  -52.4149  -24.9790 C   0  0  0  0  0  0  0  0  0  0  0  0
    0.3068  -55.3730  -26.8022 C   0  0  0  0  0  0  0  0  0  0  0  0
   -0.4412  -54.2899  -26.3486 O   0  0  0  0  0  0  0  0  0  0  0  0
    0.2695  -50.7326  -21.0999 N   0  0  0  0  0  0  0  0  0  0  0  0
   -0.2729  -49.8631  -20.8965 H   0  0  0  0  0  0  0  0  0  0  0  0
    1.6871  -50.4828  -21.1418 C   0  0  0  0  0  0  0  0  0  0  0  0
    2.2043  -49.3666  -21.7415 C   0  0  0  0  0  0  0  0  0  0  0  0
    3.5775  -49.1781  -21.7075 C   0  0  0  0  0  0  0  0  0  0  0  0
    4.4340  -50.0598  -21.1018 C   0  0  0  0  0  0  0  0  0  0  0  0
    6.3160  -49.8188  -21.0458 Br  0  0  0  0  0  0  0  0  0  0  0  0
    3.8810  -51.1725  -20.5093 C   0  0  0  0  0  0  0  0  0  0  0  0
    2.5344  -51.4082  -20.5123 C   0  0  0  0  0  0  0  0  0  0  0  0
    0.5528  -51.6863  -26.0704 O   0  0  0  0  0  0  0  0  0  0  0  0
    1.9374  -51.5890  -26.3191 C   0  0  0  0  0  0  0  0  0  0  0  0
 11 12  1  0  0  0
 12  1  1  0  0  0
  1  2  2  0  0  0
  2  3  1  0  0  0
  3  4  2  0  0  0
  4  5  1  0  0  0
  5  6  2  0  0  0
  6  7  1  0  0  0
  7 13  1  0  0  0
 13 15  1  0  0  0
 15 16  2  0  0  0
 16 17  1  0  0  0
 17 18  2  0  0  0
 18 19  1  0  0  0
 18 20  1  0  0  0
 20 21  2  0  0  0
  7  8  2  0  0  0
  8  9  1  0  0  0
  9 10  2  0  0  0
 10 22  1  0  0  0
 22 23  1  0  0  0
 10  1  1  0  0  0
  8  3  1  0  0  0
 21 15  1  0  0  0
 13 14  1  0  0  0
M  END
> <minimizedAffinity>
-6.44069

> <CNNscore>
0.5171613693

> <CNNaffinity>
5.9445452690

> <CNN_VS>
3.0742890835

> <CNNaffinity_variance>
0.2459089309

$$$$
[H]c1nc(N([H])c2c([H])c([H])c(Br)c([H])c2[H])c2c([H])c(OC([H])([H])[H])c(OC([H])([H])[H])c([H])c2n1


 23 25  0  0  0  0  0  0  0  0999 V2000
    1.3056  -52.3510  -25.5956 C   0  0  0  0  0  0  0  0  0  0  0  0
    0.3241  -53.2449  -25.2467 C   0  0  0  0  0  0  0  0  0  0  0  0
    0.0152  -53.5340  -23.9289 C   0  0  0  0  0  0  0  0  0  0  0  0
   -0.9535  -54.4112  -23.6024 N   0  0  0  0  0  0  0  0  0  0  0  0
   -1.2624  -54.6949  -22.3281 C   0  0  0  0  0  0  0  0  0  0  0  0
   -0.5727  -54.0748  -21.3727 N   0  0  0  0  0  0  0  0  0  0  0  0
    0.4063  -53.1888  -21.6272 C   0  0  0  0  0  0  0  0  0  0  0  0
    0.7435  -52.8790  -22.9514 C   0  0  0  0  0  0  0  0  0  0  0  0
    1.7322  -51.9790  -23.2640 C   0  0  0  0  0  0  0  0  0  0  0  0
    2.0246  -51.7044  -24.6120 C   0  0  0  0  0  0  0  0  0  0  0  0
    2.4326  -52.8068  -27.7596 C   0  0  0  0  0  0  0  0  0  0  0  0
    1.5765  -52.0952  -26.9233 O   0  0  0  0  0  0  0  0  0  0  0  0
    1.1105  -52.6075  -20.5807 N   0  0  0  0  0  0  0  0  0  0  0  0
    2.1373  -52.4178  -20.5461 H   0  0  0  0  0  0  0  0  0  0  0  0
    0.4467  -52.1872  -19.3738 C   0  0  0  0  0  0  0  0  0  0  0  0
   -0.4671  -52.9845  -18.7395 C   0  0  0  0  0  0  0  0  0  0  0  0
   -1.0355  -52.5247  -17.5614 C   0  0  0  0  0  0  0  0  0  0  0  0
   -0.7222  -51.3103  -17.0093 C   0  0  0  0  0  0  0  0  0  0  0  0
   -1.4902  -50.6642  -15.3982 Br  0  0  0  0  0  0  0  0  0  0  0  0
    0.1996  -50.5329  -17.6735 C   0  0  0  0  0  0  0  0  0  0  0  0
    0.7916  -50.9364  -18.8377 C   0  0  0  0  0  0  0  0  0  0  0  0
    3.0246  -50.7939  -24.9100 O   0  0  0  0  0  0  0  0  0  0  0  0
    4.3399  -51.0452  -24.4680 C   0  0  0  0  0  0  0  0  0  0  0  0
 11 12  1  0  0  0
 12  1  1  0  0  0
  1  2  2  0  0  0
  2  3  1  0  0  0
  3  4  2  0  0  0
  4  5  1  0  0  0
  5  6  2  0  0  0
  6  7  1  0  0  0
  7 13  1  0  0  0
 13 15  1  0  0  0
 15 16  2  0  0  0
 16 17  1  0  0  0
 17 18  2  0  0  0
 18 19  1  0  0  0
 18 20  1  0  0  0
 20 21  2  0  0  0
  7  8  2  0  0  0
  8  9  1  0  0  0
  9 10  2  0  0  0
 10 22  1  0  0  0
 22 23  1  0  0  0
 10  1  1  0  0  0
  8  3  1  0  0  0
 21 15  1  0  0  0
 13 14  1  0  0  0
M  END
> <minimizedAffinity>
-6.42887

> <CNNscore>
0.5080690980

> <CNNaffinity>
6.0347824097

> <CNN_VS>
3.0660865307

> <CNNaffinity_variance>
0.2262511253

$$$$
[H]c1nc(N([H])c2c([H])c([H])c(Br)c([H])c2[H])c2c([H])c(OC([H])([H])[H])c(OC([H])([H])[H])c([H])c2n1


 23 25  0  0  0  0  0  0  0  0999 V2000
    0.1891  -53.0910  -24.6558 C   0  0  0  0  0  0  0  0  0  0  0  0
   -0.7749  -53.4778  -23.7585 C   0  0  0  0  0  0  0  0  0  0  0  0
   -0.6011  -53.3756  -22.3893 C   0  0  0  0  0  0  0  0  0  0  0  0
   -1.5584  -53.7562  -21.5213 N   0  0  0  0  0  0  0  0  0  0  0  0
   -1.4003  -53.6574  -20.1928 C   0  0  0  0  0  0  0  0  0  0  0  0
   -0.2486  -53.1633  -19.7430 N   0  0  0  0  0  0  0  0  0  0  0  0
    0.7486  -52.7646  -20.5522 C   0  0  0  0  0  0  0  0  0  0  0  0
    0.6026  -52.8595  -21.9425 C   0  0  0  0  0  0  0  0  0  0  0  0
    1.5891  -52.4628  -22.8112 C   0  0  0  0  0  0  0  0  0  0  0  0
    1.3849  -52.5779  -24.1980 C   0  0  0  0  0  0  0  0  0  0  0  0
    0.1865  -54.3364  -26.8027 C   0  0  0  0  0  0  0  0  0  0  0  0
   -0.0310  -53.2114  -26.0117 O   0  0  0  0  0  0  0  0  0  0  0  0
    1.9387  -52.2936  -20.0129 N   0  0  0  0  0  0  0  0  0  0  0  0
    2.6804  -52.8597  -19.5430 H   0  0  0  0  0  0  0  0  0  0  0  0
    2.2786  -50.8949  -20.0563 C   0  0  0  0  0  0  0  0  0  0  0  0
    1.3294  -49.9185  -19.9191 C   0  0  0  0  0  0  0  0  0  0  0  0
    1.7407  -48.5945  -19.9342 C   0  0  0  0  0  0  0  0  0  0  0  0
    3.0521  -48.2252  -20.0811 C   0  0  0  0  0  0  0  0  0  0  0  0
    3.6336  -46.4185  -20.1048 Br  0  0  0  0  0  0  0  0  0  0  0  0
    3.9808  -49.2320  -20.2179 C   0  0  0  0  0  0  0  0  0  0  0  0
    3.6317  -50.5537  -20.2096 C   0  0  0  0  0  0  0  0  0  0  0  0
    2.3899  -52.1730  -25.0604 O   0  0  0  0  0  0  0  0  0  0  0  0
    3.6811  -52.7221  -24.9206 C   0  0  0  0  0  0  0  0  0  0  0  0
 11 12  1  0  0  0
 12  1  1  0  0  0
  1  2  2  0  0  0
  2  3  1  0  0  0
  3  4  2  0  0  0
  4  5  1  0  0  0
  5  6  2  0  0  0
  6  7  1  0  0  0
  7 13  1  0  0  0
 13 15  1  0  0  0
 15 16  2  0  0  0
 16 17  1  0  0  0
 17 18  2  0  0  0
 18 19  1  0  0  0
 18 20  1  0  0  0
 20 21  2  0  0  0
  7  8  2  0  0  0
  8  9  1  0  0  0
  9 10  2  0  0  0
 10 22  1  0  0  0
 22 23  1  0  0  0
 10  1  1  0  0  0
  8  3  1  0  0  0
 21 15  1  0  0  0
 13 14  1  0  0  0
M  END
> <minimizedAffinity>
-5.85161

> <CNNscore>
0.4730317593

> <CNNaffinity>
5.9366068840

> <CNN_VS>
2.8082036972

> <CNNaffinity_variance>
0.3171747625

$$$$
[H]c1nc(N([H])c2c([H])c([H])c(Br)c([H])c2[H])c2c([H])c(OC([H])([H])[H])c(OC([H])([H])[H])c([H])c2n1


 23 25  0  0  0  0  0  0  0  0999 V2000
   -0.6878  -55.9341  -25.0863 C   0  0  0  0  0  0  0  0  0  0  0  0
   -1.0975  -55.8065  -23.7824 C   0  0  0  0  0  0  0  0  0  0  0  0
   -0.9814  -54.6205  -23.0786 C   0  0  0  0  0  0  0  0  0  0  0  0
   -1.3915  -54.5101  -21.8003 N   0  0  0  0  0  0  0  0  0  0  0  0
   -1.2864  -53.3638  -21.1113 C   0  0  0  0  0  0  0  0  0  0  0  0
   -0.7548  -52.3146  -21.7355 N   0  0  0  0  0  0  0  0  0  0  0  0
   -0.3250  -52.3546  -23.0091 C   0  0  0  0  0  0  0  0  0  0  0  0
   -0.4265  -53.5424  -23.7454 C   0  0  0  0  0  0  0  0  0  0  0  0
   -0.0057  -53.6340  -25.0491 C   0  0  0  0  0  0  0  0  0  0  0  0
   -0.1362  -54.8521  -25.7401 C   0  0  0  0  0  0  0  0  0  0  0  0
   -1.6691  -58.1912  -25.4074 C   0  0  0  0  0  0  0  0  0  0  0  0
   -0.8250  -57.1370  -25.7463 O   0  0  0  0  0  0  0  0  0  0  0  0
    0.2543  -51.2316  -23.5855 N   0  0  0  0  0  0  0  0  0  0  0  0
   -0.2441  -50.4297  -24.0325 H   0  0  0  0  0  0  0  0  0  0  0  0
    1.6838  -51.0610  -23.6204 C   0  0  0  0  0  0  0  0  0  0  0  0
    2.5061  -51.6885  -22.7242 C   0  0  0  0  0  0  0  0  0  0  0  0
    3.8748  -51.5039  -22.8463 C   0  0  0  0  0  0  0  0  0  0  0  0
    4.4353  -50.7219  -23.8220 C   0  0  0  0  0  0  0  0  0  0  0  0
    6.3060  -50.4570  -24.0042 Br  0  0  0  0  0  0  0  0  0  0  0  0
    3.5798  -50.1042  -24.7061 C   0  0  0  0  0  0  0  0  0  0  0  0
    2.2227  -50.2515  -24.6329 C   0  0  0  0  0  0  0  0  0  0  0  0
    0.2929  -54.9273  -27.0547 O   0  0  0  0  0  0  0  0  0  0  0  0
    0.2222  -53.7789  -27.8698 C   0  0  0  0  0  0  0  0  0  0  0  0
 11 12  1  0  0  0
 12  1  1  0  0  0
  1  2  2  0  0  0
  2  3  1  0  0  0
  3  4  2  0  0  0
  4  5  1  0  0  0
  5  6  2  0  0  0
  6  7  1  0  0  0
  7 13  1  0  0  0
 13 15  1  0  0  0
 15 16  2  0  0  0
 16 17  1  0  0  0
 17 18  2  0  0  0
 18 19  1  0  0  0
 18 20  1  0  0  0
 20 21  2  0  0  0
  7  8  2  0  0  0
  8  9  1  0  0  0
  9 10  2  0  0  0
 10 22  1  0  0  0
 22 23  1  0  0  0
 10  1  1  0  0  0
  8  3  1  0  0  0
 21 15  1  0  0  0
 13 14  1  0  0  0
M  END
> <minimizedAffinity>
-4.57894

> <CNNscore>
0.4491192102

> <CNNaffinity>
5.8187155724

> <CNN_VS>
2.6132969856

> <CNNaffinity_variance>
0.2737826705

$$$$
[H]c1nc(N([H])c2c([H])c([H])c(Br)c([H])c2[H])c2c([H])c(OC([H])([H])[H])c(OC([H])([H])[H])c([H])c2n1


 23 25  0  0  0  0  0  0  0  0999 V2000
   -0.1882  -53.3267  -25.8230 C   0  0  0  0  0  0  0  0  0  0  0  0
   -0.7694  -53.9864  -24.7689 C   0  0  0  0  0  0  0  0  0  0  0  0
   -0.4015  -53.7584  -23.4543 C   0  0  0  0  0  0  0  0  0  0  0  0
   -0.9840  -54.4113  -22.4302 N   0  0  0  0  0  0  0  0  0  0  0  0
   -0.6365  -54.1943  -21.1527 C   0  0  0  0  0  0  0  0  0  0  0  0
    0.3195  -53.2981  -20.9165 N   0  0  0  0  0  0  0  0  0  0  0  0
    0.9426  -52.6110  -21.8901 C   0  0  0  0  0  0  0  0  0  0  0  0
    0.5937  -52.8233  -23.2304 C   0  0  0  0  0  0  0  0  0  0  0  0
    1.1971  -52.1450  -24.2604 C   0  0  0  0  0  0  0  0  0  0  0  0
    0.8028  -52.3968  -25.5868 C   0  0  0  0  0  0  0  0  0  0  0  0
   -1.3984  -52.7917  -27.9229 C   0  0  0  0  0  0  0  0  0  0  0  0
   -0.5895  -53.5876  -27.1162 O   0  0  0  0  0  0  0  0  0  0  0  0
    1.9583  -51.7181  -21.5734 N   0  0  0  0  0  0  0  0  0  0  0  0
    2.7630  -51.4443  -22.1808 H   0  0  0  0  0  0  0  0  0  0  0  0
    1.9952  -51.0472  -20.2997 C   0  0  0  0  0  0  0  0  0  0  0  0
    1.0700  -50.0981  -19.9586 C   0  0  0  0  0  0  0  0  0  0  0  0
    1.1501  -49.5243  -18.6990 C   0  0  0  0  0  0  0  0  0  0  0  0
    2.1135  -49.8661  -17.7863 C   0  0  0  0  0  0  0  0  0  0  0  0
    2.2392  -49.0912  -16.0581 Br  0  0  0  0  0  0  0  0  0  0  0  0
    3.0290  -50.8230  -18.1620 C   0  0  0  0  0  0  0  0  0  0  0  0
    2.9970  -51.4219  -19.3905 C   0  0  0  0  0  0  0  0  0  0  0  0
    1.4213  -51.7038  -26.6140 O   0  0  0  0  0  0  0  0  0  0  0  0
    2.6380  -52.1876  -27.1373 C   0  0  0  0  0  0  0  0  0  0  0  0
 11 12  1  0  0  0
 12  1  1  0  0  0
  1  2  2  0  0  0
  2  3  1  0  0  0
  3  4  2  0  0  0
  4  5  1  0  0  0
  5  6  2  0  0  0
  6  7  1  0  0  0
  7 13  1  0  0  0
 13 15  1  0  0  0
 15 16  2  0  0  0
 16 17  1  0  0  0
 17 18  2  0  0  0
 18 19  1  0  0  0
 18 20  1  0  0  0
 20 21  2  0  0  0
  7  8  2  0  0  0
  8  9  1  0  0  0
  9 10  2  0  0  0
 10 22  1  0  0  0
 22 23  1  0  0  0
 10  1  1  0  0  0
  8  3  1  0  0  0
 21 15  1  0  0  0
 13 14  1  0  0  0
M  END
> <minimizedAffinity>
-6.29530

> <CNNscore>
0.4200212657

> <CNNaffinity>
6.0659856796

> <CNN_VS>
2.5478429794

> <CNNaffinity_variance>
0.5497171879

$$$$
[H]c1nc(N([H])c2c([H])c([H])c(Br)c([H])c2[H])c2c([H])c(OC([H])([H])[H])c(OC([H])([H])[H])c([H])c2n1


 23 25  0  0  0  0  0  0  0  0999 V2000
    0.7927  -52.6143  -27.3190 C   0  0  0  0  0  0  0  0  0  0  0  0
   -0.0927  -53.3703  -26.5920 C   0  0  0  0  0  0  0  0  0  0  0  0
   -0.0379  -53.4584  -25.2119 C   0  0  0  0  0  0  0  0  0  0  0  0
   -0.9165  -54.2020  -24.5121 N   0  0  0  0  0  0  0  0  0  0  0  0
   -0.8734  -54.2905  -23.1742 C   0  0  0  0  0  0  0  0  0  0  0  0
    0.0803  -53.6107  -22.5407 N   0  0  0  0  0  0  0  0  0  0  0  0
    0.9891  -52.8499  -23.1760 C   0  0  0  0  0  0  0  0  0  0  0  0
    0.9605  -52.7444  -24.5729 C   0  0  0  0  0  0  0  0  0  0  0  0
    1.8632  -51.9782  -25.2680 C   0  0  0  0  0  0  0  0  0  0  0  0
    1.7835  -51.9069  -26.6705 C   0  0  0  0  0  0  0  0  0  0  0  0
   -0.4267  -52.8249  -29.4706 C   0  0  0  0  0  0  0  0  0  0  0  0
    0.6971  -52.5572  -28.6935 O   0  0  0  0  0  0  0  0  0  0  0  0
    1.9802  -52.1977  -22.4539 N   0  0  0  0  0  0  0  0  0  0  0  0
    2.9951  -52.1401  -22.6947 H   0  0  0  0  0  0  0  0  0  0  0  0
    1.6785  -51.4979  -21.2319 C   0  0  0  0  0  0  0  0  0  0  0  0
    0.9005  -50.3721  -21.2200 C   0  0  0  0  0  0  0  0  0  0  0  0
    0.6240  -49.7765  -19.9988 C   0  0  0  0  0  0  0  0  0  0  0  0
    1.0964  -50.2660  -18.8092 C   0  0  0  0  0  0  0  0  0  0  0  0
    0.7290  -49.4641  -17.1284 Br  0  0  0  0  0  0  0  0  0  0  0  0
    1.8768  -51.3990  -18.8571 C   0  0  0  0  0  0  0  0  0  0  0  0
    2.1804  -52.0274  -20.0325 C   0  0  0  0  0  0  0  0  0  0  0  0
    2.7015  -51.1294  -27.3563 O   0  0  0  0  0  0  0  0  0  0  0  0
    3.3433  -50.0678  -26.6858 C   0  0  0  0  0  0  0  0  0  0  0  0
 11 12  1  0  0  0
 12  1  1  0  0  0
  1  2  2  0  0  0
  2  3  1  0  0  0
  3  4  2  0  0  0
  4  5  1  0  0  0
  5  6  2  0  0  0
  6  7  1  0  0  0
  7 13  1  0  0  0
 13 15  1  0  0  0
 15 16  2  0  0  0
 16 17  1  0  0  0
 17 18  2  0  0  0
 18 19  1  0  0  0
 18 20  1  0  0  0
 20 21  2  0  0  0
  7  8  2  0  0  0
  8  9  1  0  0  0
  9 10  2  0  0  0
 10 22  1  0  0  0
 22 23  1  0  0  0
 10  1  1  0  0  0
  8  3  1  0  0  0
 21 15  1  0  0  0
 13 14  1  0  0  0
M  END
> <minimizedAffinity>
-6.87948

> <CNNscore>
0.4073221684

> <CNNaffinity>
6.1778135300

> <CNN_VS>
2.5163605213

> <CNNaffinity_variance>
0.3668846488

$$$$
[H]c1nc(N([H])c2c([H])c([H])c(Br)c([H])c2[H])c2c([H])c(OC([H])([H])[H])c(OC([H])([H])[H])c([H])c2n1


 23 25  0  0  0  0  0  0  0  0999 V2000
    0.5291  -52.8543  -24.0189 C   0  0  0  0  0  0  0  0  0  0  0  0
   -0.1567  -53.4652  -22.9988 C   0  0  0  0  0  0  0  0  0  0  0  0
   -0.1063  -53.0119  -21.6922 C   0  0  0  0  0  0  0  0  0  0  0  0
   -0.7881  -53.6203  -20.7025 N   0  0  0  0  0  0  0  0  0  0  0  0
   -0.7482  -53.1860  -19.4338 C   0  0  0  0  0  0  0  0  0  0  0  0
   -0.0016  -52.1154  -19.1707 N   0  0  0  0  0  0  0  0  0  0  0  0
    0.7041  -51.4602  -20.1094 C   0  0  0  0  0  0  0  0  0  0  0  0
    0.6752  -51.8981  -21.4400 C   0  0  0  0  0  0  0  0  0  0  0  0
    1.3747  -51.2621  -22.4356 C   0  0  0  0  0  0  0  0  0  0  0  0
    1.3047  -51.7446  -23.7549 C   0  0  0  0  0  0  0  0  0  0  0  0
   -0.5543  -53.0888  -26.2397 C   0  0  0  0  0  0  0  0  0  0  0  0
    0.4467  -53.3428  -25.3058 O   0  0  0  0  0  0  0  0  0  0  0  0
    1.4923  -50.3722  -19.7569 N   0  0  0  0  0  0  0  0  0  0  0  0
    1.8402  -49.6193  -20.3920 H   0  0  0  0  0  0  0  0  0  0  0  0
    1.9274  -50.1717  -18.3988 C   0  0  0  0  0  0  0  0  0  0  0  0
    1.2020  -49.4214  -17.5135 C   0  0  0  0  0  0  0  0  0  0  0  0
    1.6678  -49.3062  -16.2127 C   0  0  0  0  0  0  0  0  0  0  0  0
    2.8197  -49.9090  -15.7794 C   0  0  0  0  0  0  0  0  0  0  0  0
    3.4730  -49.7622  -14.0034 Br  0  0  0  0  0  0  0  0  0  0  0  0
    3.5257  -50.6553  -16.6957 C   0  0  0  0  0  0  0  0  0  0  0  0
    3.1128  -50.8033  -17.9905 C   0  0  0  0  0  0  0  0  0  0  0  0
    2.0162  -51.0913  -24.7472 O   0  0  0  0  0  0  0  0  0  0  0  0
    3.3850  -51.3826  -24.9198 C   0  0  0  0  0  0  0  0  0  0  0  0
 11 12  1  0  0  0
 12  1  1  0  0  0
  1  2  2  0  0  0
  2  3  1  0  0  0
  3  4  2  0  0  0
  4  5  1  0  0  0
  5  6  2  0  0  0
  6  7  1  0  0  0
  7 13  1  0  0  0
 13 15  1  0  0  0
 15 16  2  0  0  0
 16 17  1  0  0  0
 17 18  2  0  0  0
 18 19  1  0  0  0
 18 20  1  0  0  0
 20 21  2  0  0  0
  7  8  2  0  0  0
  8  9  1  0  0  0
  9 10  2  0  0  0
 10 22  1  0  0  0
 22 23  1  0  0  0
 10  1  1  0  0  0
  8  3  1  0  0  0
 21 15  1  0  0  0
 13 14  1  0  0  0
M  END
> <minimizedAffinity>
-5.53317

> <CNNscore>
0.4044476748

> <CNNaffinity>
5.8742713928

> <CNN_VS>
2.3758354187

> <CNNaffinity_variance>
0.6420108080

$$$$
[H]Oc1c([H])c([H])c(C([H])([H])C([H])([H])Oc2c([H])c([H])c3c(c2[H])c(C([H])([H])C([H])([H])N([H])[H])c([H])n3C([H])([H])C([H])([H])C([H])([H])C([H])([H])C([H])([H])c2c([H])c([H])c(SC([H])([H])[H])c([H])c2[H])c([H])c1[H]


 38 41  0  0  0  0  0  0  0  0999 V2000
    1.3385  -51.1423  -21.5795 N   0  0  0  0  0  0  0  0  0  0  0  0
    2.0440  -51.9570  -22.3803 C   0  0  0  0  0  0  0  0  0  0  0  0
    2.8991  -51.2233  -23.1795 C   0  0  0  0  0  0  0  0  0  0  0  0
    2.7126  -49.8916  -22.8568 C   0  0  0  0  0  0  0  0  0  0  0  0
    3.3061  -48.7229  -23.3466 C   0  0  0  0  0  0  0  0  0  0  0  0
    2.9284  -47.5083  -22.8420 C   0  0  0  0  0  0  0  0  0  0  0  0
    1.9411  -47.5138  -21.8348 C   0  0  0  0  0  0  0  0  0  0  0  0
    1.3661  -48.6624  -21.3615 C   0  0  0  0  0  0  0  0  0  0  0  0
    1.7491  -49.8833  -21.8731 C   0  0  0  0  0  0  0  0  0  0  0  0
    0.3325  -51.5203  -20.5887 C   0  0  0  0  0  0  0  0  0  0  0  0
    0.4943  -52.9360  -20.1360 C   0  0  0  0  0  0  0  0  0  0  0  0
   -0.6368  -53.7635  -20.6463 C   0  0  0  0  0  0  0  0  0  0  0  0
   -0.2889  -54.7395  -21.7154 C   0  0  0  0  0  0  0  0  0  0  0  0
   -1.3447  -54.9124  -22.7720 C   0  0  0  0  0  0  0  0  0  0  0  0
    0.2700  -53.4264  -26.4899 C   0  0  0  0  0  0  0  0  0  0  0  0
    0.0986  -54.7745  -26.2555 C   0  0  0  0  0  0  0  0  0  0  0  0
   -0.4169  -55.2452  -25.0659 C   0  0  0  0  0  0  0  0  0  0  0  0
   -0.7841  -54.3764  -24.0564 C   0  0  0  0  0  0  0  0  0  0  0  0
   -0.6143  -53.0282  -24.2869 C   0  0  0  0  0  0  0  0  0  0  0  0
   -0.0942  -52.5527  -25.4865 C   0  0  0  0  0  0  0  0  0  0  0  0
   -0.4141  -52.7730  -29.2478 C   0  0  0  0  0  0  0  0  0  0  0  0
    0.9438  -52.8280  -28.0491 S   0  0  0  0  0  0  0  0  0  0  0  0
    3.8609  -51.6940  -24.2063 C   0  0  0  0  0  0  0  0  0  0  0  0
    5.1615  -52.0358  -23.4994 C   0  0  0  0  0  0  0  0  0  0  0  0
    6.1729  -52.5035  -24.4283 N   0  0  0  0  0  0  0  0  0  0  0  0
    6.5817  -51.6360  -24.8666 H   0  0  0  0  0  0  0  0  0  0  0  0
    6.9323  -52.9429  -23.8628 H   0  0  0  0  0  0  0  0  0  0  0  0
    3.4635  -46.3478  -23.2768 O   0  0  0  0  0  0  0  0  0  0  0  0
    3.0561  -45.3314  -24.0827 C   0  0  0  0  0  0  0  0  0  0  0  0
    3.9789  -44.8889  -25.1821 C   0  0  0  0  0  0  0  0  0  0  0  0
    4.1018  -46.0653  -26.1182 C   0  0  0  0  0  0  0  0  0  0  0  0
    5.2900  -46.7537  -26.1130 C   0  0  0  0  0  0  0  0  0  0  0  0
    5.4382  -47.8479  -26.9659 C   0  0  0  0  0  0  0  0  0  0  0  0
    4.4089  -48.2300  -27.7990 C   0  0  0  0  0  0  0  0  0  0  0  0
    4.5852  -49.3384  -28.6502 O   0  0  0  0  0  0  0  0  0  0  0  0
    3.2287  -47.5219  -27.7836 C   0  0  0  0  0  0  0  0  0  0  0  0
    3.0769  -46.4397  -26.9426 C   0  0  0  0  0  0  0  0  0  0  0  0
    3.8663  -49.6499  -29.2703 H   0  0  0  0  0  0  0  0  0  0  0  0
 21 22  1  0  0  0
 22 15  1  0  0  0
 15 16  2  0  0  0
 16 17  1  0  0  0
 17 18  2  0  0  0
 18 14  1  0  0  0
 14 13  1  0  0  0
 13 12  1  0  0  0
 12 11  1  0  0  0
 11 10  1  0  0  0
 10  1  1  0  0  0
  1  2  1  0  0  0
  2  3  2  0  0  0
  3 23  1  0  0  0
 23 24  1  0  0  0
 24 25  1  0  0  0
  3  4  1  0  0  0
  4  5  2  0  0  0
  5  6  1  0  0  0
  6 28  1  0  0  0
 28 29  1  0  0  0
 29 30  1  0  0  0
 30 31  1  0  0  0
 31 32  2  0  0  0
 32 33  1  0  0  0
 33 34  2  0  0  0
 34 35  1  0  0  0
 34 36  1  0  0  0
 36 37  2  0  0  0
  6  7  2  0  0  0
  7  8  1  0  0  0
  8  9  2  0  0  0
 18 19  1  0  0  0
 19 20  2  0  0  0
 20 15  1  0  0  0
  9  1  1  0  0  0
  9  4  1  0  0  0
 37 31  1  0  0  0
 25 26  1  0  0  0
 25 27  1  0  0  0
 35 38  1  0  0  0
M  END
> <minimizedAffinity>
-7.25066

> <CNNscore>
0.3335239887

> <CNNaffinity>
6.7254829407

> <CNN_VS>
2.2431099415

> <CNNaffinity_variance>
0.9468095899

$$$$
[H]Oc1c([H])c([H])c(C([H])([H])C([H])([H])Oc2c([H])c([H])c3c(c2[H])c(C([H])([H])C([H])([H])N([H])[H])c([H])n3C([H])([H])C([H])([H])C([H])([H])C([H])([H])C([H])([H])c2c([H])c([H])c(SC([H])([H])[H])c([H])c2[H])c([H])c1[H]


 38 41  0  0  0  0  0  0  0  0999 V2000
    2.2582  -50.4568  -21.5231 N   0  0  0  0  0  0  0  0  0  0  0  0
    2.8359  -51.5499  -22.0468 C   0  0  0  0  0  0  0  0  0  0  0  0
    3.5539  -51.2183  -23.1794 C   0  0  0  0  0  0  0  0  0  0  0  0
    3.4127  -49.8551  -23.3641 C   0  0  0  0  0  0  0  0  0  0  0  0
    3.9176  -48.9907  -24.3417 C   0  0  0  0  0  0  0  0  0  0  0  0
    3.6162  -47.6570  -24.2880 C   0  0  0  0  0  0  0  0  0  0  0  0
    2.7961  -47.2296  -23.2232 C   0  0  0  0  0  0  0  0  0  0  0  0
    2.3068  -48.0826  -22.2709 C   0  0  0  0  0  0  0  0  0  0  0  0
    2.6124  -49.4251  -22.3293 C   0  0  0  0  0  0  0  0  0  0  0  0
    1.4190  -50.3790  -20.3288 C   0  0  0  0  0  0  0  0  0  0  0  0
    1.5847  -51.5750  -19.4471 C   0  0  0  0  0  0  0  0  0  0  0  0
    0.2722  -52.2619  -19.2732 C   0  0  0  0  0  0  0  0  0  0  0  0
    0.1219  -53.5549  -19.9958 C   0  0  0  0  0  0  0  0  0  0  0  0
   -1.1839  -53.7165  -20.7237 C   0  0  0  0  0  0  0  0  0  0  0  0
   -0.3202  -53.8584  -24.9513 C   0  0  0  0  0  0  0  0  0  0  0  0
   -0.7847  -54.9599  -24.2637 C   0  0  0  0  0  0  0  0  0  0  0  0
   -1.0587  -54.9106  -22.9128 C   0  0  0  0  0  0  0  0  0  0  0  0
   -0.8767  -53.7460  -22.1920 C   0  0  0  0  0  0  0  0  0  0  0  0
   -0.4126  -52.6429  -22.8757 C   0  0  0  0  0  0  0  0  0  0  0  0
   -0.1359  -52.6920  -24.2383 C   0  0  0  0  0  0  0  0  0  0  0  0
   -0.9820  -52.6806  -27.5350 C   0  0  0  0  0  0  0  0  0  0  0  0
    0.0320  -53.9391  -26.7155 S   0  0  0  0  0  0  0  0  0  0  0  0
    4.3482  -52.0922  -24.0775 C   0  0  0  0  0  0  0  0  0  0  0  0
    3.3980  -52.6867  -25.1031 C   0  0  0  0  0  0  0  0  0  0  0  0
    3.4848  -52.0017  -26.3788 N   0  0  0  0  0  0  0  0  0  0  0  0
    4.3334  -52.4010  -26.8607 H   0  0  0  0  0  0  0  0  0  0  0  0
    2.6543  -52.2900  -26.9415 H   0  0  0  0  0  0  0  0  0  0  0  0
    4.0720  -46.7763  -25.2039 O   0  0  0  0  0  0  0  0  0  0  0  0
    3.5344  -46.1000  -26.2536 C   0  0  0  0  0  0  0  0  0  0  0  0
    4.4700  -45.5411  -27.2872 C   0  0  0  0  0  0  0  0  0  0  0  0
    3.8743  -45.9043  -28.6246 C   0  0  0  0  0  0  0  0  0  0  0  0
    4.6396  -46.6712  -29.4683 C   0  0  0  0  0  0  0  0  0  0  0  0
    4.1196  -47.0264  -30.7133 C   0  0  0  0  0  0  0  0  0  0  0  0
    2.8593  -46.6137  -31.0887 C   0  0  0  0  0  0  0  0  0  0  0  0
    2.3587  -46.9865  -32.3514 O   0  0  0  0  0  0  0  0  0  0  0  0
    2.1140  -45.8457  -30.2231 C   0  0  0  0  0  0  0  0  0  0  0  0
    2.6231  -45.4918  -28.9915 C   0  0  0  0  0  0  0  0  0  0  0  0
    1.4510  -46.7094  -32.6643 H   0  0  0  0  0  0  0  0  0  0  0  0
 21 22  1  0  0  0
 22 15  1  0  0  0
 15 16  2  0  0  0
 16 17  1  0  0  0
 17 18  2  0  0  0
 18 14  1  0  0  0
 14 13  1  0  0  0
 13 12  1  0  0  0
 12 11  1  0  0  0
 11 10  1  0  0  0
 10  1  1  0  0  0
  1  2  1  0  0  0
  2  3  2  0  0  0
  3 23  1  0  0  0
 23 24  1  0  0  0
 24 25  1  0  0  0
  3  4  1  0  0  0
  4  5  2  0  0  0
  5  6  1  0  0  0
  6 28  1  0  0  0
 28 29  1  0  0  0
 29 30  1  0  0  0
 30 31  1  0  0  0
 31 32  2  0  0  0
 32 33  1  0  0  0
 33 34  2  0  0  0
 34 35  1  0  0  0
 34 36  1  0  0  0
 36 37  2  0  0  0
  6  7  2  0  0  0
  7  8  1  0  0  0
  8  9  2  0  0  0
 18 19  1  0  0  0
 19 20  2  0  0  0
 20 15  1  0  0  0
  9  1  1  0  0  0
  9  4  1  0  0  0
 37 31  1  0  0  0
 25 26  1  0  0  0
 25 27  1  0  0  0
 35 38  1  0  0  0
M  END
> <minimizedAffinity>
-6.93726

> <CNNscore>
0.3108884096

> <CNNaffinity>
6.8673195839

> <CNN_VS>
2.1349699497

> <CNNaffinity_variance>
0.2347979248

$$$$
[H]Oc1c([H])c([H])c(C([H])([H])C([H])([H])Oc2c([H])c([H])c3c(c2[H])c(C([H])([H])C([H])([H])N([H])[H])c([H])n3C([H])([H])C([H])([H])C([H])([H])C([H])([H])C([H])([H])c2c([H])c([H])c(SC([H])([H])[H])c([H])c2[H])c([H])c1[H]


 38 41  0  0  0  0  0  0  0  0999 V2000
    1.5447  -51.0893  -21.6171 N   0  0  0  0  0  0  0  0  0  0  0  0
    2.0855  -52.1503  -22.2374 C   0  0  0  0  0  0  0  0  0  0  0  0
    2.9863  -51.7369  -23.1997 C   0  0  0  0  0  0  0  0  0  0  0  0
    3.0026  -50.3544  -23.1723 C   0  0  0  0  0  0  0  0  0  0  0  0
    3.7217  -49.4167  -23.9216 C   0  0  0  0  0  0  0  0  0  0  0  0
    3.5431  -48.0805  -23.6862 C   0  0  0  0  0  0  0  0  0  0  0  0
    2.6231  -47.7268  -22.6775 C   0  0  0  0  0  0  0  0  0  0  0  0
    1.9240  -48.6513  -21.9493 C   0  0  0  0  0  0  0  0  0  0  0  0
    2.1066  -49.9957  -22.1901 C   0  0  0  0  0  0  0  0  0  0  0  0
    0.5542  -51.0961  -20.5422 C   0  0  0  0  0  0  0  0  0  0  0  0
    0.5536  -52.3865  -19.7872 C   0  0  0  0  0  0  0  0  0  0  0  0
   -0.6216  -53.2104  -20.1932 C   0  0  0  0  0  0  0  0  0  0  0  0
   -0.3355  -54.3087  -21.1568 C   0  0  0  0  0  0  0  0  0  0  0  0
   -1.4035  -54.5258  -22.1928 C   0  0  0  0  0  0  0  0  0  0  0  0
    0.1581  -53.0757  -25.9474 C   0  0  0  0  0  0  0  0  0  0  0  0
   -0.2678  -52.2189  -24.9542 C   0  0  0  0  0  0  0  0  0  0  0  0
   -0.7668  -52.6863  -23.7563 C   0  0  0  0  0  0  0  0  0  0  0  0
   -0.8592  -54.0417  -23.5045 C   0  0  0  0  0  0  0  0  0  0  0  0
   -0.4345  -54.9012  -24.4947 C   0  0  0  0  0  0  0  0  0  0  0  0
    0.0688  -54.4304  -25.7033 C   0  0  0  0  0  0  0  0  0  0  0  0
    1.4231  -53.8666  -28.4523 C   0  0  0  0  0  0  0  0  0  0  0  0
    0.8080  -52.4492  -27.5057 S   0  0  0  0  0  0  0  0  0  0  0  0
    3.8148  -52.5512  -24.1224 C   0  0  0  0  0  0  0  0  0  0  0  0
    5.2011  -52.6736  -23.5131 C   0  0  0  0  0  0  0  0  0  0  0  0
    6.2432  -52.5401  -24.5134 N   0  0  0  0  0  0  0  0  0  0  0  0
    6.3523  -51.5040  -24.6762 H   0  0  0  0  0  0  0  0  0  0  0  0
    7.1323  -52.8730  -24.0798 H   0  0  0  0  0  0  0  0  0  0  0  0
    4.2066  -47.1305  -24.3786 O   0  0  0  0  0  0  0  0  0  0  0  0
    4.9685  -47.1020  -25.5042 C   0  0  0  0  0  0  0  0  0  0  0  0
    6.2919  -46.3941  -25.4433 C   0  0  0  0  0  0  0  0  0  0  0  0
    7.3335  -47.4341  -25.7729 C   0  0  0  0  0  0  0  0  0  0  0  0
    7.2199  -48.6570  -25.1586 C   0  0  0  0  0  0  0  0  0  0  0  0
    8.1658  -49.6429  -25.4408 C   0  0  0  0  0  0  0  0  0  0  0  0
    9.1963  -49.3924  -26.3211 C   0  0  0  0  0  0  0  0  0  0  0  0
   10.1376  -50.4056  -26.5880 O   0  0  0  0  0  0  0  0  0  0  0  0
    9.2859  -48.1576  -26.9227 C   0  0  0  0  0  0  0  0  0  0  0  0
    8.3537  -47.1796  -26.6473 C   0  0  0  0  0  0  0  0  0  0  0  0
   10.9003  -50.2674  -27.2187 H   0  0  0  0  0  0  0  0  0  0  0  0
 21 22  1  0  0  0
 22 15  1  0  0  0
 15 16  2  0  0  0
 16 17  1  0  0  0
 17 18  2  0  0  0
 18 14  1  0  0  0
 14 13  1  0  0  0
 13 12  1  0  0  0
 12 11  1  0  0  0
 11 10  1  0  0  0
 10  1  1  0  0  0
  1  2  1  0  0  0
  2  3  2  0  0  0
  3 23  1  0  0  0
 23 24  1  0  0  0
 24 25  1  0  0  0
  3  4  1  0  0  0
  4  5  2  0  0  0
  5  6  1  0  0  0
  6 28  1  0  0  0
 28 29  1  0  0  0
 29 30  1  0  0  0
 30 31  1  0  0  0
 31 32  2  0  0  0
 32 33  1  0  0  0
 33 34  2  0  0  0
 34 35  1  0  0  0
 34 36  1  0  0  0
 36 37  2  0  0  0
  6  7  2  0  0  0
  7  8  1  0  0  0
  8  9  2  0  0  0
 18 19  1  0  0  0
 19 20  2  0  0  0
 20 15  1  0  0  0
  9  1  1  0  0  0
  9  4  1  0  0  0
 37 31  1  0  0  0
 25 26  1  0  0  0
 25 27  1  0  0  0
 35 38  1  0  0  0
M  END
> <minimizedAffinity>
-6.95463

> <CNNscore>
0.3035693467

> <CNNaffinity>
6.4717874527

> <CNN_VS>
1.9646363258

> <CNNaffinity_variance>
0.8661861420

$$$$
[H]Oc1c([H])c([H])c(C([H])([H])C([H])([H])Oc2c([H])c([H])c3c(c2[H])c(C([H])([H])C([H])([H])N([H])[H])c([H])n3C([H])([H])C([H])([H])C([H])([H])C([H])([H])C([H])([H])c2c([H])c([H])c(SC([H])([H])[H])c([H])c2[H])c([H])c1[H]


 38 41  0  0  0  0  0  0  0  0999 V2000
    6.0422  -48.6788  -20.1246 N   0  0  0  0  0  0  0  0  0  0  0  0
    6.6413  -49.1315  -21.2378 C   0  0  0  0  0  0  0  0  0  0  0  0
    6.0078  -50.2706  -21.6954 C   0  0  0  0  0  0  0  0  0  0  0  0
    4.9677  -50.5341  -20.8229 C   0  0  0  0  0  0  0  0  0  0  0  0
    4.0076  -51.5517  -20.7990 C   0  0  0  0  0  0  0  0  0  0  0  0
    3.0726  -51.5778  -19.8001 C   0  0  0  0  0  0  0  0  0  0  0  0
    3.1390  -50.5508  -18.8358 C   0  0  0  0  0  0  0  0  0  0  0  0
    4.0820  -49.5590  -18.8673 C   0  0  0  0  0  0  0  0  0  0  0  0
    5.0219  -49.5370  -19.8748 C   0  0  0  0  0  0  0  0  0  0  0  0
    6.4033  -47.5032  -19.3347 C   0  0  0  0  0  0  0  0  0  0  0  0
    5.4581  -46.3661  -19.5559 C   0  0  0  0  0  0  0  0  0  0  0  0
    5.7760  -45.6867  -20.8452 C   0  0  0  0  0  0  0  0  0  0  0  0
    4.7011  -45.7244  -21.8746 C   0  0  0  0  0  0  0  0  0  0  0  0
    3.4774  -46.5004  -21.4729 C   0  0  0  0  0  0  0  0  0  0  0  0
    3.0536  -49.6988  -24.3414 C   0  0  0  0  0  0  0  0  0  0  0  0
    3.9997  -48.7065  -24.4890 C   0  0  0  0  0  0  0  0  0  0  0  0
    4.1314  -47.6858  -23.5706 C   0  0  0  0  0  0  0  0  0  0  0  0
    3.3135  -47.6192  -22.4590 C   0  0  0  0  0  0  0  0  0  0  0  0
    2.3665  -48.6092  -22.3080 C   0  0  0  0  0  0  0  0  0  0  0  0
    2.2331  -49.6388  -23.2341 C   0  0  0  0  0  0  0  0  0  0  0  0
    3.4788  -52.5517  -24.7669 C   0  0  0  0  0  0  0  0  0  0  0  0
    2.8951  -51.0250  -25.5494 S   0  0  0  0  0  0  0  0  0  0  0  0
    6.3185  -51.1063  -22.8812 C   0  0  0  0  0  0  0  0  0  0  0  0
    7.4741  -50.4513  -23.6184 C   0  0  0  0  0  0  0  0  0  0  0  0
    7.2072  -50.3294  -25.0390 N   0  0  0  0  0  0  0  0  0  0  0  0
    6.5938  -49.4779  -25.1427 H   0  0  0  0  0  0  0  0  0  0  0  0
    8.1139  -50.1071  -25.5060 H   0  0  0  0  0  0  0  0  0  0  0  0
    2.1242  -52.5353  -19.7237 O   0  0  0  0  0  0  0  0  0  0  0  0
    0.7693  -52.5719  -19.8299 C   0  0  0  0  0  0  0  0  0  0  0  0
    0.1274  -53.8690  -20.2319 C   0  0  0  0  0  0  0  0  0  0  0  0
   -0.1541  -53.7515  -21.7091 C   0  0  0  0  0  0  0  0  0  0  0  0
   -0.7531  -54.8233  -22.3240 C   0  0  0  0  0  0  0  0  0  0  0  0
   -1.0288  -54.7486  -23.6897 C   0  0  0  0  0  0  0  0  0  0  0  0
   -0.7047  -53.6179  -24.4081 C   0  0  0  0  0  0  0  0  0  0  0  0
   -0.9941  -53.5690  -25.7857 O   0  0  0  0  0  0  0  0  0  0  0  0
   -0.1050  -52.5582  -23.7662 C   0  0  0  0  0  0  0  0  0  0  0  0
    0.1697  -52.6268  -22.4166 C   0  0  0  0  0  0  0  0  0  0  0  0
   -0.7763  -52.7699  -26.3448 H   0  0  0  0  0  0  0  0  0  0  0  0
 21 22  1  0  0  0
 22 15  1  0  0  0
 15 16  2  0  0  0
 16 17  1  0  0  0
 17 18  2  0  0  0
 18 14  1  0  0  0
 14 13  1  0  0  0
 13 12  1  0  0  0
 12 11  1  0  0  0
 11 10  1  0  0  0
 10  1  1  0  0  0
  1  2  1  0  0  0
  2  3  2  0  0  0
  3 23  1  0  0  0
 23 24  1  0  0  0
 24 25  1  0  0  0
  3  4  1  0  0  0
  4  5  2  0  0  0
  5  6  1  0  0  0
  6 28  1  0  0  0
 28 29  1  0  0  0
 29 30  1  0  0  0
 30 31  1  0  0  0
 31 32  2  0  0  0
 32 33  1  0  0  0
 33 34  2  0  0  0
 34 35  1  0  0  0
 34 36  1  0  0  0
 36 37  2  0  0  0
  6  7  2  0  0  0
  7  8  1  0  0  0
  8  9  2  0  0  0
 18 19  1  0  0  0
 19 20  2  0  0  0
 20 15  1  0  0  0
  9  1  1  0  0  0
  9  4  1  0  0  0
 37 31  1  0  0  0
 25 26  1  0  0  0
 25 27  1  0  0  0
 35 38  1  0  0  0
M  END
> <minimizedAffinity>
-6.33785

> <CNNscore>
0.2898100913

> <CNNaffinity>
6.6687240601

> <CNN_VS>
1.9326635599

> <CNNaffinity_variance>
0.2891904414

$$$$
[H]Oc1c([H])c([H])c(C([H])([H])C([H])([H])Oc2c([H])c([H])c3c(c2[H])c(C([H])([H])C([H])([H])N([H])[H])c([H])n3C([H])([H])C([H])([H])C([H])([H])C([H])([H])C([H])([H])c2c([H])c([H])c(SC([H])([H])[H])c([H])c2[H])c([H])c1[H]


 38 41  0  0  0  0  0  0  0  0999 V2000
    1.7784  -51.4496  -23.2287 N   0  0  0  0  0  0  0  0  0  0  0  0
    2.8476  -52.2506  -23.3641 C   0  0  0  0  0  0  0  0  0  0  0  0
    3.9886  -51.6078  -22.9246 C   0  0  0  0  0  0  0  0  0  0  0  0
    3.6058  -50.3494  -22.4975 C   0  0  0  0  0  0  0  0  0  0  0  0
    4.3390  -49.2849  -21.9618 C   0  0  0  0  0  0  0  0  0  0  0  0
    3.6980  -48.1260  -21.6173 C   0  0  0  0  0  0  0  0  0  0  0  0
    2.3045  -48.0793  -21.8292 C   0  0  0  0  0  0  0  0  0  0  0  0
    1.5952  -49.1260  -22.3538 C   0  0  0  0  0  0  0  0  0  0  0  0
    2.2450  -50.2909  -22.6998 C   0  0  0  0  0  0  0  0  0  0  0  0
    0.3906  -51.7514  -23.5743 C   0  0  0  0  0  0  0  0  0  0  0  0
    0.1462  -53.2223  -23.6835 C   0  0  0  0  0  0  0  0  0  0  0  0
   -0.6410  -53.6937  -22.5076 C   0  0  0  0  0  0  0  0  0  0  0  0
    0.0802  -53.6848  -21.2051 C   0  0  0  0  0  0  0  0  0  0  0  0
   -0.5095  -52.7674  -20.1699 C   0  0  0  0  0  0  0  0  0  0  0  0
    2.6401  -50.2090  -18.6959 C   0  0  0  0  0  0  0  0  0  0  0  0
    1.3155  -49.8268  -18.6669 C   0  0  0  0  0  0  0  0  0  0  0  0
    0.3122  -50.6468  -19.1396 C   0  0  0  0  0  0  0  0  0  0  0  0
    0.5993  -51.8924  -19.6639 C   0  0  0  0  0  0  0  0  0  0  0  0
    1.9222  -52.2781  -19.6947 C   0  0  0  0  0  0  0  0  0  0  0  0
    2.9347  -51.4513  -19.2182 C   0  0  0  0  0  0  0  0  0  0  0  0
    3.5058  -48.6733  -16.3736 C   0  0  0  0  0  0  0  0  0  0  0  0
    3.9382  -49.1266  -18.0740 S   0  0  0  0  0  0  0  0  0  0  0  0
    5.3876  -52.0999  -22.8841 C   0  0  0  0  0  0  0  0  0  0  0  0
    6.1146  -51.5260  -24.0883 C   0  0  0  0  0  0  0  0  0  0  0  0
    7.4974  -51.2109  -23.7832 N   0  0  0  0  0  0  0  0  0  0  0  0
    8.0188  -52.1256  -23.8422 H   0  0  0  0  0  0  0  0  0  0  0  0
    7.8552  -50.6088  -24.5570 H   0  0  0  0  0  0  0  0  0  0  0  0
    4.3528  -47.0654  -21.0989 O   0  0  0  0  0  0  0  0  0  0  0  0
    4.3594  -45.7241  -21.3207 C   0  0  0  0  0  0  0  0  0  0  0  0
    5.1175  -45.2091  -22.5107 C   0  0  0  0  0  0  0  0  0  0  0  0
    4.1888  -45.3587  -23.6899 C   0  0  0  0  0  0  0  0  0  0  0  0
    4.6892  -45.9703  -24.8130 C   0  0  0  0  0  0  0  0  0  0  0  0
    3.8574  -46.1260  -25.9223 C   0  0  0  0  0  0  0  0  0  0  0  0
    2.5561  -45.6733  -25.8901 C   0  0  0  0  0  0  0  0  0  0  0  0
    1.7380  -45.8433  -27.0241 O   0  0  0  0  0  0  0  0  0  0  0  0
    2.0806  -45.0640  -24.7511 C   0  0  0  0  0  0  0  0  0  0  0  0
    2.8984  -44.9074  -23.6520 C   0  0  0  0  0  0  0  0  0  0  0  0
    0.7893  -45.5302  -27.0446 H   0  0  0  0  0  0  0  0  0  0  0  0
 21 22  1  0  0  0
 22 15  1  0  0  0
 15 16  2  0  0  0
 16 17  1  0  0  0
 17 18  2  0  0  0
 18 14  1  0  0  0
 14 13  1  0  0  0
 13 12  1  0  0  0
 12 11  1  0  0  0
 11 10  1  0  0  0
 10  1  1  0  0  0
  1  2  1  0  0  0
  2  3  2  0  0  0
  3 23  1  0  0  0
 23 24  1  0  0  0
 24 25  1  0  0  0
  3  4  1  0  0  0
  4  5  2  0  0  0
  5  6  1  0  0  0
  6 28  1  0  0  0
 28 29  1  0  0  0
 29 30  1  0  0  0
 30 31  1  0  0  0
 31 32  2  0  0  0
 32 33  1  0  0  0
 33 34  2  0  0  0
 34 35  1  0  0  0
 34 36  1  0  0  0
 36 37  2  0  0  0
  6  7  2  0  0  0
  7  8  1  0  0  0
  8  9  2  0  0  0
 18 19  1  0  0  0
 19 20  2  0  0  0
 20 15  1  0  0  0
  9  1  1  0  0  0
  9  4  1  0  0  0
 37 31  1  0  0  0
 25 26  1  0  0  0
 25 27  1  0  0  0
 35 38  1  0  0  0
M  END
> <minimizedAffinity>
-5.87781

> <CNNscore>
0.2751083970

> <CNNaffinity>
6.4584860802

> <CNN_VS>
1.7767837048

> <CNNaffinity_variance>
0.7160941362

$$$$
[H]Oc1c([H])c([H])c(C([H])([H])C([H])([H])Oc2c([H])c([H])c3c(c2[H])c(C([H])([H])C([H])([H])N([H])[H])c([H])n3C([H])([H])C([H])([H])C([H])([H])C([H])([H])C([H])([H])c2c([H])c([H])c(SC([H])([H])[H])c([H])c2[H])c([H])c1[H]


 38 41  0  0  0  0  0  0  0  0999 V2000
   -0.0808  -52.3830  -23.4798 N   0  0  0  0  0  0  0  0  0  0  0  0
    0.8446  -51.4101  -23.4742 C   0  0  0  0  0  0  0  0  0  0  0  0
    1.1734  -51.0668  -22.1772 C   0  0  0  0  0  0  0  0  0  0  0  0
    0.4147  -51.8660  -21.3418 C   0  0  0  0  0  0  0  0  0  0  0  0
    0.3390  -51.9473  -19.9469 C   0  0  0  0  0  0  0  0  0  0  0  0
   -0.5150  -52.8447  -19.3657 C   0  0  0  0  0  0  0  0  0  0  0  0
   -1.2821  -53.6504  -20.2326 C   0  0  0  0  0  0  0  0  0  0  0  0
   -1.2014  -53.5641  -21.5963 C   0  0  0  0  0  0  0  0  0  0  0  0
   -0.3404  -52.6584  -22.1773 C   0  0  0  0  0  0  0  0  0  0  0  0
   -0.6909  -53.0246  -24.6429 C   0  0  0  0  0  0  0  0  0  0  0  0
   -1.0148  -52.0410  -25.7213 C   0  0  0  0  0  0  0  0  0  0  0  0
   -0.5672  -52.5712  -27.0416 C   0  0  0  0  0  0  0  0  0  0  0  0
    0.7596  -53.2465  -27.0475 C   0  0  0  0  0  0  0  0  0  0  0  0
    1.8586  -52.4605  -27.7073 C   0  0  0  0  0  0  0  0  0  0  0  0
    4.3949  -50.8808  -24.5912 C   0  0  0  0  0  0  0  0  0  0  0  0
    3.7247  -50.0596  -25.4734 C   0  0  0  0  0  0  0  0  0  0  0  0
    2.9159  -50.5684  -26.4681 C   0  0  0  0  0  0  0  0  0  0  0  0
    2.7454  -51.9311  -26.6190 C   0  0  0  0  0  0  0  0  0  0  0  0
    3.4136  -52.7552  -25.7391 C   0  0  0  0  0  0  0  0  0  0  0  0
    4.2297  -52.2427  -24.7357 C   0  0  0  0  0  0  0  0  0  0  0  0
    7.1632  -50.5967  -23.7215 C   0  0  0  0  0  0  0  0  0  0  0  0
    5.4466  -50.2004  -23.2973 S   0  0  0  0  0  0  0  0  0  0  0  0
    2.1402  -50.0523  -21.6902 C   0  0  0  0  0  0  0  0  0  0  0  0
    1.3984  -48.7332  -21.5570 C   0  0  0  0  0  0  0  0  0  0  0  0
    2.1721  -47.6244  -22.0827 N   0  0  0  0  0  0  0  0  0  0  0  0
    2.0368  -47.6515  -23.1281 H   0  0  0  0  0  0  0  0  0  0  0  0
    1.7231  -46.7456  -21.7427 H   0  0  0  0  0  0  0  0  0  0  0  0
   -0.6327  -52.9663  -18.0264 O   0  0  0  0  0  0  0  0  0  0  0  0
   -1.4992  -52.5134  -17.0819 C   0  0  0  0  0  0  0  0  0  0  0  0
   -1.1399  -51.2592  -16.3375 C   0  0  0  0  0  0  0  0  0  0  0  0
   -2.3997  -50.8200  -15.6337 C   0  0  0  0  0  0  0  0  0  0  0  0
   -2.3894  -49.5841  -15.0352 C   0  0  0  0  0  0  0  0  0  0  0  0
   -3.5381  -49.1455  -14.3758 C   0  0  0  0  0  0  0  0  0  0  0  0
   -4.6631  -49.9402  -14.3266 C   0  0  0  0  0  0  0  0  0  0  0  0
   -5.8092  -49.4730  -13.6542 O   0  0  0  0  0  0  0  0  0  0  0  0
   -4.6457  -51.1746  -14.9353 C   0  0  0  0  0  0  0  0  0  0  0  0
   -3.5130  -51.6129  -15.5883 C   0  0  0  0  0  0  0  0  0  0  0  0
   -6.6461  -50.0157  -13.5936 H   0  0  0  0  0  0  0  0  0  0  0  0
 21 22  1  0  0  0
 22 15  1  0  0  0
 15 16  2  0  0  0
 16 17  1  0  0  0
 17 18  2  0  0  0
 18 14  1  0  0  0
 14 13  1  0  0  0
 13 12  1  0  0  0
 12 11  1  0  0  0
 11 10  1  0  0  0
 10  1  1  0  0  0
  1  2  1  0  0  0
  2  3  2  0  0  0
  3 23  1  0  0  0
 23 24  1  0  0  0
 24 25  1  0  0  0
  3  4  1  0  0  0
  4  5  2  0  0  0
  5  6  1  0  0  0
  6 28  1  0  0  0
 28 29  1  0  0  0
 29 30  1  0  0  0
 30 31  1  0  0  0
 31 32  2  0  0  0
 32 33  1  0  0  0
 33 34  2  0  0  0
 34 35  1  0  0  0
 34 36  1  0  0  0
 36 37  2  0  0  0
  6  7  2  0  0  0
  7  8  1  0  0  0
  8  9  2  0  0  0
 18 19  1  0  0  0
 19 20  2  0  0  0
 20 15  1  0  0  0
  9  1  1  0  0  0
  9  4  1  0  0  0
 37 31  1  0  0  0
 25 26  1  0  0  0
 25 27  1  0  0  0
 35 38  1  0  0  0
M  END
> <minimizedAffinity>
-7.76313

> <CNNscore>
0.2254537046

> <CNNaffinity>
6.7592873573

> <CNN_VS>
1.5239063501

> <CNNaffinity_variance>
0.1164068803

$$$$
[H]Oc1c([H])c([H])c(C([H])([H])C([H])([H])Oc2c([H])c([H])c3c(c2[H])c(C([H])([H])C([H])([H])N([H])[H])c([H])n3C([H])([H])C([H])([H])C([H])([H])C([H])([H])C([H])([H])c2c([H])c([H])c(SC([H])([H])[H])c([H])c2[H])c([H])c1[H]


 38 41  0  0  0  0  0  0  0  0999 V2000
    0.7847  -51.9461  -23.3290 N   0  0  0  0  0  0  0  0  0  0  0  0
    1.6772  -52.6074  -24.0833 C   0  0  0  0  0  0  0  0  0  0  0  0
    2.8880  -51.9424  -24.0894 C   0  0  0  0  0  0  0  0  0  0  0  0
    2.7359  -50.8164  -23.3011 C   0  0  0  0  0  0  0  0  0  0  0  0
    3.6261  -49.7928  -22.9581 C   0  0  0  0  0  0  0  0  0  0  0  0
    3.2075  -48.7750  -22.1448 C   0  0  0  0  0  0  0  0  0  0  0  0
    1.8723  -48.8259  -21.6931 C   0  0  0  0  0  0  0  0  0  0  0  0
    1.0085  -49.8317  -22.0338 C   0  0  0  0  0  0  0  0  0  0  0  0
    1.4342  -50.8543  -22.8536 C   0  0  0  0  0  0  0  0  0  0  0  0
   -0.6044  -52.3157  -23.0639 C   0  0  0  0  0  0  0  0  0  0  0  0
   -0.8742  -52.4743  -21.6020 C   0  0  0  0  0  0  0  0  0  0  0  0
   -0.1905  -53.6972  -21.0904 C   0  0  0  0  0  0  0  0  0  0  0  0
    0.4892  -53.5512  -19.7738 C   0  0  0  0  0  0  0  0  0  0  0  0
    1.1857  -52.2339  -19.5721 C   0  0  0  0  0  0  0  0  0  0  0  0
   -0.6998  -50.2105  -16.2572 C   0  0  0  0  0  0  0  0  0  0  0  0
    0.2868  -49.6118  -17.0122 C   0  0  0  0  0  0  0  0  0  0  0  0
    0.8872  -50.2621  -18.0701 C   0  0  0  0  0  0  0  0  0  0  0  0
    0.5195  -51.5482  -18.4158 C   0  0  0  0  0  0  0  0  0  0  0  0
   -0.4663  -52.1500  -17.6636 C   0  0  0  0  0  0  0  0  0  0  0  0
   -1.0722  -51.4947  -16.5963 C   0  0  0  0  0  0  0  0  0  0  0  0
   -1.2852  -47.5689  -15.1709 C   0  0  0  0  0  0  0  0  0  0  0  0
   -1.4744  -49.3473  -14.8794 S   0  0  0  0  0  0  0  0  0  0  0  0
    4.1522  -52.2990  -24.7791 C   0  0  0  0  0  0  0  0  0  0  0  0
    5.1658  -52.6862  -23.7157 C   0  0  0  0  0  0  0  0  0  0  0  0
    6.5123  -52.2944  -24.0868 N   0  0  0  0  0  0  0  0  0  0  0  0
    6.5862  -51.2687  -23.8539 H   0  0  0  0  0  0  0  0  0  0  0  0
    7.1675  -52.7971  -23.4482 H   0  0  0  0  0  0  0  0  0  0  0  0
    4.0199  -47.7597  -21.7823 O   0  0  0  0  0  0  0  0  0  0  0  0
    4.8877  -46.9329  -22.4238 C   0  0  0  0  0  0  0  0  0  0  0  0
    4.3590  -46.0903  -23.5492 C   0  0  0  0  0  0  0  0  0  0  0  0
    4.3826  -46.9717  -24.7731 C   0  0  0  0  0  0  0  0  0  0  0  0
    3.2188  -47.0816  -25.4935 C   0  0  0  0  0  0  0  0  0  0  0  0
    3.2050  -47.8882  -26.6319 C   0  0  0  0  0  0  0  0  0  0  0  0
    4.3407  -48.5626  -27.0254 C   0  0  0  0  0  0  0  0  0  0  0  0
    4.2990  -49.3702  -28.1787 O   0  0  0  0  0  0  0  0  0  0  0  0
    5.4936  -48.4342  -26.2845 C   0  0  0  0  0  0  0  0  0  0  0  0
    5.5127  -47.6384  -25.1586 C   0  0  0  0  0  0  0  0  0  0  0  0
    5.0982  -49.8767  -28.4999 H   0  0  0  0  0  0  0  0  0  0  0  0
 21 22  1  0  0  0
 22 15  1  0  0  0
 15 16  2  0  0  0
 16 17  1  0  0  0
 17 18  2  0  0  0
 18 14  1  0  0  0
 14 13  1  0  0  0
 13 12  1  0  0  0
 12 11  1  0  0  0
 11 10  1  0  0  0
 10  1  1  0  0  0
  1  2  1  0  0  0
  2  3  2  0  0  0
  3 23  1  0  0  0
 23 24  1  0  0  0
 24 25  1  0  0  0
  3  4  1  0  0  0
  4  5  2  0  0  0
  5  6  1  0  0  0
  6 28  1  0  0  0
 28 29  1  0  0  0
 29 30  1  0  0  0
 30 31  1  0  0  0
 31 32  2  0  0  0
 32 33  1  0  0  0
 33 34  2  0  0  0
 34 35  1  0  0  0
 34 36  1  0  0  0
 36 37  2  0  0  0
  6  7  2  0  0  0
  7  8  1  0  0  0
  8  9  2  0  0  0
 18 19  1  0  0  0
 19 20  2  0  0  0
 20 15  1  0  0  0
  9  1  1  0  0  0
  9  4  1  0  0  0
 37 31  1  0  0  0
 25 26  1  0  0  0
 25 27  1  0  0  0
 35 38  1  0  0  0
M  END
> <minimizedAffinity>
-6.55448

> <CNNscore>
0.2076547742

> <CNNaffinity>
6.2523736954

> <CNN_VS>
1.2983351946

> <CNNaffinity_variance>
0.6767840981

$$$$
[H]Oc1c([H])c([H])c(C([H])([H])C([H])([H])Oc2c([H])c([H])c3c(c2[H])c(C([H])([H])C([H])([H])N([H])[H])c([H])n3C([H])([H])C([H])([H])C([H])([H])C([H])([H])C([H])([H])c2c([H])c([H])c(SC([H])([H])[H])c([H])c2[H])c([H])c1[H]


 38 41  0  0  0  0  0  0  0  0999 V2000
    1.1565  -51.5247  -19.2527 N   0  0  0  0  0  0  0  0  0  0  0  0
    1.3435  -50.9698  -18.0444 C   0  0  0  0  0  0  0  0  0  0  0  0
    1.6761  -49.6353  -18.1746 C   0  0  0  0  0  0  0  0  0  0  0  0
    1.6956  -49.3527  -19.5281 C   0  0  0  0  0  0  0  0  0  0  0  0
    1.9678  -48.1727  -20.2291 C   0  0  0  0  0  0  0  0  0  0  0  0
    1.9169  -48.1697  -21.5966 C   0  0  0  0  0  0  0  0  0  0  0  0
    1.5842  -49.3871  -22.2262 C   0  0  0  0  0  0  0  0  0  0  0  0
    1.3192  -50.5368  -21.5321 C   0  0  0  0  0  0  0  0  0  0  0  0
    1.3722  -50.5352  -20.1551 C   0  0  0  0  0  0  0  0  0  0  0  0
    0.7932  -52.9090  -19.5499 C   0  0  0  0  0  0  0  0  0  0  0  0
   -0.6877  -53.0942  -19.6390 C   0  0  0  0  0  0  0  0  0  0  0  0
   -1.0066  -54.1508  -20.6423 C   0  0  0  0  0  0  0  0  0  0  0  0
   -0.3814  -53.9757  -21.9821 C   0  0  0  0  0  0  0  0  0  0  0  0
   -0.8254  -52.7452  -22.7235 C   0  0  0  0  0  0  0  0  0  0  0  0
    0.3287  -53.1866  -26.8601 C   0  0  0  0  0  0  0  0  0  0  0  0
    0.1482  -51.9482  -26.2807 C   0  0  0  0  0  0  0  0  0  0  0  0
   -0.2213  -51.8116  -24.9588 C   0  0  0  0  0  0  0  0  0  0  0  0
   -0.4260  -52.9195  -24.1591 C   0  0  0  0  0  0  0  0  0  0  0  0
   -0.2465  -54.1590  -24.7346 C   0  0  0  0  0  0  0  0  0  0  0  0
    0.1261  -54.2975  -26.0679 C   0  0  0  0  0  0  0  0  0  0  0  0
   -0.5542  -52.7216  -29.5996 C   0  0  0  0  0  0  0  0  0  0  0  0
    0.8121  -53.3478  -28.5874 S   0  0  0  0  0  0  0  0  0  0  0  0
    1.9695  -48.6332  -17.1207 C   0  0  0  0  0  0  0  0  0  0  0  0
    0.9842  -48.8540  -15.9856 C   0  0  0  0  0  0  0  0  0  0  0  0
    0.1657  -47.6804  -15.7466 N   0  0  0  0  0  0  0  0  0  0  0  0
   -0.5940  -47.7080  -16.4773 H   0  0  0  0  0  0  0  0  0  0  0  0
   -0.2999  -47.8115  -14.8216 H   0  0  0  0  0  0  0  0  0  0  0  0
    2.1721  -47.0630  -22.3262 O   0  0  0  0  0  0  0  0  0  0  0  0
    3.2849  -46.4667  -22.8306 C   0  0  0  0  0  0  0  0  0  0  0  0
    4.4074  -47.3480  -23.2989 C   0  0  0  0  0  0  0  0  0  0  0  0
    4.2229  -47.4974  -24.7885 C   0  0  0  0  0  0  0  0  0  0  0  0
    3.6196  -46.4601  -25.4562 C   0  0  0  0  0  0  0  0  0  0  0  0
    3.4335  -46.5644  -26.8351 C   0  0  0  0  0  0  0  0  0  0  0  0
    3.8484  -47.6898  -27.5139 C   0  0  0  0  0  0  0  0  0  0  0  0
    3.6481  -47.7690  -28.9060 O   0  0  0  0  0  0  0  0  0  0  0  0
    4.4503  -48.7144  -26.8194 C   0  0  0  0  0  0  0  0  0  0  0  0
    4.6366  -48.6166  -25.4567 C   0  0  0  0  0  0  0  0  0  0  0  0
    3.9327  -48.5658  -29.4376 H   0  0  0  0  0  0  0  0  0  0  0  0
 21 22  1  0  0  0
 22 15  1  0  0  0
 15 16  2  0  0  0
 16 17  1  0  0  0
 17 18  2  0  0  0
 18 14  1  0  0  0
 14 13  1  0  0  0
 13 12  1  0  0  0
 12 11  1  0  0  0
 11 10  1  0  0  0
 10  1  1  0  0  0
  1  2  1  0  0  0
  2  3  2  0  0  0
  3 23  1  0  0  0
 23 24  1  0  0  0
 24 25  1  0  0  0
  3  4  1  0  0  0
  4  5  2  0  0  0
  5  6  1  0  0  0
  6 28  1  0  0  0
 28 29  1  0  0  0
 29 30  1  0  0  0
 30 31  1  0  0  0
 31 32  2  0  0  0
 32 33  1  0  0  0
 33 34  2  0  0  0
 34 35  1  0  0  0
 34 36  1  0  0  0
 36 37  2  0  0  0
  6  7  2  0  0  0
  7  8  1  0  0  0
  8  9  2  0  0  0
 18 19  1  0  0  0
 19 20  2  0  0  0
 20 15  1  0  0  0
  9  1  1  0  0  0
  9  4  1  0  0  0
 37 31  1  0  0  0
 25 26  1  0  0  0
 25 27  1  0  0  0
 35 38  1  0  0  0
M  END
> <minimizedAffinity>
-6.78464

> <CNNscore>
0.1890683323

> <CNNaffinity>
6.6908988953

> <CNN_VS>
1.2650370598

> <CNNaffinity_variance>
0.2207154781

$$$$
[H]Oc1c([H])c([H])c(C([H])([H])C([H])([H])Oc2c([H])c([H])c3c(c2[H])c(C([H])([H])C([H])([H])N([H])[H])c([H])n3C([H])([H])C([H])([H])C([H])([H])C([H])([H])C([H])([H])c2c([H])c([H])c(SC([H])([H])[H])c([H])c2[H])c([H])c1[H]


 38 41  0  0  0  0  0  0  0  0999 V2000
    0.7092  -52.4549  -23.3433 N   0  0  0  0  0  0  0  0  0  0  0  0
    1.7242  -52.6988  -24.1878 C   0  0  0  0  0  0  0  0  0  0  0  0
    2.6951  -51.7235  -24.0668 C   0  0  0  0  0  0  0  0  0  0  0  0
    2.2587  -50.8348  -23.1014 C   0  0  0  0  0  0  0  0  0  0  0  0
    2.8333  -49.6706  -22.5796 C   0  0  0  0  0  0  0  0  0  0  0  0
    2.1732  -48.9644  -21.6111 C   0  0  0  0  0  0  0  0  0  0  0  0
    0.9252  -49.4693  -21.1907 C   0  0  0  0  0  0  0  0  0  0  0  0
    0.3708  -50.6095  -21.7068 C   0  0  0  0  0  0  0  0  0  0  0  0
    1.0389  -51.3172  -22.6824 C   0  0  0  0  0  0  0  0  0  0  0  0
   -0.5068  -53.2453  -23.1613 C   0  0  0  0  0  0  0  0  0  0  0  0
   -0.3867  -54.2065  -22.0225 C   0  0  0  0  0  0  0  0  0  0  0  0
   -1.6694  -54.2547  -21.2628 C   0  0  0  0  0  0  0  0  0  0  0  0
   -1.6519  -53.5951  -19.9282 C   0  0  0  0  0  0  0  0  0  0  0  0
   -0.2838  -53.2056  -19.4409 C   0  0  0  0  0  0  0  0  0  0  0  0
   -0.8623  -50.6524  -16.0080 C   0  0  0  0  0  0  0  0  0  0  0  0
   -1.5959  -51.8055  -16.1920 C   0  0  0  0  0  0  0  0  0  0  0  0
   -1.4085  -52.6181  -17.2907 C   0  0  0  0  0  0  0  0  0  0  0  0
   -0.4709  -52.3047  -18.2558 C   0  0  0  0  0  0  0  0  0  0  0  0
    0.2644  -51.1529  -18.0754 C   0  0  0  0  0  0  0  0  0  0  0  0
    0.0758  -50.3327  -16.9676 C   0  0  0  0  0  0  0  0  0  0  0  0
    0.5115  -49.0813  -13.9720 C   0  0  0  0  0  0  0  0  0  0  0  0
   -1.1187  -49.6025  -14.5674 S   0  0  0  0  0  0  0  0  0  0  0  0
    3.9820  -51.5841  -24.7916 C   0  0  0  0  0  0  0  0  0  0  0  0
    5.0317  -52.3714  -24.0257 C   0  0  0  0  0  0  0  0  0  0  0  0
    6.2082  -52.6293  -24.8342 N   0  0  0  0  0  0  0  0  0  0  0  0
    6.7779  -51.7425  -24.8012 H   0  0  0  0  0  0  0  0  0  0  0  0
    6.7646  -53.3642  -24.3447 H   0  0  0  0  0  0  0  0  0  0  0  0
    2.6766  -47.8336  -21.0724 O   0  0  0  0  0  0  0  0  0  0  0  0
    3.6658  -46.9592  -21.3968 C   0  0  0  0  0  0  0  0  0  0  0  0
    4.9592  -47.0432  -20.6379 C   0  0  0  0  0  0  0  0  0  0  0  0
    5.7870  -48.0877  -21.3444 C   0  0  0  0  0  0  0  0  0  0  0  0
    6.0521  -47.8868  -22.6767 C   0  0  0  0  0  0  0  0  0  0  0  0
    6.8156  -48.8326  -23.3616 C   0  0  0  0  0  0  0  0  0  0  0  0
    7.2947  -49.9491  -22.7109 C   0  0  0  0  0  0  0  0  0  0  0  0
    8.0630  -50.8883  -23.4262 O   0  0  0  0  0  0  0  0  0  0  0  0
    7.0138  -50.1252  -21.3750 C   0  0  0  0  0  0  0  0  0  0  0  0
    6.2597  -49.1935  -20.6934 C   0  0  0  0  0  0  0  0  0  0  0  0
    8.4298  -51.7115  -22.9947 H   0  0  0  0  0  0  0  0  0  0  0  0
 21 22  1  0  0  0
 22 15  1  0  0  0
 15 16  2  0  0  0
 16 17  1  0  0  0
 17 18  2  0  0  0
 18 14  1  0  0  0
 14 13  1  0  0  0
 13 12  1  0  0  0
 12 11  1  0  0  0
 11 10  1  0  0  0
 10  1  1  0  0  0
  1  2  1  0  0  0
  2  3  2  0  0  0
  3 23  1  0  0  0
 23 24  1  0  0  0
 24 25  1  0  0  0
  3  4  1  0  0  0
  4  5  2  0  0  0
  5  6  1  0  0  0
  6 28  1  0  0  0
 28 29  1  0  0  0
 29 30  1  0  0  0
 30 31  1  0  0  0
 31 32  2  0  0  0
 32 33  1  0  0  0
 33 34  2  0  0  0
 34 35  1  0  0  0
 34 36  1  0  0  0
 36 37  2  0  0  0
  6  7  2  0  0  0
  7  8  1  0  0  0
  8  9  2  0  0  0
 18 19  1  0  0  0
 19 20  2  0  0  0
 20 15  1  0  0  0
  9  1  1  0  0  0
  9  4  1  0  0  0
 37 31  1  0  0  0
 25 26  1  0  0  0
 25 27  1  0  0  0
 35 38  1  0  0  0
M  END
> <minimizedAffinity>
-6.82834

> <CNNscore>
0.1735621542

> <CNNaffinity>
6.1494779587

> <CNN_VS>
1.0673166513

> <CNNaffinity_variance>
0.7529423833

$$$$
[H]C([H])=C([H])C(=O)N([H])c1c(OC([H])([H])C([H])([H])N([H])C(=O)C([H])([H])N(C([H])([H])[H])C([H])([H])[H])c([H])c2nc([H])nc(N([H])c3c([H])c(Cl)c(Cl)c([H])c3F)c2c1[H]


 38 40  0  0  0  0  0  0  0  0999 V2000
    0.1228  -52.3617  -19.3887 C   0  0  0  0  0  0  0  0  0  0  0  0
   -0.6786  -53.3803  -19.8098 C   0  0  0  0  0  0  0  0  0  0  0  0
   -0.7569  -53.7572  -21.1658 C   0  0  0  0  0  0  0  0  0  0  0  0
   -1.5125  -54.7153  -21.5769 N   0  0  0  0  0  0  0  0  0  0  0  0
   -1.6532  -55.1662  -22.8651 C   0  0  0  0  0  0  0  0  0  0  0  0
   -0.8356  -54.4403  -23.7160 N   0  0  0  0  0  0  0  0  0  0  0  0
   -0.0349  -53.4400  -23.3396 C   0  0  0  0  0  0  0  0  0  0  0  0
    0.0645  -53.0006  -22.0301 C   0  0  0  0  0  0  0  0  0  0  0  0
    0.8448  -51.9896  -21.5832 C   0  0  0  0  0  0  0  0  0  0  0  0
    0.9098  -51.5967  -20.2401 C   0  0  0  0  0  0  0  0  0  0  0  0
    1.3036  -50.3597  -19.7670 N   0  0  0  0  0  0  0  0  0  0  0  0
    1.6470  -49.2079  -19.2578 C   0  0  0  0  0  0  0  0  0  0  0  0
    1.5018  -48.7561  -18.0776 O   0  0  0  0  0  0  0  0  0  0  0  0
    0.4351  -50.5172  -18.6936 H   0  0  0  0  0  0  0  0  0  0  0  0
    2.3236  -48.2081  -20.1515 C   0  0  0  0  0  0  0  0  0  0  0  0
    1.7841  -47.9573  -21.3415 C   0  0  0  0  0  0  0  0  0  0  0  0
    0.9432  -52.9560  -24.2772 N   0  0  0  0  0  0  0  0  0  0  0  0
    1.8906  -52.7451  -24.0135 H   0  0  0  0  0  0  0  0  0  0  0  0
    0.5231  -52.8092  -25.6306 C   0  0  0  0  0  0  0  0  0  0  0  0
   -0.6943  -52.6260  -26.1390 C   0  0  0  0  0  0  0  0  0  0  0  0
   -1.0584  -52.5855  -27.4666 C   0  0  0  0  0  0  0  0  0  0  0  0
   -2.6968  -52.3436  -28.0268 Cl  0  0  0  0  0  0  0  0  0  0  0  0
    0.0074  -52.7573  -28.3787 C   0  0  0  0  0  0  0  0  0  0  0  0
   -0.3806  -52.7804  -30.0643 Cl  0  0  0  0  0  0  0  0  0  0  0  0
    1.2761  -52.9371  -27.9588 C   0  0  0  0  0  0  0  0  0  0  0  0
    1.5774  -52.9707  -26.6123 C   0  0  0  0  0  0  0  0  0  0  0  0
    2.8176  -53.1677  -26.1597 F   0  0  0  0  0  0  0  0  0  0  0  0
    0.2051  -52.0570  -17.9865 O   0  0  0  0  0  0  0  0  0  0  0  0
   -1.0097  -52.2934  -17.3447 C   0  0  0  0  0  0  0  0  0  0  0  0
   -2.2034  -52.5958  -16.7956 C   0  0  0  0  0  0  0  0  0  0  0  0
   -3.8361  -51.3235  -15.3135 C   0  0  0  0  0  0  0  0  0  0  0  0
   -4.6706  -51.4697  -16.3514 O   0  0  0  0  0  0  0  0  0  0  0  0
   -2.6300  -51.9138  -15.5347 N   0  0  0  0  0  0  0  0  0  0  0  0
   -1.8809  -51.9277  -14.8046 H   0  0  0  0  0  0  0  0  0  0  0  0
   -4.4276  -50.5763  -14.2216 C   0  0  0  0  0  0  0  0  0  0  0  0
   -3.3624  -48.5527  -15.0478 C   0  0  0  0  0  0  0  0  0  0  0  0
   -4.0297  -49.2508  -13.9760 N   0  0  0  0  0  0  0  0  0  0  0  0
   -2.9807  -49.3992  -12.9005 C   0  0  0  0  0  0  0  0  0  0  0  0
 36 37  1  0  0  0
 37 38  1  0  0  0
 37 35  1  0  0  0
 35 31  1  0  0  0
 31 32  2  0  0  0
 31 33  1  0  0  0
 33 30  1  0  0  0
 30 29  1  0  0  0
 29 28  1  0  0  0
 28  1  1  0  0  0
  1  2  2  0  0  0
  2  3  1  0  0  0
  3  4  2  0  0  0
  4  5  1  0  0  0
  5  6  2  0  0  0
  6  7  1  0  0  0
  7 17  1  0  0  0
 17 19  1  0  0  0
 19 20  2  0  0  0
 20 21  1  0  0  0
 21 22  1  0  0  0
 21 23  2  0  0  0
 23 24  1  0  0  0
 23 25  1  0  0  0
 25 26  2  0  0  0
 26 27  1  0  0  0
  7  8  2  0  0  0
  8  9  1  0  0  0
  9 10  2  0  0  0
 10 11  1  0  0  0
 11 12  1  0  0  0
 12 13  2  0  0  0
 12 15  1  0  0  0
 15 16  2  0  0  0
 10  1  1  0  0  0
  8  3  1  0  0  0
 26 19  1  0  0  0
 33 34  1  0  0  0
 17 18  1  0  0  0
 11 14  1  0  0  0
M  END
> <minimizedAffinity>
-8.21667

> <CNNscore>
0.9786441326

> <CNNaffinity>
7.9827919006

> <CNN_VS>
7.8123126030

> <CNNaffinity_variance>
0.0214128867

$$$$
[H]C([H])=C([H])C(=O)N([H])c1c(OC([H])([H])C([H])([H])N([H])C(=O)C([H])([H])N(C([H])([H])[H])C([H])([H])[H])c([H])c2nc([H])nc(N([H])c3c([H])c(Cl)c(Cl)c([H])c3F)c2c1[H]


 38 40  0  0  0  0  0  0  0  0999 V2000
    1.2438  -49.4302  -20.9482 C   0  0  0  0  0  0  0  0  0  0  0  0
    0.3724  -50.3950  -20.5399 C   0  0  0  0  0  0  0  0  0  0  0  0
    0.1066  -51.5394  -21.3188 C   0  0  0  0  0  0  0  0  0  0  0  0
   -0.7168  -52.4564  -20.9459 N   0  0  0  0  0  0  0  0  0  0  0  0
   -1.0368  -53.6077  -21.6201 C   0  0  0  0  0  0  0  0  0  0  0  0
   -0.3245  -53.6790  -22.8062 N   0  0  0  0  0  0  0  0  0  0  0  0
    0.5399  -52.7565  -23.2367 C   0  0  0  0  0  0  0  0  0  0  0  0
    0.8216  -51.5962  -22.5352 C   0  0  0  0  0  0  0  0  0  0  0  0
    1.6754  -50.6185  -22.9173 C   0  0  0  0  0  0  0  0  0  0  0  0
    1.9265  -49.4687  -22.1573 C   0  0  0  0  0  0  0  0  0  0  0  0
    2.4056  -48.2626  -22.6313 N   0  0  0  0  0  0  0  0  0  0  0  0
    2.8467  -47.0955  -23.0150 C   0  0  0  0  0  0  0  0  0  0  0  0
    2.9986  -46.0181  -22.3560 O   0  0  0  0  0  0  0  0  0  0  0  0
    1.8419  -47.6300  -21.5297 H   0  0  0  0  0  0  0  0  0  0  0  0
    3.2554  -46.9260  -24.4503 C   0  0  0  0  0  0  0  0  0  0  0  0
    4.0194  -47.8636  -25.0048 C   0  0  0  0  0  0  0  0  0  0  0  0
    1.3946  -53.0842  -24.3467 N   0  0  0  0  0  0  0  0  0  0  0  0
    2.3237  -53.4503  -24.2271 H   0  0  0  0  0  0  0  0  0  0  0  0
    0.8578  -52.8956  -25.6527 C   0  0  0  0  0  0  0  0  0  0  0  0
   -0.4030  -52.7319  -26.0498 C   0  0  0  0  0  0  0  0  0  0  0  0
   -0.8788  -52.6486  -27.3396 C   0  0  0  0  0  0  0  0  0  0  0  0
   -2.5649  -52.4381  -27.7508 Cl  0  0  0  0  0  0  0  0  0  0  0  0
    0.1110  -52.7472  -28.3437 C   0  0  0  0  0  0  0  0  0  0  0  0
   -0.4169  -52.7134  -29.9906 Cl  0  0  0  0  0  0  0  0  0  0  0  0
    1.4153  -52.9021  -28.0387 C   0  0  0  0  0  0  0  0  0  0  0  0
    1.8299  -52.9814  -26.7246 C   0  0  0  0  0  0  0  0  0  0  0  0
    3.1091  -53.1557  -26.3856 F   0  0  0  0  0  0  0  0  0  0  0  0
    1.5181  -48.3118  -20.0881 O   0  0  0  0  0  0  0  0  0  0  0  0
    2.7842  -48.4135  -19.5134 C   0  0  0  0  0  0  0  0  0  0  0  0
    4.0320  -48.5821  -19.0312 C   0  0  0  0  0  0  0  0  0  0  0  0
    5.4513  -49.9879  -20.6092 C   0  0  0  0  0  0  0  0  0  0  0  0
    4.5494  -50.9418  -20.3414 O   0  0  0  0  0  0  0  0  0  0  0  0
    5.1645  -48.8160  -19.9796 N   0  0  0  0  0  0  0  0  0  0  0  0
    5.7473  -47.9584  -20.1190 H   0  0  0  0  0  0  0  0  0  0  0  0
    6.5003  -50.4445  -21.4989 C   0  0  0  0  0  0  0  0  0  0  0  0
    5.6658  -51.1002  -23.6867 C   0  0  0  0  0  0  0  0  0  0  0  0
    6.4234  -50.1774  -22.8767 N   0  0  0  0  0  0  0  0  0  0  0  0
    7.8511  -50.3401  -23.3399 C   0  0  0  0  0  0  0  0  0  0  0  0
 36 37  1  0  0  0
 37 38  1  0  0  0
 37 35  1  0  0  0
 35 31  1  0  0  0
 31 32  2  0  0  0
 31 33  1  0  0  0
 33 30  1  0  0  0
 30 29  1  0  0  0
 29 28  1  0  0  0
 28  1  1  0  0  0
  1  2  2  0  0  0
  2  3  1  0  0  0
  3  4  2  0  0  0
  4  5  1  0  0  0
  5  6  2  0  0  0
  6  7  1  0  0  0
  7 17  1  0  0  0
 17 19  1  0  0  0
 19 20  2  0  0  0
 20 21  1  0  0  0
 21 22  1  0  0  0
 21 23  2  0  0  0
 23 24  1  0  0  0
 23 25  1  0  0  0
 25 26  2  0  0  0
 26 27  1  0  0  0
  7  8  2  0  0  0
  8  9  1  0  0  0
  9 10  2  0  0  0
 10 11  1  0  0  0
 11 12  1  0  0  0
 12 13  2  0  0  0
 12 15  1  0  0  0
 15 16  2  0  0  0
 10  1  1  0  0  0
  8  3  1  0  0  0
 26 19  1  0  0  0
 33 34  1  0  0  0
 17 18  1  0  0  0
 11 14  1  0  0  0
M  END
> <minimizedAffinity>
-7.39774

> <CNNscore>
0.6359121799

> <CNNaffinity>
7.5540771484

> <CNN_VS>
4.8037295341

> <CNNaffinity_variance>
0.3301923275

$$$$
[H]C([H])=C([H])C(=O)N([H])c1c(OC([H])([H])C([H])([H])N([H])C(=O)C([H])([H])N(C([H])([H])[H])C([H])([H])[H])c([H])c2nc([H])nc(N([H])c3c([H])c(Cl)c(Cl)c([H])c3F)c2c1[H]


 38 40  0  0  0  0  0  0  0  0999 V2000
    1.3236  -49.5320  -20.9833 C   0  0  0  0  0  0  0  0  0  0  0  0
    0.4311  -50.4500  -20.5164 C   0  0  0  0  0  0  0  0  0  0  0  0
    0.0985  -51.6076  -21.2485 C   0  0  0  0  0  0  0  0  0  0  0  0
   -0.7455  -52.4806  -20.8201 N   0  0  0  0  0  0  0  0  0  0  0  0
   -1.1293  -53.6399  -21.4457 C   0  0  0  0  0  0  0  0  0  0  0  0
   -0.4590  -53.7755  -22.6505 N   0  0  0  0  0  0  0  0  0  0  0  0
    0.4242  -52.9003  -23.1380 C   0  0  0  0  0  0  0  0  0  0  0  0
    0.7709  -51.7298  -22.4843 C   0  0  0  0  0  0  0  0  0  0  0  0
    1.6471  -50.7976  -22.9249 C   0  0  0  0  0  0  0  0  0  0  0  0
    1.9647  -49.6346  -22.2113 C   0  0  0  0  0  0  0  0  0  0  0  0
    2.4720  -48.4629  -22.7395 N   0  0  0  0  0  0  0  0  0  0  0  0
    2.9131  -47.3203  -23.1909 C   0  0  0  0  0  0  0  0  0  0  0  0
    2.6913  -46.1360  -22.7833 O   0  0  0  0  0  0  0  0  0  0  0  0
    1.4653  -47.7590  -22.0896 H   0  0  0  0  0  0  0  0  0  0  0  0
    3.8308  -47.3314  -24.3799 C   0  0  0  0  0  0  0  0  0  0  0  0
    3.7694  -48.3645  -25.2159 C   0  0  0  0  0  0  0  0  0  0  0  0
    1.2297  -53.2950  -24.2629 N   0  0  0  0  0  0  0  0  0  0  0  0
    2.1147  -53.7617  -24.1601 H   0  0  0  0  0  0  0  0  0  0  0  0
    0.7062  -53.0222  -25.5594 C   0  0  0  0  0  0  0  0  0  0  0  0
   -0.5513  -52.8412  -25.9595 C   0  0  0  0  0  0  0  0  0  0  0  0
   -1.0131  -52.6741  -27.2462 C   0  0  0  0  0  0  0  0  0  0  0  0
   -2.6962  -52.4486  -27.6621 Cl  0  0  0  0  0  0  0  0  0  0  0  0
   -0.0112  -52.6970  -28.2428 C   0  0  0  0  0  0  0  0  0  0  0  0
   -0.5207  -52.5554  -29.8899 Cl  0  0  0  0  0  0  0  0  0  0  0  0
    1.2908  -52.8626  -27.9336 C   0  0  0  0  0  0  0  0  0  0  0  0
    1.6910  -53.0278  -26.6231 C   0  0  0  0  0  0  0  0  0  0  0  0
    2.9677  -53.2153  -26.2815 F   0  0  0  0  0  0  0  0  0  0  0  0
    1.6666  -48.3981  -20.1695 O   0  0  0  0  0  0  0  0  0  0  0  0
    2.7705  -48.6694  -19.3624 C   0  0  0  0  0  0  0  0  0  0  0  0
    3.7719  -48.9419  -18.5017 C   0  0  0  0  0  0  0  0  0  0  0  0
    3.4116  -50.1339  -16.2814 C   0  0  0  0  0  0  0  0  0  0  0  0
    3.6886  -51.2360  -16.9909 O   0  0  0  0  0  0  0  0  0  0  0  0
    3.4883  -49.0030  -17.0345 N   0  0  0  0  0  0  0  0  0  0  0  0
    3.3427  -48.0536  -16.6199 H   0  0  0  0  0  0  0  0  0  0  0  0
    3.1015  -50.4245  -14.8957 C   0  0  0  0  0  0  0  0  0  0  0  0
    1.5510  -52.0339  -13.9376 C   0  0  0  0  0  0  0  0  0  0  0  0
    2.8523  -51.7471  -14.4905 N   0  0  0  0  0  0  0  0  0  0  0  0
    3.8112  -51.9421  -13.3408 C   0  0  0  0  0  0  0  0  0  0  0  0
 36 37  1  0  0  0
 37 38  1  0  0  0
 37 35  1  0  0  0
 35 31  1  0  0  0
 31 32  2  0  0  0
 31 33  1  0  0  0
 33 30  1  0  0  0
 30 29  1  0  0  0
 29 28  1  0  0  0
 28  1  1  0  0  0
  1  2  2  0  0  0
  2  3  1  0  0  0
  3  4  2  0  0  0
  4  5  1  0  0  0
  5  6  2  0  0  0
  6  7  1  0  0  0
  7 17  1  0  0  0
 17 19  1  0  0  0
 19 20  2  0  0  0
 20 21  1  0  0  0
 21 22  1  0  0  0
 21 23  2  0  0  0
 23 24  1  0  0  0
 23 25  1  0  0  0
 25 26  2  0  0  0
 26 27  1  0  0  0
  7  8  2  0  0  0
  8  9  1  0  0  0
  9 10  2  0  0  0
 10 11  1  0  0  0
 11 12  1  0  0  0
 12 13  2  0  0  0
 12 15  1  0  0  0
 15 16  2  0  0  0
 10  1  1  0  0  0
  8  3  1  0  0  0
 26 19  1  0  0  0
 33 34  1  0  0  0
 17 18  1  0  0  0
 11 14  1  0  0  0
M  END
> <minimizedAffinity>
-7.48319

> <CNNscore>
0.5933159590

> <CNNaffinity>
7.4204812050

> <CNN_VS>
4.4026899338

> <CNNaffinity_variance>
0.2296161354

$$$$
[H]C([H])=C([H])C(=O)N([H])c1c(OC([H])([H])C([H])([H])N([H])C(=O)C([H])([H])N(C([H])([H])[H])C([H])([H])[H])c([H])c2nc([H])nc(N([H])c3c([H])c(Cl)c(Cl)c([H])c3F)c2c1[H]


 38 40  0  0  0  0  0  0  0  0999 V2000
    0.9754  -50.2702  -20.3092 C   0  0  0  0  0  0  0  0  0  0  0  0
    0.0612  -51.2679  -20.1489 C   0  0  0  0  0  0  0  0  0  0  0  0
   -0.1828  -52.2257  -21.1539 C   0  0  0  0  0  0  0  0  0  0  0  0
   -1.0461  -53.1711  -21.0162 N   0  0  0  0  0  0  0  0  0  0  0  0
   -1.3506  -54.1547  -21.9230 C   0  0  0  0  0  0  0  0  0  0  0  0
   -0.5717  -54.0124  -23.0599 N   0  0  0  0  0  0  0  0  0  0  0  0
    0.3360  -53.0515  -23.2506 C   0  0  0  0  0  0  0  0  0  0  0  0
    0.6008  -52.0633  -22.3174 C   0  0  0  0  0  0  0  0  0  0  0  0
    1.4962  -51.0576  -22.4503 C   0  0  0  0  0  0  0  0  0  0  0  0
    1.7269  -50.0903  -21.4635 C   0  0  0  0  0  0  0  0  0  0  0  0
    2.2585  -48.8304  -21.6606 N   0  0  0  0  0  0  0  0  0  0  0  0
    2.7516  -47.6274  -21.7779 C   0  0  0  0  0  0  0  0  0  0  0  0
    2.9662  -46.7385  -20.8937 O   0  0  0  0  0  0  0  0  0  0  0  0
    1.7427  -48.4432  -20.4296 H   0  0  0  0  0  0  0  0  0  0  0  0
    3.1479  -47.1511  -23.1461 C   0  0  0  0  0  0  0  0  0  0  0  0
    3.2686  -48.0513  -24.1182 C   0  0  0  0  0  0  0  0  0  0  0  0
    1.2471  -53.1801  -24.3567 N   0  0  0  0  0  0  0  0  0  0  0  0
    2.2144  -53.4282  -24.2374 H   0  0  0  0  0  0  0  0  0  0  0  0
    0.7140  -52.9677  -25.6606 C   0  0  0  0  0  0  0  0  0  0  0  0
   -0.5433  -52.7733  -26.0553 C   0  0  0  0  0  0  0  0  0  0  0  0
   -1.0176  -52.6675  -27.3440 C   0  0  0  0  0  0  0  0  0  0  0  0
   -2.6990  -52.4170  -27.7522 Cl  0  0  0  0  0  0  0  0  0  0  0  0
   -0.0305  -52.7777  -28.3495 C   0  0  0  0  0  0  0  0  0  0  0  0
   -0.5582  -52.7169  -29.9958 Cl  0  0  0  0  0  0  0  0  0  0  0  0
    1.2703  -52.9634  -28.0468 C   0  0  0  0  0  0  0  0  0  0  0  0
    1.6835  -53.0640  -26.7338 C   0  0  0  0  0  0  0  0  0  0  0  0
    2.9589  -53.2689  -26.3972 F   0  0  0  0  0  0  0  0  0  0  0  0
    1.2227  -49.3543  -19.2295 O   0  0  0  0  0  0  0  0  0  0  0  0
    1.3604  -50.0270  -18.0162 C   0  0  0  0  0  0  0  0  0  0  0  0
    1.5762  -50.6170  -16.8232 C   0  0  0  0  0  0  0  0  0  0  0  0
    0.7511  -49.4732  -14.7038 C   0  0  0  0  0  0  0  0  0  0  0  0
   -0.4052  -50.0839  -14.9950 O   0  0  0  0  0  0  0  0  0  0  0  0
    1.7316  -49.7719  -15.5991 N   0  0  0  0  0  0  0  0  0  0  0  0
    2.7070  -49.4098  -15.4896 H   0  0  0  0  0  0  0  0  0  0  0  0
    0.6649  -48.6519  -13.5128 C   0  0  0  0  0  0  0  0  0  0  0  0
    1.1159  -46.3846  -12.7586 C   0  0  0  0  0  0  0  0  0  0  0  0
    0.3824  -47.2792  -13.6207 N   0  0  0  0  0  0  0  0  0  0  0  0
   -1.0483  -47.1834  -13.1483 C   0  0  0  0  0  0  0  0  0  0  0  0
 36 37  1  0  0  0
 37 38  1  0  0  0
 37 35  1  0  0  0
 35 31  1  0  0  0
 31 32  2  0  0  0
 31 33  1  0  0  0
 33 30  1  0  0  0
 30 29  1  0  0  0
 29 28  1  0  0  0
 28  1  1  0  0  0
  1  2  2  0  0  0
  2  3  1  0  0  0
  3  4  2  0  0  0
  4  5  1  0  0  0
  5  6  2  0  0  0
  6  7  1  0  0  0
  7 17  1  0  0  0
 17 19  1  0  0  0
 19 20  2  0  0  0
 20 21  1  0  0  0
 21 22  1  0  0  0
 21 23  2  0  0  0
 23 24  1  0  0  0
 23 25  1  0  0  0
 25 26  2  0  0  0
 26 27  1  0  0  0
  7  8  2  0  0  0
  8  9  1  0  0  0
  9 10  2  0  0  0
 10 11  1  0  0  0
 11 12  1  0  0  0
 12 13  2  0  0  0
 12 15  1  0  0  0
 15 16  2  0  0  0
 10  1  1  0  0  0
  8  3  1  0  0  0
 26 19  1  0  0  0
 33 34  1  0  0  0
 17 18  1  0  0  0
 11 14  1  0  0  0
M  END
> <minimizedAffinity>
-6.65492

> <CNNscore>
0.5554161668

> <CNNaffinity>
7.3194298744

> <CNN_VS>
4.0653295517

> <CNNaffinity_variance>
0.1968864948

$$$$
[H]C([H])=C([H])C(=O)N([H])c1c(OC([H])([H])C([H])([H])N([H])C(=O)C([H])([H])N(C([H])([H])[H])C([H])([H])[H])c([H])c2nc([H])nc(N([H])c3c([H])c(Cl)c(Cl)c([H])c3F)c2c1[H]


 38 40  0  0  0  0  0  0  0  0999 V2000
    1.9569  -49.0038  -21.7382 C   0  0  0  0  0  0  0  0  0  0  0  0
    0.9951  -49.7027  -21.0722 C   0  0  0  0  0  0  0  0  0  0  0  0
    0.4699  -50.9118  -21.5714 C   0  0  0  0  0  0  0  0  0  0  0  0
   -0.4411  -51.5798  -20.9536 N   0  0  0  0  0  0  0  0  0  0  0  0
   -1.0093  -52.7657  -21.3451 C   0  0  0  0  0  0  0  0  0  0  0  0
   -0.4510  -53.1899  -22.5399 N   0  0  0  0  0  0  0  0  0  0  0  0
    0.4949  -52.5350  -23.2182 C   0  0  0  0  0  0  0  0  0  0  0  0
    1.0298  -51.3284  -22.7990 C   0  0  0  0  0  0  0  0  0  0  0  0
    1.9792  -50.6090  -23.4408 C   0  0  0  0  0  0  0  0  0  0  0  0
    2.4888  -49.3958  -22.9601 C   0  0  0  0  0  0  0  0  0  0  0  0
    3.0960  -48.4078  -23.7113 N   0  0  0  0  0  0  0  0  0  0  0  0
    3.6871  -47.4420  -24.3607 C   0  0  0  0  0  0  0  0  0  0  0  0
    4.3247  -46.4307  -23.9262 O   0  0  0  0  0  0  0  0  0  0  0  0
    3.1056  -47.5893  -22.5883 H   0  0  0  0  0  0  0  0  0  0  0  0
    3.6452  -47.4640  -25.8619 C   0  0  0  0  0  0  0  0  0  0  0  0
    4.7727  -47.2324  -26.5291 C   0  0  0  0  0  0  0  0  0  0  0  0
    1.1611  -53.2169  -24.2957 N   0  0  0  0  0  0  0  0  0  0  0  0
    1.9310  -53.8466  -24.1463 H   0  0  0  0  0  0  0  0  0  0  0  0
    0.6635  -52.9876  -25.6107 C   0  0  0  0  0  0  0  0  0  0  0  0
   -0.5853  -52.8149  -26.0406 C   0  0  0  0  0  0  0  0  0  0  0  0
   -1.0220  -52.6912  -27.3409 C   0  0  0  0  0  0  0  0  0  0  0  0
   -2.6957  -52.4726  -27.7963 Cl  0  0  0  0  0  0  0  0  0  0  0  0
   -0.0018  -52.7541  -28.3170 C   0  0  0  0  0  0  0  0  0  0  0  0
   -0.4795  -52.6684  -29.9773 Cl  0  0  0  0  0  0  0  0  0  0  0  0
    1.2933  -52.9149  -27.9776 C   0  0  0  0  0  0  0  0  0  0  0  0
    1.6680  -53.0356  -26.6547 C   0  0  0  0  0  0  0  0  0  0  0  0
    2.9371  -53.2169  -26.2827 F   0  0  0  0  0  0  0  0  0  0  0  0
    2.4954  -47.8056  -21.1551 O   0  0  0  0  0  0  0  0  0  0  0  0
    2.7395  -47.9710  -19.7925 C   0  0  0  0  0  0  0  0  0  0  0  0
    2.9323  -48.0372  -18.4597 C   0  0  0  0  0  0  0  0  0  0  0  0
    1.3159  -49.6119  -17.2814 C   0  0  0  0  0  0  0  0  0  0  0  0
    2.0547  -50.5705  -17.8559 O   0  0  0  0  0  0  0  0  0  0  0  0
    1.7812  -48.3643  -17.5626 N   0  0  0  0  0  0  0  0  0  0  0  0
    1.3418  -47.5071  -17.1545 H   0  0  0  0  0  0  0  0  0  0  0  0
    0.2119  -50.1449  -16.5083 C   0  0  0  0  0  0  0  0  0  0  0  0
   -0.8829  -52.2014  -17.2045 C   0  0  0  0  0  0  0  0  0  0  0  0
    0.0675  -51.5339  -16.3487 N   0  0  0  0  0  0  0  0  0  0  0  0
   -0.5077  -51.6634  -14.9588 C   0  0  0  0  0  0  0  0  0  0  0  0
 36 37  1  0  0  0
 37 38  1  0  0  0
 37 35  1  0  0  0
 35 31  1  0  0  0
 31 32  2  0  0  0
 31 33  1  0  0  0
 33 30  1  0  0  0
 30 29  1  0  0  0
 29 28  1  0  0  0
 28  1  1  0  0  0
  1  2  2  0  0  0
  2  3  1  0  0  0
  3  4  2  0  0  0
  4  5  1  0  0  0
  5  6  2  0  0  0
  6  7  1  0  0  0
  7 17  1  0  0  0
 17 19  1  0  0  0
 19 20  2  0  0  0
 20 21  1  0  0  0
 21 22  1  0  0  0
 21 23  2  0  0  0
 23 24  1  0  0  0
 23 25  1  0  0  0
 25 26  2  0  0  0
 26 27  1  0  0  0
  7  8  2  0  0  0
  8  9  1  0  0  0
  9 10  2  0  0  0
 10 11  1  0  0  0
 11 12  1  0  0  0
 12 13  2  0  0  0
 12 15  1  0  0  0
 15 16  2  0  0  0
 10  1  1  0  0  0
  8  3  1  0  0  0
 26 19  1  0  0  0
 33 34  1  0  0  0
 17 18  1  0  0  0
 11 14  1  0  0  0
M  END
> <minimizedAffinity>
-7.25094

> <CNNscore>
0.5192114115

> <CNNaffinity>
7.2844305038

> <CNN_VS>
3.7821593285

> <CNNaffinity_variance>
0.1243053228

$$$$
[H]C([H])=C([H])C(=O)N([H])c1c(OC([H])([H])C([H])([H])N([H])C(=O)C([H])([H])N(C([H])([H])[H])C([H])([H])[H])c([H])c2nc([H])nc(N([H])c3c([H])c(Cl)c(Cl)c([H])c3F)c2c1[H]


 38 40  0  0  0  0  0  0  0  0999 V2000
    1.2569  -49.7076  -20.4759 C   0  0  0  0  0  0  0  0  0  0  0  0
    0.3751  -50.6804  -20.1110 C   0  0  0  0  0  0  0  0  0  0  0  0
    0.0795  -51.7735  -20.9503 C   0  0  0  0  0  0  0  0  0  0  0  0
   -0.7540  -52.6972  -20.6187 N   0  0  0  0  0  0  0  0  0  0  0  0
   -1.1025  -53.8025  -21.3532 C   0  0  0  0  0  0  0  0  0  0  0  0
   -0.4078  -53.8166  -22.5517 N   0  0  0  0  0  0  0  0  0  0  0  0
    0.4660  -52.8847  -22.9411 C   0  0  0  0  0  0  0  0  0  0  0  0
    0.7767  -51.7715  -22.1784 C   0  0  0  0  0  0  0  0  0  0  0  0
    1.6415  -50.7871  -22.5161 C   0  0  0  0  0  0  0  0  0  0  0  0
    1.9222  -49.6873  -21.6951 C   0  0  0  0  0  0  0  0  0  0  0  0
    2.4149  -48.4636  -22.1060 N   0  0  0  0  0  0  0  0  0  0  0  0
    2.8836  -47.2881  -22.4263 C   0  0  0  0  0  0  0  0  0  0  0  0
    3.2545  -46.3227  -21.6857 O   0  0  0  0  0  0  0  0  0  0  0  0
    2.1267  -47.9488  -20.8477 H   0  0  0  0  0  0  0  0  0  0  0  0
    3.0328  -46.9544  -23.8831 C   0  0  0  0  0  0  0  0  0  0  0  0
    3.6184  -47.8454  -24.6788 C   0  0  0  0  0  0  0  0  0  0  0  0
    1.2997  -53.1614  -24.0805 N   0  0  0  0  0  0  0  0  0  0  0  0
    2.2313  -53.5307  -23.9949 H   0  0  0  0  0  0  0  0  0  0  0  0
    0.7380  -52.9164  -25.3666 C   0  0  0  0  0  0  0  0  0  0  0  0
   -0.5289  -52.7238  -25.7300 C   0  0  0  0  0  0  0  0  0  0  0  0
   -1.0305  -52.5853  -27.0052 C   0  0  0  0  0  0  0  0  0  0  0  0
   -2.7224  -52.3408  -27.3719 Cl  0  0  0  0  0  0  0  0  0  0  0  0
   -0.0631  -52.6552  -28.0332 C   0  0  0  0  0  0  0  0  0  0  0  0
   -0.6249  -52.5516  -29.6660 Cl  0  0  0  0  0  0  0  0  0  0  0  0
    1.2454  -52.8359  -27.7624 C   0  0  0  0  0  0  0  0  0  0  0  0
    1.6864  -52.9707  -26.4615 C   0  0  0  0  0  0  0  0  0  0  0  0
    2.9703  -53.1718  -26.1568 F   0  0  0  0  0  0  0  0  0  0  0  0
    1.5617  -48.6452  -19.5571 O   0  0  0  0  0  0  0  0  0  0  0  0
    2.1425  -49.1370  -18.3890 C   0  0  0  0  0  0  0  0  0  0  0  0
    2.6324  -49.6885  -17.2604 C   0  0  0  0  0  0  0  0  0  0  0  0
    3.7252  -48.1488  -15.5529 C   0  0  0  0  0  0  0  0  0  0  0  0
    2.4641  -47.9227  -15.1613 O   0  0  0  0  0  0  0  0  0  0  0  0
    3.7954  -49.0492  -16.5709 N   0  0  0  0  0  0  0  0  0  0  0  0
    4.7116  -49.3679  -16.9628 H   0  0  0  0  0  0  0  0  0  0  0  0
    4.6921  -47.3796  -14.7952 C   0  0  0  0  0  0  0  0  0  0  0  0
    5.2616  -46.2226  -12.7338 C   0  0  0  0  0  0  0  0  0  0  0  0
    4.6112  -47.3289  -13.3929 N   0  0  0  0  0  0  0  0  0  0  0  0
    5.3887  -48.5478  -12.9583 C   0  0  0  0  0  0  0  0  0  0  0  0
 36 37  1  0  0  0
 37 38  1  0  0  0
 37 35  1  0  0  0
 35 31  1  0  0  0
 31 32  2  0  0  0
 31 33  1  0  0  0
 33 30  1  0  0  0
 30 29  1  0  0  0
 29 28  1  0  0  0
 28  1  1  0  0  0
  1  2  2  0  0  0
  2  3  1  0  0  0
  3  4  2  0  0  0
  4  5  1  0  0  0
  5  6  2  0  0  0
  6  7  1  0  0  0
  7 17  1  0  0  0
 17 19  1  0  0  0
 19 20  2  0  0  0
 20 21  1  0  0  0
 21 22  1  0  0  0
 21 23  2  0  0  0
 23 24  1  0  0  0
 23 25  1  0  0  0
 25 26  2  0  0  0
 26 27  1  0  0  0
  7  8  2  0  0  0
  8  9  1  0  0  0
  9 10  2  0  0  0
 10 11  1  0  0  0
 11 12  1  0  0  0
 12 13  2  0  0  0
 12 15  1  0  0  0
 15 16  2  0  0  0
 10  1  1  0  0  0
  8  3  1  0  0  0
 26 19  1  0  0  0
 33 34  1  0  0  0
 17 18  1  0  0  0
 11 14  1  0  0  0
M  END
> <minimizedAffinity>
-6.85156

> <CNNscore>
0.4511165023

> <CNNaffinity>
7.1654448509

> <CNN_VS>
3.2324504852

> <CNNaffinity_variance>
0.3228733838

$$$$
[H]C([H])=C([H])C(=O)N([H])c1c(OC([H])([H])C([H])([H])N([H])C(=O)C([H])([H])N(C([H])([H])[H])C([H])([H])[H])c([H])c2nc([H])nc(N([H])c3c([H])c(Cl)c(Cl)c([H])c3F)c2c1[H]


 38 40  0  0  0  0  0  0  0  0999 V2000
    3.0293  -51.5647  -19.8478 C   0  0  0  0  0  0  0  0  0  0  0  0
    1.7765  -52.1010  -19.8410 C   0  0  0  0  0  0  0  0  0  0  0  0
    1.0916  -52.4137  -21.0326 C   0  0  0  0  0  0  0  0  0  0  0  0
   -0.0934  -52.9175  -21.0398 N   0  0  0  0  0  0  0  0  0  0  0  0
   -0.8397  -53.2662  -22.1370 C   0  0  0  0  0  0  0  0  0  0  0  0
   -0.1281  -53.0109  -23.2979 N   0  0  0  0  0  0  0  0  0  0  0  0
    1.1012  -52.4910  -23.3437 C   0  0  0  0  0  0  0  0  0  0  0  0
    1.8151  -52.1331  -22.2124 C   0  0  0  0  0  0  0  0  0  0  0  0
    3.0557  -51.5935  -22.1875 C   0  0  0  0  0  0  0  0  0  0  0  0
    3.7320  -51.2605  -21.0067 C   0  0  0  0  0  0  0  0  0  0  0  0
    4.7560  -50.3414  -20.8811 N   0  0  0  0  0  0  0  0  0  0  0  0
    5.6745  -49.4221  -20.7581 C   0  0  0  0  0  0  0  0  0  0  0  0
    5.5618  -48.1679  -20.5789 O   0  0  0  0  0  0  0  0  0  0  0  0
    3.8528  -49.3268  -21.1745 H   0  0  0  0  0  0  0  0  0  0  0  0
    7.1150  -49.8411  -20.8324 C   0  0  0  0  0  0  0  0  0  0  0  0
    8.0522  -48.9025  -20.7297 C   0  0  0  0  0  0  0  0  0  0  0  0
    1.8130  -52.5253  -24.5935 N   0  0  0  0  0  0  0  0  0  0  0  0
    2.8167  -52.5645  -24.6460 H   0  0  0  0  0  0  0  0  0  0  0  0
    1.0293  -52.5315  -25.7832 C   0  0  0  0  0  0  0  0  0  0  0  0
   -0.2765  -52.3322  -25.9548 C   0  0  0  0  0  0  0  0  0  0  0  0
   -1.0024  -52.4439  -27.1198 C   0  0  0  0  0  0  0  0  0  0  0  0
   -2.7245  -52.1638  -27.2324 Cl  0  0  0  0  0  0  0  0  0  0  0  0
   -0.2464  -52.8111  -28.2561 C   0  0  0  0  0  0  0  0  0  0  0  0
   -1.0992  -53.0318  -29.7448 Cl  0  0  0  0  0  0  0  0  0  0  0  0
    1.0834  -53.0225  -28.1831 C   0  0  0  0  0  0  0  0  0  0  0  0
    1.7547  -52.8970  -26.9838 C   0  0  0  0  0  0  0  0  0  0  0  0
    3.0660  -53.1189  -26.8694 F   0  0  0  0  0  0  0  0  0  0  0  0
    3.7019  -51.3172  -18.6019 O   0  0  0  0  0  0  0  0  0  0  0  0
    2.9597  -50.4641  -17.7865 C   0  0  0  0  0  0  0  0  0  0  0  0
    2.1564  -49.6730  -17.0472 C   0  0  0  0  0  0  0  0  0  0  0  0
    2.2746  -49.0231  -14.5886 C   0  0  0  0  0  0  0  0  0  0  0  0
    1.2791  -49.9094  -14.4536 O   0  0  0  0  0  0  0  0  0  0  0  0
    2.7206  -48.9404  -15.8717 N   0  0  0  0  0  0  0  0  0  0  0  0
    3.5243  -48.3256  -16.1374 H   0  0  0  0  0  0  0  0  0  0  0  0
    2.6233  -48.3793  -13.3378 C   0  0  0  0  0  0  0  0  0  0  0  0
    4.8673  -47.5703  -13.8095 C   0  0  0  0  0  0  0  0  0  0  0  0
    3.9686  -48.2906  -12.9406 N   0  0  0  0  0  0  0  0  0  0  0  0
    4.4410  -49.7233  -12.9994 C   0  0  0  0  0  0  0  0  0  0  0  0
 36 37  1  0  0  0
 37 38  1  0  0  0
 37 35  1  0  0  0
 35 31  1  0  0  0
 31 32  2  0  0  0
 31 33  1  0  0  0
 33 30  1  0  0  0
 30 29  1  0  0  0
 29 28  1  0  0  0
 28  1  1  0  0  0
  1  2  2  0  0  0
  2  3  1  0  0  0
  3  4  2  0  0  0
  4  5  1  0  0  0
  5  6  2  0  0  0
  6  7  1  0  0  0
  7 17  1  0  0  0
 17 19  1  0  0  0
 19 20  2  0  0  0
 20 21  1  0  0  0
 21 22  1  0  0  0
 21 23  2  0  0  0
 23 24  1  0  0  0
 23 25  1  0  0  0
 25 26  2  0  0  0
 26 27  1  0  0  0
  7  8  2  0  0  0
  8  9  1  0  0  0
  9 10  2  0  0  0
 10 11  1  0  0  0
 11 12  1  0  0  0
 12 13  2  0  0  0
 12 15  1  0  0  0
 15 16  2  0  0  0
 10  1  1  0  0  0
  8  3  1  0  0  0
 26 19  1  0  0  0
 33 34  1  0  0  0
 17 18  1  0  0  0
 11 14  1  0  0  0
M  END
> <minimizedAffinity>
-6.93125

> <CNNscore>
0.4267802835

> <CNNaffinity>
7.1723694801

> <CNN_VS>
3.0610258579

> <CNNaffinity_variance>
0.4208680689

$$$$
[H]C([H])=C([H])C(=O)N([H])c1c(OC([H])([H])C([H])([H])N([H])C(=O)C([H])([H])N(C([H])([H])[H])C([H])([H])[H])c([H])c2nc([H])nc(N([H])c3c([H])c(Cl)c(Cl)c([H])c3F)c2c1[H]


 38 40  0  0  0  0  0  0  0  0999 V2000
    1.2188  -50.0937  -21.6901 C   0  0  0  0  0  0  0  0  0  0  0  0
    2.1944  -49.4585  -22.3985 C   0  0  0  0  0  0  0  0  0  0  0  0
    2.8323  -50.0643  -23.4998 C   0  0  0  0  0  0  0  0  0  0  0  0
    3.7575  -49.4763  -24.1752 N   0  0  0  0  0  0  0  0  0  0  0  0
    4.4310  -49.9701  -25.2638 C   0  0  0  0  0  0  0  0  0  0  0  0
    3.9672  -51.2377  -25.5762 N   0  0  0  0  0  0  0  0  0  0  0  0
    3.0114  -51.8892  -24.9088 C   0  0  0  0  0  0  0  0  0  0  0  0
    2.3680  -51.3636  -23.8008 C   0  0  0  0  0  0  0  0  0  0  0  0
    1.4021  -51.9716  -23.0742 C   0  0  0  0  0  0  0  0  0  0  0  0
    0.7804  -51.3827  -21.9655 C   0  0  0  0  0  0  0  0  0  0  0  0
    0.1409  -52.0472  -20.9366 N   0  0  0  0  0  0  0  0  0  0  0  0
   -0.4204  -52.6420  -19.9193 C   0  0  0  0  0  0  0  0  0  0  0  0
   -0.2018  -52.5171  -18.6724 O   0  0  0  0  0  0  0  0  0  0  0  0
    1.1954  -51.7147  -20.0947 H   0  0  0  0  0  0  0  0  0  0  0  0
   -1.5025  -53.6475  -20.1911 C   0  0  0  0  0  0  0  0  0  0  0  0
   -1.5091  -54.2660  -21.3690 C   0  0  0  0  0  0  0  0  0  0  0  0
    2.4531  -53.0772  -25.4979 N   0  0  0  0  0  0  0  0  0  0  0  0
    2.7811  -54.0008  -25.2724 H   0  0  0  0  0  0  0  0  0  0  0  0
    1.3748  -52.8994  -26.4117 C   0  0  0  0  0  0  0  0  0  0  0  0
    0.0999  -52.5847  -26.1880 C   0  0  0  0  0  0  0  0  0  0  0  0
   -0.9272  -52.5186  -27.1031 C   0  0  0  0  0  0  0  0  0  0  0  0
   -2.5753  -52.0983  -26.6982 Cl  0  0  0  0  0  0  0  0  0  0  0  0
   -0.5565  -52.8213  -28.4329 C   0  0  0  0  0  0  0  0  0  0  0  0
   -1.8055  -52.8199  -29.6297 Cl  0  0  0  0  0  0  0  0  0  0  0  0
    0.7128  -53.1395  -28.7586 C   0  0  0  0  0  0  0  0  0  0  0  0
    1.6987  -53.1914  -27.7941 C   0  0  0  0  0  0  0  0  0  0  0  0
    2.9606  -53.5230  -28.0759 F   0  0  0  0  0  0  0  0  0  0  0  0
    0.5642  -49.4067  -20.6106 O   0  0  0  0  0  0  0  0  0  0  0  0
    1.4326  -49.2039  -19.5389 C   0  0  0  0  0  0  0  0  0  0  0  0
    2.3239  -49.0932  -18.5334 C   0  0  0  0  0  0  0  0  0  0  0  0
    4.7306  -48.5103  -19.1237 C   0  0  0  0  0  0  0  0  0  0  0  0
    4.2695  -47.2527  -19.1495 O   0  0  0  0  0  0  0  0  0  0  0  0
    3.7643  -49.4069  -18.7856 N   0  0  0  0  0  0  0  0  0  0  0  0
    3.9717  -50.4267  -18.6784 H   0  0  0  0  0  0  0  0  0  0  0  0
    6.1375  -48.5968  -19.4610 C   0  0  0  0  0  0  0  0  0  0  0  0
    6.0137  -47.9833  -21.8106 C   0  0  0  0  0  0  0  0  0  0  0  0
    6.5313  -48.8561  -20.7851 N   0  0  0  0  0  0  0  0  0  0  0  0
    5.9088  -50.2010  -21.0730 C   0  0  0  0  0  0  0  0  0  0  0  0
 36 37  1  0  0  0
 37 38  1  0  0  0
 37 35  1  0  0  0
 35 31  1  0  0  0
 31 32  2  0  0  0
 31 33  1  0  0  0
 33 30  1  0  0  0
 30 29  1  0  0  0
 29 28  1  0  0  0
 28  1  1  0  0  0
  1  2  2  0  0  0
  2  3  1  0  0  0
  3  4  2  0  0  0
  4  5  1  0  0  0
  5  6  2  0  0  0
  6  7  1  0  0  0
  7 17  1  0  0  0
 17 19  1  0  0  0
 19 20  2  0  0  0
 20 21  1  0  0  0
 21 22  1  0  0  0
 21 23  2  0  0  0
 23 24  1  0  0  0
 23 25  1  0  0  0
 25 26  2  0  0  0
 26 27  1  0  0  0
  7  8  2  0  0  0
  8  9  1  0  0  0
  9 10  2  0  0  0
 10 11  1  0  0  0
 11 12  1  0  0  0
 12 13  2  0  0  0
 12 15  1  0  0  0
 15 16  2  0  0  0
 10  1  1  0  0  0
  8  3  1  0  0  0
 26 19  1  0  0  0
 33 34  1  0  0  0
 17 18  1  0  0  0
 11 14  1  0  0  0
M  END
> <minimizedAffinity>
-7.04518

> <CNNscore>
0.3931725919

> <CNNaffinity>
7.2344818115

> <CNN_VS>
2.8443999290

> <CNNaffinity_variance>
0.1933222711

$$$$
[H]C([H])=C([H])C(=O)N([H])c1c(OC([H])([H])C([H])([H])N([H])C(=O)C([H])([H])N(C([H])([H])[H])C([H])([H])[H])c([H])c2nc([H])nc(N([H])c3c([H])c(Cl)c(Cl)c([H])c3F)c2c1[H]


 38 40  0  0  0  0  0  0  0  0999 V2000
    1.4514  -49.5368  -21.5661 C   0  0  0  0  0  0  0  0  0  0  0  0
    2.3045  -48.9160  -22.4287 C   0  0  0  0  0  0  0  0  0  0  0  0
    2.8436  -49.5769  -23.5509 C   0  0  0  0  0  0  0  0  0  0  0  0
    3.6530  -49.0028  -24.3714 N   0  0  0  0  0  0  0  0  0  0  0  0
    4.2229  -49.5495  -25.4933 C   0  0  0  0  0  0  0  0  0  0  0  0
    3.7945  -50.8569  -25.6565 N   0  0  0  0  0  0  0  0  0  0  0  0
    2.9572  -51.4962  -24.8357 C   0  0  0  0  0  0  0  0  0  0  0  0
    2.4177  -50.9150  -23.7004 C   0  0  0  0  0  0  0  0  0  0  0  0
    1.5749  -51.5069  -22.8229 C   0  0  0  0  0  0  0  0  0  0  0  0
    1.0535  -50.8615  -21.6940 C   0  0  0  0  0  0  0  0  0  0  0  0
    0.5720  -51.4716  -20.5517 N   0  0  0  0  0  0  0  0  0  0  0  0
    0.1500  -51.9984  -19.4344 C   0  0  0  0  0  0  0  0  0  0  0  0
    0.3078  -51.6109  -18.2331 O   0  0  0  0  0  0  0  0  0  0  0  0
    1.4993  -50.7557  -19.8040 H   0  0  0  0  0  0  0  0  0  0  0  0
   -0.6538  -53.2653  -19.5039 C   0  0  0  0  0  0  0  0  0  0  0  0
   -0.7035  -53.9194  -20.6613 C   0  0  0  0  0  0  0  0  0  0  0  0
    2.3993  -52.7501  -25.2675 N   0  0  0  0  0  0  0  0  0  0  0  0
    2.6918  -53.6342  -24.8876 H   0  0  0  0  0  0  0  0  0  0  0  0
    1.3733  -52.6947  -26.2543 C   0  0  0  0  0  0  0  0  0  0  0  0
    0.0773  -52.4117  -26.1336 C   0  0  0  0  0  0  0  0  0  0  0  0
   -0.8938  -52.4656  -27.1087 C   0  0  0  0  0  0  0  0  0  0  0  0
   -2.5767  -52.0762  -26.8388 Cl  0  0  0  0  0  0  0  0  0  0  0  0
   -0.4326  -52.8682  -28.3826 C   0  0  0  0  0  0  0  0  0  0  0  0
   -1.6057  -53.0196  -29.6448 Cl  0  0  0  0  0  0  0  0  0  0  0  0
    0.8641  -53.1638  -28.6047 C   0  0  0  0  0  0  0  0  0  0  0  0
    1.7906  -53.0931  -27.5841 C   0  0  0  0  0  0  0  0  0  0  0  0
    3.0778  -53.3984  -27.7618 F   0  0  0  0  0  0  0  0  0  0  0  0
    0.8889  -48.7975  -20.4693 O   0  0  0  0  0  0  0  0  0  0  0  0
    1.8231  -48.6131  -19.4510 C   0  0  0  0  0  0  0  0  0  0  0  0
    2.6563  -48.4749  -18.4001 C   0  0  0  0  0  0  0  0  0  0  0  0
    2.8685  -50.2472  -16.5849 C   0  0  0  0  0  0  0  0  0  0  0  0
    3.8481  -50.7243  -17.3645 O   0  0  0  0  0  0  0  0  0  0  0  0
    2.3097  -49.1155  -17.0939 N   0  0  0  0  0  0  0  0  0  0  0  0
    1.5601  -48.5935  -16.5839 H   0  0  0  0  0  0  0  0  0  0  0  0
    2.6532  -51.0547  -15.4008 C   0  0  0  0  0  0  0  0  0  0  0  0
    3.4897  -52.2973  -13.4855 C   0  0  0  0  0  0  0  0  0  0  0  0
    3.7214  -51.3289  -14.5295 N   0  0  0  0  0  0  0  0  0  0  0  0
    3.9197  -50.0198  -13.8041 C   0  0  0  0  0  0  0  0  0  0  0  0
 36 37  1  0  0  0
 37 38  1  0  0  0
 37 35  1  0  0  0
 35 31  1  0  0  0
 31 32  2  0  0  0
 31 33  1  0  0  0
 33 30  1  0  0  0
 30 29  1  0  0  0
 29 28  1  0  0  0
 28  1  1  0  0  0
  1  2  2  0  0  0
  2  3  1  0  0  0
  3  4  2  0  0  0
  4  5  1  0  0  0
  5  6  2  0  0  0
  6  7  1  0  0  0
  7 17  1  0  0  0
 17 19  1  0  0  0
 19 20  2  0  0  0
 20 21  1  0  0  0
 21 22  1  0  0  0
 21 23  2  0  0  0
 23 24  1  0  0  0
 23 25  1  0  0  0
 25 26  2  0  0  0
 26 27  1  0  0  0
  7  8  2  0  0  0
  8  9  1  0  0  0
  9 10  2  0  0  0
 10 11  1  0  0  0
 11 12  1  0  0  0
 12 13  2  0  0  0
 12 15  1  0  0  0
 15 16  2  0  0  0
 10  1  1  0  0  0
  8  3  1  0  0  0
 26 19  1  0  0  0
 33 34  1  0  0  0
 17 18  1  0  0  0
 11 14  1  0  0  0
M  END
> <minimizedAffinity>
-7.20538

> <CNNscore>
0.3901957273

> <CNNaffinity>
7.1689734459

> <CNN_VS>
2.7973027229

> <CNNaffinity_variance>
0.0272972435

$$$$
[H]c1nc(N([H])c2c([H])c([H])c(OC([H])([H])c3c([H])c([H])c([H])c(F)c3[H])c(C(F)(F)F)c2[H])c2c([H])c(-c3oc(C([H])([H])N([H])C([H])([H])C([H])([H])S(=O)(=O)c4nc([H])c([H])n4C([H])([H])[H])c([H])c3[H])c([H])c([H])c2n1


 50 55  0  0  0  0  0  0  0  0999 V2000
    0.1807  -51.8715  -20.9700 C   0  0  0  0  0  0  0  0  0  0  0  0
   -0.4005  -52.8617  -20.2172 C   0  0  0  0  0  0  0  0  0  0  0  0
   -0.9022  -54.0048  -20.7890 C   0  0  0  0  0  0  0  0  0  0  0  0
   -0.8293  -54.1796  -22.1519 C   0  0  0  0  0  0  0  0  0  0  0  0
   -1.3274  -55.2985  -22.7250 N   0  0  0  0  0  0  0  0  0  0  0  0
   -1.2796  -55.4970  -24.0476 C   0  0  0  0  0  0  0  0  0  0  0  0
   -0.7161  -54.5424  -24.7920 N   0  0  0  0  0  0  0  0  0  0  0  0
   -0.1962  -53.4068  -24.3355 C   0  0  0  0  0  0  0  0  0  0  0  0
   -0.2541  -53.2164  -22.9634 C   0  0  0  0  0  0  0  0  0  0  0  0
    0.2417  -52.0738  -22.3435 C   0  0  0  0  0  0  0  0  0  0  0  0
    1.4355  -49.2128  -18.9183 C   0  0  0  0  0  0  0  0  0  0  0  0
    1.4651  -48.5740  -20.1390 C   0  0  0  0  0  0  0  0  0  0  0  0
    0.9977  -49.4991  -21.0479 C   0  0  0  0  0  0  0  0  0  0  0  0
    0.7044  -50.6541  -20.3521 C   0  0  0  0  0  0  0  0  0  0  0  0
    0.9817  -50.4271  -19.1055 O   0  0  0  0  0  0  0  0  0  0  0  0
    1.8500  -48.6163  -17.6160 C   0  0  0  0  0  0  0  0  0  0  0  0
    1.2139  -49.3203  -16.5186 N   0  0  0  0  0  0  0  0  0  0  0  0
    1.8155  -50.0402  -16.1068 H   0  0  0  0  0  0  0  0  0  0  0  0
    0.5926  -48.4405  -15.5692 C   0  0  0  0  0  0  0  0  0  0  0  0
    0.0013  -49.1872  -14.4116 C   0  0  0  0  0  0  0  0  0  0  0  0
   -1.7131  -49.5323  -14.6319 S   0  0  0  0  0  0  0  0  0  0  0  0
   -2.3556  -49.6240  -13.2818 O   0  0  0  0  0  0  0  0  0  0  0  0
   -2.3388  -48.3253  -15.3073 O   0  0  0  0  0  0  0  0  0  0  0  0
   -4.4847  -51.1382  -15.4606 C   0  0  0  0  0  0  0  0  0  0  0  0
   -3.1653  -51.5313  -15.9068 N   0  0  0  0  0  0  0  0  0  0  0  0
   -2.9204  -52.5774  -16.6964 C   0  0  0  0  0  0  0  0  0  0  0  0
   -1.5648  -52.6332  -16.9058 C   0  0  0  0  0  0  0  0  0  0  0  0
   -1.0128  -51.6126  -16.2338 N   0  0  0  0  0  0  0  0  0  0  0  0
   -2.0063  -50.9373  -15.6201 C   0  0  0  0  0  0  0  0  0  0  0  0
    0.4231  -52.4313  -25.1434 N   0  0  0  0  0  0  0  0  0  0  0  0
   -0.1346  -51.9237  -25.8941 H   0  0  0  0  0  0  0  0  0  0  0  0
    1.7896  -52.0436  -25.0440 C   0  0  0  0  0  0  0  0  0  0  0  0
    2.8644  -52.8790  -24.9392 C   0  0  0  0  0  0  0  0  0  0  0  0
    4.1778  -52.3943  -24.8221 C   0  0  0  0  0  0  0  0  0  0  0  0
    4.4363  -51.0456  -24.8091 C   0  0  0  0  0  0  0  0  0  0  0  0
    3.3617  -50.1939  -24.9145 C   0  0  0  0  0  0  0  0  0  0  0  0
    2.0724  -50.6680  -25.0291 C   0  0  0  0  0  0  0  0  0  0  0  0
    3.6511  -48.7310  -24.8958 C   0  0  0  0  0  0  0  0  0  0  0  0
    3.4419  -48.2139  -23.6293 F   0  0  0  0  0  0  0  0  0  0  0  0
    4.9309  -48.4932  -25.3567 F   0  0  0  0  0  0  0  0  0  0  0  0
    2.7803  -48.1032  -25.7720 F   0  0  0  0  0  0  0  0  0  0  0  0
    5.7398  -50.5440  -24.6939 O   0  0  0  0  0  0  0  0  0  0  0  0
    6.5389  -50.9327  -23.5674 C   0  0  0  0  0  0  0  0  0  0  0  0
    6.0092  -50.3077  -22.3521 C   0  0  0  0  0  0  0  0  0  0  0  0
    6.2676  -48.9862  -22.0795 C   0  0  0  0  0  0  0  0  0  0  0  0
    5.7700  -48.3726  -20.9265 C   0  0  0  0  0  0  0  0  0  0  0  0
    5.0049  -49.0982  -20.0404 C   0  0  0  0  0  0  0  0  0  0  0  0
    4.7414  -50.4261  -20.3082 C   0  0  0  0  0  0  0  0  0  0  0  0
    3.9919  -51.1128  -19.4301 F   0  0  0  0  0  0  0  0  0  0  0  0
    5.2428  -51.0354  -21.4651 C   0  0  0  0  0  0  0  0  0  0  0  0
 24 25  1  0  0  0
 25 26  1  0  0  0
 26 27  2  0  0  0
 27 28  1  0  0  0
 28 29  2  0  0  0
 29 21  1  0  0  0
 21 22  2  0  0  0
 21 23  2  0  0  0
 21 20  1  0  0  0
 20 19  1  0  0  0
 19 17  1  0  0  0
 17 16  1  0  0  0
 16 11  1  0  0  0
 11 12  2  0  0  0
 12 13  1  0  0  0
 13 14  2  0  0  0
 14 15  1  0  0  0
 14  1  1  0  0  0
  1  2  2  0  0  0
  2  3  1  0  0  0
  3  4  2  0  0  0
  4  5  1  0  0  0
  5  6  2  0  0  0
  6  7  1  0  0  0
  7  8  2  0  0  0
  8 30  1  0  0  0
 30 32  1  0  0  0
 32 33  2  0  0  0
 33 34  1  0  0  0
 34 35  2  0  0  0
 35 42  1  0  0  0
 42 43  1  0  0  0
 43 44  1  0  0  0
 44 45  2  0  0  0
 45 46  1  0  0  0
 46 47  2  0  0  0
 47 48  1  0  0  0
 48 49  1  0  0  0
 48 50  2  0  0  0
 35 36  1  0  0  0
 36 37  2  0  0  0
 36 38  1  0  0  0
 38 39  1  0  0  0
 38 40  1  0  0  0
 38 41  1  0  0  0
  8  9  1  0  0  0
  9 10  2  0  0  0
 29 25  1  0  0  0
 15 11  1  0  0  0
 10  1  1  0  0  0
  9  4  1  0  0  0
 37 32  1  0  0  0
 50 44  1  0  0  0
 17 18  1  0  0  0
 30 31  1  0  0  0
M  END
> <minimizedAffinity>
-8.27466

> <CNNscore>
0.3863344789

> <CNNaffinity>
8.0429744720

> <CNN_VS>
3.1072783470

> <CNNaffinity_variance>
0.3436884284

$$$$
[H]c1nc(N([H])c2c([H])c([H])c(OC([H])([H])c3c([H])c([H])c([H])c(F)c3[H])c(C(F)(F)F)c2[H])c2c([H])c(-c3oc(C([H])([H])N([H])C([H])([H])C([H])([H])S(=O)(=O)c4nc([H])c([H])n4C([H])([H])[H])c([H])c3[H])c([H])c([H])c2n1


 50 55  0  0  0  0  0  0  0  0999 V2000
    0.1892  -51.7966  -20.8690 C   0  0  0  0  0  0  0  0  0  0  0  0
   -0.3992  -52.7649  -20.0936 C   0  0  0  0  0  0  0  0  0  0  0  0
   -0.9322  -53.9054  -20.6416 C   0  0  0  0  0  0  0  0  0  0  0  0
   -0.8846  -54.0999  -22.0030 C   0  0  0  0  0  0  0  0  0  0  0  0
   -1.4135  -55.2163  -22.5528 N   0  0  0  0  0  0  0  0  0  0  0  0
   -1.3909  -55.4336  -23.8731 C   0  0  0  0  0  0  0  0  0  0  0  0
   -0.8209  -54.5004  -24.6393 N   0  0  0  0  0  0  0  0  0  0  0  0
   -0.2716  -53.3692  -24.2067 C   0  0  0  0  0  0  0  0  0  0  0  0
   -0.3038  -53.1592  -22.8367 C   0  0  0  0  0  0  0  0  0  0  0  0
    0.2242  -52.0184  -22.2404 C   0  0  0  0  0  0  0  0  0  0  0  0
    1.5694  -49.1506  -18.8825 C   0  0  0  0  0  0  0  0  0  0  0  0
    1.5015  -48.4965  -20.0936 C   0  0  0  0  0  0  0  0  0  0  0  0
    0.9759  -49.4151  -20.9769 C   0  0  0  0  0  0  0  0  0  0  0  0
    0.7463  -50.5816  -20.2762 C   0  0  0  0  0  0  0  0  0  0  0  0
    1.1141  -50.3671  -19.0511 O   0  0  0  0  0  0  0  0  0  0  0  0
    2.0748  -48.5659  -17.6073 C   0  0  0  0  0  0  0  0  0  0  0  0
    1.0032  -48.4913  -16.6322 N   0  0  0  0  0  0  0  0  0  0  0  0
    0.0869  -48.3285  -17.0606 H   0  0  0  0  0  0  0  0  0  0  0  0
    1.0377  -49.5599  -15.6740 C   0  0  0  0  0  0  0  0  0  0  0  0
    1.9179  -49.2395  -14.5036 C   0  0  0  0  0  0  0  0  0  0  0  0
    3.0828  -50.5173  -14.1614 S   0  0  0  0  0  0  0  0  0  0  0  0
    3.3906  -51.2334  -15.4407 O   0  0  0  0  0  0  0  0  0  0  0  0
    4.3794  -49.8515  -13.7370 O   0  0  0  0  0  0  0  0  0  0  0  0
    4.5340  -53.1076  -12.7015 C   0  0  0  0  0  0  0  0  0  0  0  0
    3.2152  -52.6246  -12.3526 N   0  0  0  0  0  0  0  0  0  0  0  0
    2.4423  -53.1656  -11.4102 C   0  0  0  0  0  0  0  0  0  0  0  0
    1.2762  -52.4430  -11.3620 C   0  0  0  0  0  0  0  0  0  0  0  0
    1.3673  -51.4724  -12.2828 N   0  0  0  0  0  0  0  0  0  0  0  0
    2.5663  -51.5909  -12.8898 C   0  0  0  0  0  0  0  0  0  0  0  0
    0.3536  -52.4170  -25.0376 N   0  0  0  0  0  0  0  0  0  0  0  0
   -0.2039  -51.9156  -25.7926 H   0  0  0  0  0  0  0  0  0  0  0  0
    1.7260  -52.0463  -24.9571 C   0  0  0  0  0  0  0  0  0  0  0  0
    2.7850  -52.8891  -24.7777 C   0  0  0  0  0  0  0  0  0  0  0  0
    4.1059  -52.4195  -24.6876 C   0  0  0  0  0  0  0  0  0  0  0  0
    4.3883  -51.0785  -24.7783 C   0  0  0  0  0  0  0  0  0  0  0  0
    3.3299  -50.2194  -24.9595 C   0  0  0  0  0  0  0  0  0  0  0  0
    2.0332  -50.6788  -25.0478 C   0  0  0  0  0  0  0  0  0  0  0  0
    3.6452  -48.7648  -25.0531 C   0  0  0  0  0  0  0  0  0  0  0  0
    3.4943  -48.1579  -23.8186 F   0  0  0  0  0  0  0  0  0  0  0  0
    4.9100  -48.5848  -25.5772 F   0  0  0  0  0  0  0  0  0  0  0  0
    2.7520  -48.1812  -25.9376 F   0  0  0  0  0  0  0  0  0  0  0  0
    5.6997  -50.5920  -24.6915 O   0  0  0  0  0  0  0  0  0  0  0  0
    6.5045  -50.9559  -23.5608 C   0  0  0  0  0  0  0  0  0  0  0  0
    6.0267  -50.2464  -22.3707 C   0  0  0  0  0  0  0  0  0  0  0  0
    6.2688  -48.9028  -22.2172 C   0  0  0  0  0  0  0  0  0  0  0  0
    5.8200  -48.2090  -21.0899 C   0  0  0  0  0  0  0  0  0  0  0  0
    5.1207  -48.8763  -20.1086 C   0  0  0  0  0  0  0  0  0  0  0  0
    4.8739  -50.2260  -20.2565 C   0  0  0  0  0  0  0  0  0  0  0  0
    4.1890  -50.8547  -19.2871 F   0  0  0  0  0  0  0  0  0  0  0  0
    5.3262  -50.9157  -21.3882 C   0  0  0  0  0  0  0  0  0  0  0  0
 24 25  1  0  0  0
 25 26  1  0  0  0
 26 27  2  0  0  0
 27 28  1  0  0  0
 28 29  2  0  0  0
 29 21  1  0  0  0
 21 22  2  0  0  0
 21 23  2  0  0  0
 21 20  1  0  0  0
 20 19  1  0  0  0
 19 17  1  0  0  0
 17 16  1  0  0  0
 16 11  1  0  0  0
 11 12  2  0  0  0
 12 13  1  0  0  0
 13 14  2  0  0  0
 14 15  1  0  0  0
 14  1  1  0  0  0
  1  2  2  0  0  0
  2  3  1  0  0  0
  3  4  2  0  0  0
  4  5  1  0  0  0
  5  6  2  0  0  0
  6  7  1  0  0  0
  7  8  2  0  0  0
  8 30  1  0  0  0
 30 32  1  0  0  0
 32 33  2  0  0  0
 33 34  1  0  0  0
 34 35  2  0  0  0
 35 42  1  0  0  0
 42 43  1  0  0  0
 43 44  1  0  0  0
 44 45  2  0  0  0
 45 46  1  0  0  0
 46 47  2  0  0  0
 47 48  1  0  0  0
 48 49  1  0  0  0
 48 50  2  0  0  0
 35 36  1  0  0  0
 36 37  2  0  0  0
 36 38  1  0  0  0
 38 39  1  0  0  0
 38 40  1  0  0  0
 38 41  1  0  0  0
  8  9  1  0  0  0
  9 10  2  0  0  0
 29 25  1  0  0  0
 15 11  1  0  0  0
 10  1  1  0  0  0
  9  4  1  0  0  0
 37 32  1  0  0  0
 50 44  1  0  0  0
 17 18  1  0  0  0
 30 31  1  0  0  0
M  END
> <minimizedAffinity>
-8.51698

> <CNNscore>
0.2709436715

> <CNNaffinity>
7.6051421165

> <CNN_VS>
2.0605652332

> <CNNaffinity_variance>
0.3293505609

$$$$
[H]c1nc(N([H])c2c([H])c([H])c(OC([H])([H])c3c([H])c([H])c([H])c(F)c3[H])c(C(F)(F)F)c2[H])c2c([H])c(-c3oc(C([H])([H])N([H])C([H])([H])C([H])([H])S(=O)(=O)c4nc([H])c([H])n4C([H])([H])[H])c([H])c3[H])c([H])c([H])c2n1


 50 55  0  0  0  0  0  0  0  0999 V2000
    0.1014  -51.9495  -20.3977 C   0  0  0  0  0  0  0  0  0  0  0  0
   -0.4294  -53.0387  -19.7518 C   0  0  0  0  0  0  0  0  0  0  0  0
   -0.9208  -54.1196  -20.4411 C   0  0  0  0  0  0  0  0  0  0  0  0
   -0.8887  -54.1290  -21.8167 C   0  0  0  0  0  0  0  0  0  0  0  0
   -1.3770  -55.1858  -22.5046 N   0  0  0  0  0  0  0  0  0  0  0  0
   -1.3681  -55.2242  -23.8423 C   0  0  0  0  0  0  0  0  0  0  0  0
   -0.8538  -54.1719  -24.4835 N   0  0  0  0  0  0  0  0  0  0  0  0
   -0.3479  -53.0841  -23.9100 C   0  0  0  0  0  0  0  0  0  0  0  0
   -0.3651  -53.0599  -22.5239 C   0  0  0  0  0  0  0  0  0  0  0  0
    0.1220  -51.9852  -21.7867 C   0  0  0  0  0  0  0  0  0  0  0  0
    1.1517  -49.4363  -18.0667 C   0  0  0  0  0  0  0  0  0  0  0  0
    1.5742  -48.8367  -19.2334 C   0  0  0  0  0  0  0  0  0  0  0  0
    1.2282  -49.7117  -20.2409 C   0  0  0  0  0  0  0  0  0  0  0  0
    0.6144  -50.7995  -19.6543 C   0  0  0  0  0  0  0  0  0  0  0  0
    0.5978  -50.5823  -18.3757 O   0  0  0  0  0  0  0  0  0  0  0  0
    1.3032  -48.8702  -16.6956 C   0  0  0  0  0  0  0  0  0  0  0  0
    0.7491  -49.7832  -15.7137 N   0  0  0  0  0  0  0  0  0  0  0  0
    0.3030  -50.6014  -16.1394 H   0  0  0  0  0  0  0  0  0  0  0  0
    1.6603  -50.0827  -14.6453 C   0  0  0  0  0  0  0  0  0  0  0  0
    0.9449  -50.4667  -13.3852 C   0  0  0  0  0  0  0  0  0  0  0  0
    0.1672  -52.0442  -13.5007 S   0  0  0  0  0  0  0  0  0  0  0  0
    0.2689  -52.5204  -14.9175 O   0  0  0  0  0  0  0  0  0  0  0  0
    0.9877  -53.0194  -12.6760 O   0  0  0  0  0  0  0  0  0  0  0  0
   -2.6553  -50.8119  -14.7099 C   0  0  0  0  0  0  0  0  0  0  0  0
   -2.5628  -51.5198  -13.4511 N   0  0  0  0  0  0  0  0  0  0  0  0
   -3.5974  -51.7531  -12.6430 C   0  0  0  0  0  0  0  0  0  0  0  0
   -3.1285  -52.4468  -11.5552 C   0  0  0  0  0  0  0  0  0  0  0  0
   -1.8101  -52.6205  -11.7281 N   0  0  0  0  0  0  0  0  0  0  0  0
   -1.4684  -52.0459  -12.8998 C   0  0  0  0  0  0  0  0  0  0  0  0
    0.2195  -52.0019  -24.6134 N   0  0  0  0  0  0  0  0  0  0  0  0
   -0.3970  -51.3559  -25.1920 H   0  0  0  0  0  0  0  0  0  0  0  0
    1.6059  -51.6774  -24.6224 C   0  0  0  0  0  0  0  0  0  0  0  0
    2.6202  -52.4636  -25.0882 C   0  0  0  0  0  0  0  0  0  0  0  0
    3.9645  -52.0597  -25.0304 C   0  0  0  0  0  0  0  0  0  0  0  0
    4.3162  -50.8437  -24.4977 C   0  0  0  0  0  0  0  0  0  0  0  0
    3.3032  -50.0425  -24.0254 C   0  0  0  0  0  0  0  0  0  0  0  0
    1.9837  -50.4376  -24.0812 C   0  0  0  0  0  0  0  0  0  0  0  0
    3.6944  -48.7255  -23.4452 C   0  0  0  0  0  0  0  0  0  0  0  0
    4.5293  -48.0445  -24.3137 F   0  0  0  0  0  0  0  0  0  0  0  0
    2.5683  -47.9967  -23.1174 F   0  0  0  0  0  0  0  0  0  0  0  0
    4.3863  -48.9566  -22.2669 F   0  0  0  0  0  0  0  0  0  0  0  0
    5.6517  -50.4239  -24.4324 O   0  0  0  0  0  0  0  0  0  0  0  0
    6.5801  -51.1750  -23.6370 C   0  0  0  0  0  0  0  0  0  0  0  0
    7.3455  -50.2614  -22.7840 C   0  0  0  0  0  0  0  0  0  0  0  0
    7.2680  -50.3572  -21.4157 C   0  0  0  0  0  0  0  0  0  0  0  0
    7.9914  -49.4960  -20.5860 C   0  0  0  0  0  0  0  0  0  0  0  0
    8.8004  -48.5293  -21.1413 C   0  0  0  0  0  0  0  0  0  0  0  0
    8.8830  -48.4276  -22.5151 C   0  0  0  0  0  0  0  0  0  0  0  0
    9.6793  -47.4782  -23.0332 F   0  0  0  0  0  0  0  0  0  0  0  0
    8.1557  -49.2935  -23.3411 C   0  0  0  0  0  0  0  0  0  0  0  0
 24 25  1  0  0  0
 25 26  1  0  0  0
 26 27  2  0  0  0
 27 28  1  0  0  0
 28 29  2  0  0  0
 29 21  1  0  0  0
 21 22  2  0  0  0
 21 23  2  0  0  0
 21 20  1  0  0  0
 20 19  1  0  0  0
 19 17  1  0  0  0
 17 16  1  0  0  0
 16 11  1  0  0  0
 11 12  2  0  0  0
 12 13  1  0  0  0
 13 14  2  0  0  0
 14 15  1  0  0  0
 14  1  1  0  0  0
  1  2  2  0  0  0
  2  3  1  0  0  0
  3  4  2  0  0  0
  4  5  1  0  0  0
  5  6  2  0  0  0
  6  7  1  0  0  0
  7  8  2  0  0  0
  8 30  1  0  0  0
 30 32  1  0  0  0
 32 33  2  0  0  0
 33 34  1  0  0  0
 34 35  2  0  0  0
 35 42  1  0  0  0
 42 43  1  0  0  0
 43 44  1  0  0  0
 44 45  2  0  0  0
 45 46  1  0  0  0
 46 47  2  0  0  0
 47 48  1  0  0  0
 48 49  1  0  0  0
 48 50  2  0  0  0
 35 36  1  0  0  0
 36 37  2  0  0  0
 36 38  1  0  0  0
 38 39  1  0  0  0
 38 40  1  0  0  0
 38 41  1  0  0  0
  8  9  1  0  0  0
  9 10  2  0  0  0
 29 25  1  0  0  0
 15 11  1  0  0  0
 10  1  1  0  0  0
  9  4  1  0  0  0
 37 32  1  0  0  0
 50 44  1  0  0  0
 17 18  1  0  0  0
 30 31  1  0  0  0
M  END
> <minimizedAffinity>
-8.10213

> <CNNscore>
0.2034421712

> <CNNaffinity>
7.5097222328

> <CNN_VS>
1.5277942419

> <CNNaffinity_variance>
0.1520050168

$$$$
[H]c1nc(N([H])c2c([H])c([H])c(OC([H])([H])c3c([H])c([H])c([H])c(F)c3[H])c(C(F)(F)F)c2[H])c2c([H])c(-c3oc(C([H])([H])N([H])C([H])([H])C([H])([H])S(=O)(=O)c4nc([H])c([H])n4C([H])([H])[H])c([H])c3[H])c([H])c([H])c2n1


 50 55  0  0  0  0  0  0  0  0999 V2000
    0.4356  -49.6748  -16.3855 C   0  0  0  0  0  0  0  0  0  0  0  0
   -0.4862  -49.1457  -15.5164 C   0  0  0  0  0  0  0  0  0  0  0  0
   -1.6955  -49.7537  -15.2863 C   0  0  0  0  0  0  0  0  0  0  0  0
   -2.0092  -50.9255  -15.9358 C   0  0  0  0  0  0  0  0  0  0  0  0
   -3.2008  -51.5278  -15.7215 N   0  0  0  0  0  0  0  0  0  0  0  0
   -3.5408  -52.6638  -16.3419 C   0  0  0  0  0  0  0  0  0  0  0  0
   -2.6533  -53.1901  -17.1893 N   0  0  0  0  0  0  0  0  0  0  0  0
   -1.4567  -52.6846  -17.4741 C   0  0  0  0  0  0  0  0  0  0  0  0
   -1.1202  -51.5075  -16.8235 C   0  0  0  0  0  0  0  0  0  0  0  0
    0.0936  -50.8588  -17.0275 C   0  0  0  0  0  0  0  0  0  0  0  0
    3.5599  -48.3491  -17.5406 C   0  0  0  0  0  0  0  0  0  0  0  0
    3.5173  -47.7486  -16.3010 C   0  0  0  0  0  0  0  0  0  0  0  0
    2.3400  -48.1777  -15.7265 C   0  0  0  0  0  0  0  0  0  0  0  0
    1.7174  -49.0147  -16.6298 C   0  0  0  0  0  0  0  0  0  0  0  0
    2.4800  -49.0777  -17.6770 O   0  0  0  0  0  0  0  0  0  0  0  0
    4.6507  -48.1907  -18.5449 C   0  0  0  0  0  0  0  0  0  0  0  0
    4.0899  -48.0707  -19.8775 N   0  0  0  0  0  0  0  0  0  0  0  0
    3.2581  -48.6535  -20.0123 H   0  0  0  0  0  0  0  0  0  0  0  0
    3.9459  -46.7085  -20.3078 C   0  0  0  0  0  0  0  0  0  0  0  0
    4.5323  -46.4822  -21.6687 C   0  0  0  0  0  0  0  0  0  0  0  0
    3.7075  -47.4039  -22.9244 S   0  0  0  0  0  0  0  0  0  0  0  0
    2.2754  -47.5786  -22.5209 O   0  0  0  0  0  0  0  0  0  0  0  0
    3.6834  -46.5480  -24.1778 O   0  0  0  0  0  0  0  0  0  0  0  0
    3.4574  -49.4817  -25.4871 C   0  0  0  0  0  0  0  0  0  0  0  0
    4.3382  -49.7000  -24.3598 N   0  0  0  0  0  0  0  0  0  0  0  0
    5.1421  -50.7557  -24.2283 C   0  0  0  0  0  0  0  0  0  0  0  0
    5.8214  -50.6173  -23.0435 C   0  0  0  0  0  0  0  0  0  0  0  0
    5.4120  -49.4726  -22.4777 N   0  0  0  0  0  0  0  0  0  0  0  0
    4.4970  -48.9124  -23.2955 C   0  0  0  0  0  0  0  0  0  0  0  0
   -0.5262  -53.2815  -18.3491 N   0  0  0  0  0  0  0  0  0  0  0  0
    0.2476  -53.9035  -17.9662 H   0  0  0  0  0  0  0  0  0  0  0  0
   -0.5250  -53.1221  -19.7641 C   0  0  0  0  0  0  0  0  0  0  0  0
   -1.4280  -53.6509  -20.6409 C   0  0  0  0  0  0  0  0  0  0  0  0
   -1.3253  -53.4535  -22.0280 C   0  0  0  0  0  0  0  0  0  0  0  0
   -0.3012  -52.7116  -22.5636 C   0  0  0  0  0  0  0  0  0  0  0  0
    0.6147  -52.1733  -21.6904 C   0  0  0  0  0  0  0  0  0  0  0  0
    0.5153  -52.3664  -20.3291 C   0  0  0  0  0  0  0  0  0  0  0  0
    1.7255  -51.3724  -22.2809 C   0  0  0  0  0  0  0  0  0  0  0  0
    2.4241  -50.7099  -21.2868 F   0  0  0  0  0  0  0  0  0  0  0  0
    2.5407  -52.1817  -23.0471 F   0  0  0  0  0  0  0  0  0  0  0  0
    1.1763  -50.4265  -23.1318 F   0  0  0  0  0  0  0  0  0  0  0  0
   -0.1832  -52.5035  -23.9445 O   0  0  0  0  0  0  0  0  0  0  0  0
    0.1600  -53.6113  -24.7893 C   0  0  0  0  0  0  0  0  0  0  0  0
   -0.1101  -53.2636  -26.1872 C   0  0  0  0  0  0  0  0  0  0  0  0
    0.8973  -53.2993  -27.1207 C   0  0  0  0  0  0  0  0  0  0  0  0
    0.6586  -52.9724  -28.4584 C   0  0  0  0  0  0  0  0  0  0  0  0
   -0.6076  -52.6062  -28.8585 C   0  0  0  0  0  0  0  0  0  0  0  0
   -1.6242  -52.5684  -27.9260 C   0  0  0  0  0  0  0  0  0  0  0  0
   -2.8505  -52.2097  -28.3401 F   0  0  0  0  0  0  0  0  0  0  0  0
   -1.3788  -52.8970  -26.5870 C   0  0  0  0  0  0  0  0  0  0  0  0
 24 25  1  0  0  0
 25 26  1  0  0  0
 26 27  2  0  0  0
 27 28  1  0  0  0
 28 29  2  0  0  0
 29 21  1  0  0  0
 21 22  2  0  0  0
 21 23  2  0  0  0
 21 20  1  0  0  0
 20 19  1  0  0  0
 19 17  1  0  0  0
 17 16  1  0  0  0
 16 11  1  0  0  0
 11 12  2  0  0  0
 12 13  1  0  0  0
 13 14  2  0  0  0
 14 15  1  0  0  0
 14  1  1  0  0  0
  1  2  2  0  0  0
  2  3  1  0  0  0
  3  4  2  0  0  0
  4  5  1  0  0  0
  5  6  2  0  0  0
  6  7  1  0  0  0
  7  8  2  0  0  0
  8 30  1  0  0  0
 30 32  1  0  0  0
 32 33  2  0  0  0
 33 34  1  0  0  0
 34 35  2  0  0  0
 35 42  1  0  0  0
 42 43  1  0  0  0
 43 44  1  0  0  0
 44 45  2  0  0  0
 45 46  1  0  0  0
 46 47  2  0  0  0
 47 48  1  0  0  0
 48 49  1  0  0  0
 48 50  2  0  0  0
 35 36  1  0  0  0
 36 37  2  0  0  0
 36 38  1  0  0  0
 38 39  1  0  0  0
 38 40  1  0  0  0
 38 41  1  0  0  0
  8  9  1  0  0  0
  9 10  2  0  0  0
 29 25  1  0  0  0
 15 11  1  0  0  0
 10  1  1  0  0  0
  9  4  1  0  0  0
 37 32  1  0  0  0
 50 44  1  0  0  0
 17 18  1  0  0  0
 30 31  1  0  0  0
M  END
> <minimizedAffinity>
-8.57449

> <CNNscore>
0.1521420926

> <CNNaffinity>
7.6807126999

> <CNN_VS>
1.1685596704

> <CNNaffinity_variance>
0.3226604164

$$$$
[H]c1nc(N([H])c2c([H])c([H])c(OC([H])([H])c3c([H])c([H])c([H])c(F)c3[H])c(C(F)(F)F)c2[H])c2c([H])c(-c3oc(C([H])([H])N([H])C([H])([H])C([H])([H])S(=O)(=O)c4nc([H])c([H])n4C([H])([H])[H])c([H])c3[H])c([H])c([H])c2n1


 50 55  0  0  0  0  0  0  0  0999 V2000
    3.6754  -46.4735  -22.2023 C   0  0  0  0  0  0  0  0  0  0  0  0
    4.7309  -46.1367  -21.3913 C   0  0  0  0  0  0  0  0  0  0  0  0
    4.8761  -46.6699  -20.1345 C   0  0  0  0  0  0  0  0  0  0  0  0
    3.9483  -47.5674  -19.6581 C   0  0  0  0  0  0  0  0  0  0  0  0
    4.0787  -48.0922  -18.4187 N   0  0  0  0  0  0  0  0  0  0  0  0
    3.1909  -48.9616  -17.9218 C   0  0  0  0  0  0  0  0  0  0  0  0
    2.1597  -49.2989  -18.7001 N   0  0  0  0  0  0  0  0  0  0  0  0
    1.9341  -48.8462  -19.9300 C   0  0  0  0  0  0  0  0  0  0  0  0
    2.8627  -47.9461  -20.4297 C   0  0  0  0  0  0  0  0  0  0  0  0
    2.7535  -47.3822  -21.6969 C   0  0  0  0  0  0  0  0  0  0  0  0
    2.8923  -45.5136  -25.5666 C   0  0  0  0  0  0  0  0  0  0  0  0
    3.8165  -44.5342  -25.2737 C   0  0  0  0  0  0  0  0  0  0  0  0
    4.2155  -44.7830  -23.9778 C   0  0  0  0  0  0  0  0  0  0  0  0
    3.5255  -45.8934  -23.5362 C   0  0  0  0  0  0  0  0  0  0  0  0
    2.7631  -46.2794  -24.5119 O   0  0  0  0  0  0  0  0  0  0  0  0
    2.1706  -45.6664  -26.8624 C   0  0  0  0  0  0  0  0  0  0  0  0
    2.8419  -46.6455  -27.6962 N   0  0  0  0  0  0  0  0  0  0  0  0
    2.5304  -47.6041  -27.5125 H   0  0  0  0  0  0  0  0  0  0  0  0
    2.8718  -46.2784  -29.0839 C   0  0  0  0  0  0  0  0  0  0  0  0
    4.1464  -46.6994  -29.7511 C   0  0  0  0  0  0  0  0  0  0  0  0
    3.9669  -46.8957  -31.4935 S   0  0  0  0  0  0  0  0  0  0  0  0
    4.8997  -47.9765  -31.9475 O   0  0  0  0  0  0  0  0  0  0  0  0
    2.5666  -47.4216  -31.7519 O   0  0  0  0  0  0  0  0  0  0  0  0
    3.5058  -46.1011  -34.6721 C   0  0  0  0  0  0  0  0  0  0  0  0
    3.9667  -45.1649  -33.6694 N   0  0  0  0  0  0  0  0  0  0  0  0
    4.2553  -43.8860  -33.9124 C   0  0  0  0  0  0  0  0  0  0  0  0
    4.6540  -43.3165  -32.7286 C   0  0  0  0  0  0  0  0  0  0  0  0
    4.5984  -44.2690  -31.7865 N   0  0  0  0  0  0  0  0  0  0  0  0
    4.1735  -45.4065  -32.3744 C   0  0  0  0  0  0  0  0  0  0  0  0
    0.8531  -49.2466  -20.7417 N   0  0  0  0  0  0  0  0  0  0  0  0
   -0.0868  -48.7537  -20.6648 H   0  0  0  0  0  0  0  0  0  0  0  0
    0.9039  -50.2986  -21.7000 C   0  0  0  0  0  0  0  0  0  0  0  0
    1.6112  -50.2989  -22.8678 C   0  0  0  0  0  0  0  0  0  0  0  0
    1.5763  -51.3823  -23.7613 C   0  0  0  0  0  0  0  0  0  0  0  0
    0.8214  -52.4977  -23.4926 C   0  0  0  0  0  0  0  0  0  0  0  0
    0.1047  -52.5095  -22.3189 C   0  0  0  0  0  0  0  0  0  0  0  0
    0.1378  -51.4469  -21.4414 C   0  0  0  0  0  0  0  0  0  0  0  0
   -0.7151  -53.7229  -22.0369 C   0  0  0  0  0  0  0  0  0  0  0  0
   -1.3661  -54.1426  -23.1837 F   0  0  0  0  0  0  0  0  0  0  0  0
    0.0744  -54.7134  -21.4872 F   0  0  0  0  0  0  0  0  0  0  0  0
   -1.6710  -53.3925  -21.0895 F   0  0  0  0  0  0  0  0  0  0  0  0
    0.7752  -53.5882  -24.3717 O   0  0  0  0  0  0  0  0  0  0  0  0
    1.2921  -53.4337  -25.7011 C   0  0  0  0  0  0  0  0  0  0  0  0
    0.1981  -53.0956  -26.6160 C   0  0  0  0  0  0  0  0  0  0  0  0
   -0.9972  -52.6256  -26.1283 C   0  0  0  0  0  0  0  0  0  0  0  0
   -2.0512  -52.2967  -26.9851 C   0  0  0  0  0  0  0  0  0  0  0  0
   -1.8985  -52.4429  -28.3462 C   0  0  0  0  0  0  0  0  0  0  0  0
   -0.7004  -52.9144  -28.8429 C   0  0  0  0  0  0  0  0  0  0  0  0
   -0.5746  -53.0473  -30.1735 F   0  0  0  0  0  0  0  0  0  0  0  0
    0.3521  -53.2423  -27.9793 C   0  0  0  0  0  0  0  0  0  0  0  0
 24 25  1  0  0  0
 25 26  1  0  0  0
 26 27  2  0  0  0
 27 28  1  0  0  0
 28 29  2  0  0  0
 29 21  1  0  0  0
 21 22  2  0  0  0
 21 23  2  0  0  0
 21 20  1  0  0  0
 20 19  1  0  0  0
 19 17  1  0  0  0
 17 16  1  0  0  0
 16 11  1  0  0  0
 11 12  2  0  0  0
 12 13  1  0  0  0
 13 14  2  0  0  0
 14 15  1  0  0  0
 14  1  1  0  0  0
  1  2  2  0  0  0
  2  3  1  0  0  0
  3  4  2  0  0  0
  4  5  1  0  0  0
  5  6  2  0  0  0
  6  7  1  0  0  0
  7  8  2  0  0  0
  8 30  1  0  0  0
 30 32  1  0  0  0
 32 33  2  0  0  0
 33 34  1  0  0  0
 34 35  2  0  0  0
 35 42  1  0  0  0
 42 43  1  0  0  0
 43 44  1  0  0  0
 44 45  2  0  0  0
 45 46  1  0  0  0
 46 47  2  0  0  0
 47 48  1  0  0  0
 48 49  1  0  0  0
 48 50  2  0  0  0
 35 36  1  0  0  0
 36 37  2  0  0  0
 36 38  1  0  0  0
 38 39  1  0  0  0
 38 40  1  0  0  0
 38 41  1  0  0  0
  8  9  1  0  0  0
  9 10  2  0  0  0
 29 25  1  0  0  0
 15 11  1  0  0  0
 10  1  1  0  0  0
  9  4  1  0  0  0
 37 32  1  0  0  0
 50 44  1  0  0  0
 17 18  1  0  0  0
 30 31  1  0  0  0
M  END
> <minimizedAffinity>
-8.62917

> <CNNscore>
0.1439793259

> <CNNaffinity>
7.2141065598

> <CNN_VS>
1.0386822224

> <CNNaffinity_variance>
0.3568345904

$$$$
[H]c1nc(N([H])c2c([H])c([H])c(OC([H])([H])c3c([H])c([H])c([H])c(F)c3[H])c(C(F)(F)F)c2[H])c2c([H])c(-c3oc(C([H])([H])N([H])C([H])([H])C([H])([H])S(=O)(=O)c4nc([H])c([H])n4C([H])([H])[H])c([H])c3[H])c([H])c([H])c2n1


 50 55  0  0  0  0  0  0  0  0999 V2000
   -2.2056  -51.2700  -15.7709 C   0  0  0  0  0  0  0  0  0  0  0  0
   -1.9254  -50.0929  -15.1220 C   0  0  0  0  0  0  0  0  0  0  0  0
   -0.8421  -49.3204  -15.4608 C   0  0  0  0  0  0  0  0  0  0  0  0
   -0.0036  -49.7212  -16.4756 C   0  0  0  0  0  0  0  0  0  0  0  0
    1.0700  -48.9709  -16.8115 N   0  0  0  0  0  0  0  0  0  0  0  0
    1.9097  -49.3349  -17.7880 C   0  0  0  0  0  0  0  0  0  0  0  0
    1.6486  -50.4772  -18.4283 N   0  0  0  0  0  0  0  0  0  0  0  0
    0.6251  -51.2896  -18.1817 C   0  0  0  0  0  0  0  0  0  0  0  0
   -0.2348  -50.8983  -17.1670 C   0  0  0  0  0  0  0  0  0  0  0  0
   -1.3432  -51.6509  -16.7917 C   0  0  0  0  0  0  0  0  0  0  0  0
   -4.9726  -53.0039  -14.2910 C   0  0  0  0  0  0  0  0  0  0  0  0
   -5.0218  -53.5580  -15.5518 C   0  0  0  0  0  0  0  0  0  0  0  0
   -3.9890  -52.9703  -16.2507 C   0  0  0  0  0  0  0  0  0  0  0  0
   -3.3572  -52.0897  -15.3965 C   0  0  0  0  0  0  0  0  0  0  0  0
   -3.9785  -52.1517  -14.2597 O   0  0  0  0  0  0  0  0  0  0  0  0
   -5.8953  -53.3257  -13.1648 C   0  0  0  0  0  0  0  0  0  0  0  0
   -7.1812  -53.7570  -13.6796 N   0  0  0  0  0  0  0  0  0  0  0  0
   -7.1534  -53.9834  -14.6784 H   0  0  0  0  0  0  0  0  0  0  0  0
   -7.8146  -54.7477  -12.8558 C   0  0  0  0  0  0  0  0  0  0  0  0
   -9.3097  -54.6806  -12.9421 C   0  0  0  0  0  0  0  0  0  0  0  0
   -9.9069  -54.9429  -14.5795 S   0  0  0  0  0  0  0  0  0  0  0  0
   -8.7586  -55.3735  -15.4397 O   0  0  0  0  0  0  0  0  0  0  0  0
  -10.8575  -56.1256  -14.5350 O   0  0  0  0  0  0  0  0  0  0  0  0
  -10.9688  -54.2035  -17.6247 C   0  0  0  0  0  0  0  0  0  0  0  0
  -11.1543  -53.3400  -16.4782 N   0  0  0  0  0  0  0  0  0  0  0  0
  -11.7697  -52.1578  -16.5203 C   0  0  0  0  0  0  0  0  0  0  0  0
  -11.7561  -51.6356  -15.2508 C   0  0  0  0  0  0  0  0  0  0  0  0
  -11.1282  -52.5183  -14.4605 N   0  0  0  0  0  0  0  0  0  0  0  0
  -10.7599  -53.5672  -15.2248 C   0  0  0  0  0  0  0  0  0  0  0  0
    0.3560  -52.4739  -18.8979 N   0  0  0  0  0  0  0  0  0  0  0  0
    0.0151  -53.3433  -18.3879 H   0  0  0  0  0  0  0  0  0  0  0  0
    0.5049  -52.6222  -20.3062 C   0  0  0  0  0  0  0  0  0  0  0  0
    1.3677  -51.9318  -21.1079 C   0  0  0  0  0  0  0  0  0  0  0  0
    1.4217  -52.1361  -22.4968 C   0  0  0  0  0  0  0  0  0  0  0  0
    0.6000  -53.0495  -23.1106 C   0  0  0  0  0  0  0  0  0  0  0  0
   -0.2734  -53.7515  -22.3133 C   0  0  0  0  0  0  0  0  0  0  0  0
   -0.3277  -53.5518  -20.9504 C   0  0  0  0  0  0  0  0  0  0  0  0
   -1.1645  -54.7385  -22.9885 C   0  0  0  0  0  0  0  0  0  0  0  0
   -0.4632  -55.8916  -23.2943 F   0  0  0  0  0  0  0  0  0  0  0  0
   -2.2751  -54.9893  -22.2071 F   0  0  0  0  0  0  0  0  0  0  0  0
   -1.6184  -54.1778  -24.1718 F   0  0  0  0  0  0  0  0  0  0  0  0
    0.6405  -53.2672  -24.4944 O   0  0  0  0  0  0  0  0  0  0  0  0
    0.8404  -52.1484  -25.3702 C   0  0  0  0  0  0  0  0  0  0  0  0
    0.1463  -52.3887  -26.6384 C   0  0  0  0  0  0  0  0  0  0  0  0
    0.8555  -52.7114  -27.7700 C   0  0  0  0  0  0  0  0  0  0  0  0
    0.2110  -52.9455  -28.9879 C   0  0  0  0  0  0  0  0  0  0  0  0
   -1.1612  -52.8533  -29.0654 C   0  0  0  0  0  0  0  0  0  0  0  0
   -1.8797  -52.5297  -27.9325 C   0  0  0  0  0  0  0  0  0  0  0  0
   -3.2166  -52.4470  -28.0325 F   0  0  0  0  0  0  0  0  0  0  0  0
   -1.2283  -52.2963  -26.7151 C   0  0  0  0  0  0  0  0  0  0  0  0
 24 25  1  0  0  0
 25 26  1  0  0  0
 26 27  2  0  0  0
 27 28  1  0  0  0
 28 29  2  0  0  0
 29 21  1  0  0  0
 21 22  2  0  0  0
 21 23  2  0  0  0
 21 20  1  0  0  0
 20 19  1  0  0  0
 19 17  1  0  0  0
 17 16  1  0  0  0
 16 11  1  0  0  0
 11 12  2  0  0  0
 12 13  1  0  0  0
 13 14  2  0  0  0
 14 15  1  0  0  0
 14  1  1  0  0  0
  1  2  2  0  0  0
  2  3  1  0  0  0
  3  4  2  0  0  0
  4  5  1  0  0  0
  5  6  2  0  0  0
  6  7  1  0  0  0
  7  8  2  0  0  0
  8 30  1  0  0  0
 30 32  1  0  0  0
 32 33  2  0  0  0
 33 34  1  0  0  0
 34 35  2  0  0  0
 35 42  1  0  0  0
 42 43  1  0  0  0
 43 44  1  0  0  0
 44 45  2  0  0  0
 45 46  1  0  0  0
 46 47  2  0  0  0
 47 48  1  0  0  0
 48 49  1  0  0  0
 48 50  2  0  0  0
 35 36  1  0  0  0
 36 37  2  0  0  0
 36 38  1  0  0  0
 38 39  1  0  0  0
 38 40  1  0  0  0
 38 41  1  0  0  0
  8  9  1  0  0  0
  9 10  2  0  0  0
 29 25  1  0  0  0
 15 11  1  0  0  0
 10  1  1  0  0  0
  9  4  1  0  0  0
 37 32  1  0  0  0
 50 44  1  0  0  0
 17 18  1  0  0  0
 30 31  1  0  0  0
M  END
> <minimizedAffinity>
-9.66095

> <CNNscore>
0.1258108318

> <CNNaffinity>
7.0658583641

> <CNN_VS>
0.8889614940

> <CNNaffinity_variance>
0.2795691192

$$$$
[H]c1nc(N([H])c2c([H])c([H])c(OC([H])([H])c3c([H])c([H])c([H])c(F)c3[H])c(C(F)(F)F)c2[H])c2c([H])c(-c3oc(C([H])([H])N([H])C([H])([H])C([H])([H])S(=O)(=O)c4nc([H])c([H])n4C([H])([H])[H])c([H])c3[H])c([H])c([H])c2n1


 50 55  0  0  0  0  0  0  0  0999 V2000
    0.9422  -49.5382  -16.8248 C   0  0  0  0  0  0  0  0  0  0  0  0
    0.1026  -48.9415  -15.9170 C   0  0  0  0  0  0  0  0  0  0  0  0
   -1.0920  -49.5120  -15.5529 C   0  0  0  0  0  0  0  0  0  0  0  0
   -1.4745  -50.7140  -16.1027 C   0  0  0  0  0  0  0  0  0  0  0  0
   -2.6526  -51.2800  -15.7561 N   0  0  0  0  0  0  0  0  0  0  0  0
   -3.0584  -52.4441  -16.2770 C   0  0  0  0  0  0  0  0  0  0  0  0
   -2.2512  -53.0361  -17.1606 N   0  0  0  0  0  0  0  0  0  0  0  0
   -1.0752  -52.5709  -17.5719 C   0  0  0  0  0  0  0  0  0  0  0  0
   -0.6699  -51.3640  -17.0232 C   0  0  0  0  0  0  0  0  0  0  0  0
    0.5319  -50.7514  -17.3641 C   0  0  0  0  0  0  0  0  0  0  0  0
    3.9232  -48.2513  -18.3447 C   0  0  0  0  0  0  0  0  0  0  0  0
    4.1136  -47.7779  -17.0645 C   0  0  0  0  0  0  0  0  0  0  0  0
    3.0165  -48.2070  -16.3484 C   0  0  0  0  0  0  0  0  0  0  0  0
    2.2085  -48.9180  -17.2121 C   0  0  0  0  0  0  0  0  0  0  0  0
    2.7917  -48.9106  -18.3705 O   0  0  0  0  0  0  0  0  0  0  0  0
    4.8504  -48.0437  -19.4938 C   0  0  0  0  0  0  0  0  0  0  0  0
    4.6012  -49.0354  -20.5229 N   0  0  0  0  0  0  0  0  0  0  0  0
    4.1490  -48.6411  -21.3533 H   0  0  0  0  0  0  0  0  0  0  0  0
    5.7419  -49.8637  -20.7954 C   0  0  0  0  0  0  0  0  0  0  0  0
    7.0153  -49.2525  -20.2934 C   0  0  0  0  0  0  0  0  0  0  0  0
    8.0379  -48.6498  -21.5964 S   0  0  0  0  0  0  0  0  0  0  0  0
    7.9879  -49.6284  -22.7296 O   0  0  0  0  0  0  0  0  0  0  0  0
    7.4039  -47.3746  -22.1219 O   0  0  0  0  0  0  0  0  0  0  0  0
    9.7738  -49.5293  -18.9205 C   0  0  0  0  0  0  0  0  0  0  0  0
   10.2960  -48.6863  -19.9746 N   0  0  0  0  0  0  0  0  0  0  0  0
   11.5265  -48.1730  -19.9855 C   0  0  0  0  0  0  0  0  0  0  0  0
   11.6605  -47.4361  -21.1359 C   0  0  0  0  0  0  0  0  0  0  0  0
   10.5000  -47.5187  -21.8027 N   0  0  0  0  0  0  0  0  0  0  0  0
    9.6632  -48.2916  -21.0801 C   0  0  0  0  0  0  0  0  0  0  0  0
   -0.2284  -53.2358  -18.4822 N   0  0  0  0  0  0  0  0  0  0  0  0
    0.5479  -53.8710  -18.1269 H   0  0  0  0  0  0  0  0  0  0  0  0
   -0.3190  -53.1318  -19.8994 C   0  0  0  0  0  0  0  0  0  0  0  0
   -1.3444  -53.5794  -20.6819 C   0  0  0  0  0  0  0  0  0  0  0  0
   -1.3278  -53.4491  -22.0806 C   0  0  0  0  0  0  0  0  0  0  0  0
   -0.2679  -52.8586  -22.7241 C   0  0  0  0  0  0  0  0  0  0  0  0
    0.7710  -52.4033  -21.9466 C   0  0  0  0  0  0  0  0  0  0  0  0
    0.7562  -52.5308  -20.5741 C   0  0  0  0  0  0  0  0  0  0  0  0
    1.9194  -51.7669  -22.6539 C   0  0  0  0  0  0  0  0  0  0  0  0
    2.4542  -52.6381  -23.5867 F   0  0  0  0  0  0  0  0  0  0  0  0
    1.5267  -50.5688  -23.2170 F   0  0  0  0  0  0  0  0  0  0  0  0
    2.8994  -51.4746  -21.7187 F   0  0  0  0  0  0  0  0  0  0  0  0
   -0.2345  -52.7193  -24.1182 O   0  0  0  0  0  0  0  0  0  0  0  0
   -0.6952  -53.8029  -24.9380 C   0  0  0  0  0  0  0  0  0  0  0  0
   -0.4118  -53.5074  -26.3453 C   0  0  0  0  0  0  0  0  0  0  0  0
   -1.2458  -52.6876  -27.0662 C   0  0  0  0  0  0  0  0  0  0  0  0
   -0.9911  -52.3933  -28.4086 C   0  0  0  0  0  0  0  0  0  0  0  0
    0.1147  -52.9307  -29.0296 C   0  0  0  0  0  0  0  0  0  0  0  0
    0.9567  -53.7550  -28.3113 C   0  0  0  0  0  0  0  0  0  0  0  0
    2.0292  -54.2661  -28.9379 F   0  0  0  0  0  0  0  0  0  0  0  0
    0.6962  -54.0462  -26.9665 C   0  0  0  0  0  0  0  0  0  0  0  0
 24 25  1  0  0  0
 25 26  1  0  0  0
 26 27  2  0  0  0
 27 28  1  0  0  0
 28 29  2  0  0  0
 29 21  1  0  0  0
 21 22  2  0  0  0
 21 23  2  0  0  0
 21 20  1  0  0  0
 20 19  1  0  0  0
 19 17  1  0  0  0
 17 16  1  0  0  0
 16 11  1  0  0  0
 11 12  2  0  0  0
 12 13  1  0  0  0
 13 14  2  0  0  0
 14 15  1  0  0  0
 14  1  1  0  0  0
  1  2  2  0  0  0
  2  3  1  0  0  0
  3  4  2  0  0  0
  4  5  1  0  0  0
  5  6  2  0  0  0
  6  7  1  0  0  0
  7  8  2  0  0  0
  8 30  1  0  0  0
 30 32  1  0  0  0
 32 33  2  0  0  0
 33 34  1  0  0  0
 34 35  2  0  0  0
 35 42  1  0  0  0
 42 43  1  0  0  0
 43 44  1  0  0  0
 44 45  2  0  0  0
 45 46  1  0  0  0
 46 47  2  0  0  0
 47 48  1  0  0  0
 48 49  1  0  0  0
 48 50  2  0  0  0
 35 36  1  0  0  0
 36 37  2  0  0  0
 36 38  1  0  0  0
 38 39  1  0  0  0
 38 40  1  0  0  0
 38 41  1  0  0  0
  8  9  1  0  0  0
  9 10  2  0  0  0
 29 25  1  0  0  0
 15 11  1  0  0  0
 10  1  1  0  0  0
  9  4  1  0  0  0
 37 32  1  0  0  0
 50 44  1  0  0  0
 17 18  1  0  0  0
 30 31  1  0  0  0
M  END
> <minimizedAffinity>
-8.60100

> <CNNscore>
0.1230305880

> <CNNaffinity>
7.1070442200

> <CNN_VS>
0.8743838072

> <CNNaffinity_variance>
0.3356066346

$$$$
[H]c1nc(N([H])c2c([H])c([H])c(OC([H])([H])c3c([H])c([H])c([H])c(F)c3[H])c(C(F)(F)F)c2[H])c2c([H])c(-c3oc(C([H])([H])N([H])C([H])([H])C([H])([H])S(=O)(=O)c4nc([H])c([H])n4C([H])([H])[H])c([H])c3[H])c([H])c([H])c2n1


 50 55  0  0  0  0  0  0  0  0999 V2000
   -0.6182  -53.2554  -23.5213 C   0  0  0  0  0  0  0  0  0  0  0  0
   -1.2449  -54.3336  -22.9470 C   0  0  0  0  0  0  0  0  0  0  0  0
   -1.3924  -54.4442  -21.5864 C   0  0  0  0  0  0  0  0  0  0  0  0
   -0.9049  -53.4573  -20.7607 C   0  0  0  0  0  0  0  0  0  0  0  0
   -1.0387  -53.5609  -19.4191 N   0  0  0  0  0  0  0  0  0  0  0  0
   -0.5699  -52.6233  -18.5871 C   0  0  0  0  0  0  0  0  0  0  0  0
    0.0411  -51.5686  -19.1321 N   0  0  0  0  0  0  0  0  0  0  0  0
    0.2271  -51.3651  -20.4330 C   0  0  0  0  0  0  0  0  0  0  0  0
   -0.2639  -52.3458  -21.2811 C   0  0  0  0  0  0  0  0  0  0  0  0
   -0.1358  -52.2733  -22.6646 C   0  0  0  0  0  0  0  0  0  0  0  0
    0.2317  -53.4232  -27.0001 C   0  0  0  0  0  0  0  0  0  0  0  0
   -0.7883  -52.4994  -27.0729 C   0  0  0  0  0  0  0  0  0  0  0  0
   -1.2233  -52.3313  -25.7756 C   0  0  0  0  0  0  0  0  0  0  0  0
   -0.4588  -53.1515  -24.9711 C   0  0  0  0  0  0  0  0  0  0  0  0
    0.3790  -53.7687  -25.7453 O   0  0  0  0  0  0  0  0  0  0  0  0
    1.0241  -53.9342  -28.1553 C   0  0  0  0  0  0  0  0  0  0  0  0
    2.0153  -52.9530  -28.5548 N   0  0  0  0  0  0  0  0  0  0  0  0
    1.5987  -52.1132  -28.9682 H   0  0  0  0  0  0  0  0  0  0  0  0
    2.9982  -52.6993  -27.5395 C   0  0  0  0  0  0  0  0  0  0  0  0
    2.8530  -51.3315  -26.9435 C   0  0  0  0  0  0  0  0  0  0  0  0
    3.1990  -51.3048  -25.2154 S   0  0  0  0  0  0  0  0  0  0  0  0
    2.0679  -50.6151  -24.5160 O   0  0  0  0  0  0  0  0  0  0  0  0
    3.1767  -52.7405  -24.7229 O   0  0  0  0  0  0  0  0  0  0  0  0
    4.3893  -48.2280  -25.4676 C   0  0  0  0  0  0  0  0  0  0  0  0
    5.1601  -49.3487  -24.9735 N   0  0  0  0  0  0  0  0  0  0  0  0
    6.4275  -49.2677  -24.5674 C   0  0  0  0  0  0  0  0  0  0  0  0
    6.8184  -50.5218  -24.1688 C   0  0  0  0  0  0  0  0  0  0  0  0
    5.7723  -51.3424  -24.3431 N   0  0  0  0  0  0  0  0  0  0  0  0
    4.7530  -50.6115  -24.8398 C   0  0  0  0  0  0  0  0  0  0  0  0
    0.8472  -50.2238  -20.9814 N   0  0  0  0  0  0  0  0  0  0  0  0
    0.2584  -49.4407  -21.3965 H   0  0  0  0  0  0  0  0  0  0  0  0
    2.2542  -50.0112  -21.0342 C   0  0  0  0  0  0  0  0  0  0  0  0
    3.2229  -50.9708  -20.9656 C   0  0  0  0  0  0  0  0  0  0  0  0
    4.5911  -50.6543  -21.0032 C   0  0  0  0  0  0  0  0  0  0  0  0
    5.0138  -49.3522  -21.1126 C   0  0  0  0  0  0  0  0  0  0  0  0
    4.0473  -48.3764  -21.1830 C   0  0  0  0  0  0  0  0  0  0  0  0
    2.7044  -48.6855  -21.1458 C   0  0  0  0  0  0  0  0  0  0  0  0
    4.5152  -46.9651  -21.2978 C   0  0  0  0  0  0  0  0  0  0  0  0
    3.4356  -46.1001  -21.3323 F   0  0  0  0  0  0  0  0  0  0  0  0
    5.3935  -46.6702  -20.2739 F   0  0  0  0  0  0  0  0  0  0  0  0
    5.2169  -46.8338  -22.4856 F   0  0  0  0  0  0  0  0  0  0  0  0
    6.3742  -49.0178  -21.1524 O   0  0  0  0  0  0  0  0  0  0  0  0
    7.3288  -49.9108  -20.5611 C   0  0  0  0  0  0  0  0  0  0  0  0
    8.6121  -49.2208  -20.4019 C   0  0  0  0  0  0  0  0  0  0  0  0
    9.3416  -49.3652  -19.2467 C   0  0  0  0  0  0  0  0  0  0  0  0
   10.5679  -48.7163  -19.0773 C   0  0  0  0  0  0  0  0  0  0  0  0
   11.0630  -47.9147  -20.0820 C   0  0  0  0  0  0  0  0  0  0  0  0
   10.3354  -47.7655  -21.2451 C   0  0  0  0  0  0  0  0  0  0  0  0
   10.8393  -46.9798  -22.2110 F   0  0  0  0  0  0  0  0  0  0  0  0
    9.1073  -48.4181  -21.4089 C   0  0  0  0  0  0  0  0  0  0  0  0
 24 25  1  0  0  0
 25 26  1  0  0  0
 26 27  2  0  0  0
 27 28  1  0  0  0
 28 29  2  0  0  0
 29 21  1  0  0  0
 21 22  2  0  0  0
 21 23  2  0  0  0
 21 20  1  0  0  0
 20 19  1  0  0  0
 19 17  1  0  0  0
 17 16  1  0  0  0
 16 11  1  0  0  0
 11 12  2  0  0  0
 12 13  1  0  0  0
 13 14  2  0  0  0
 14 15  1  0  0  0
 14  1  1  0  0  0
  1  2  2  0  0  0
  2  3  1  0  0  0
  3  4  2  0  0  0
  4  5  1  0  0  0
  5  6  2  0  0  0
  6  7  1  0  0  0
  7  8  2  0  0  0
  8 30  1  0  0  0
 30 32  1  0  0  0
 32 33  2  0  0  0
 33 34  1  0  0  0
 34 35  2  0  0  0
 35 42  1  0  0  0
 42 43  1  0  0  0
 43 44  1  0  0  0
 44 45  2  0  0  0
 45 46  1  0  0  0
 46 47  2  0  0  0
 47 48  1  0  0  0
 48 49  1  0  0  0
 48 50  2  0  0  0
 35 36  1  0  0  0
 36 37  2  0  0  0
 36 38  1  0  0  0
 38 39  1  0  0  0
 38 40  1  0  0  0
 38 41  1  0  0  0
  8  9  1  0  0  0
  9 10  2  0  0  0
 29 25  1  0  0  0
 15 11  1  0  0  0
 10  1  1  0  0  0
  9  4  1  0  0  0
 37 32  1  0  0  0
 50 44  1  0  0  0
 17 18  1  0  0  0
 30 31  1  0  0  0
M  END
> <minimizedAffinity>
-8.24867

> <CNNscore>
0.1161548793

> <CNNaffinity>
7.1347360611

> <CNN_VS>
0.8287343979

> <CNNaffinity_variance>
0.9382305145

$$$$
[H]c1nc(N([H])c2c([H])c([H])c(OC([H])([H])c3c([H])c([H])c([H])c(F)c3[H])c(C(F)(F)F)c2[H])c2c([H])c(-c3oc(C([H])([H])N([H])C([H])([H])C([H])([H])S(=O)(=O)c4nc([H])c([H])n4C([H])([H])[H])c([H])c3[H])c([H])c([H])c2n1


 50 55  0  0  0  0  0  0  0  0999 V2000
    0.2968  -49.4913  -16.2766 C   0  0  0  0  0  0  0  0  0  0  0  0
   -0.6384  -48.9633  -15.4212 C   0  0  0  0  0  0  0  0  0  0  0  0
   -1.8335  -49.5938  -15.1778 C   0  0  0  0  0  0  0  0  0  0  0  0
   -2.1188  -50.7878  -15.7995 C   0  0  0  0  0  0  0  0  0  0  0  0
   -3.2963  -51.4125  -15.5720 N   0  0  0  0  0  0  0  0  0  0  0  0
   -3.6088  -52.5706  -16.1654 C   0  0  0  0  0  0  0  0  0  0  0  0
   -2.7079  -53.0961  -16.9993 N   0  0  0  0  0  0  0  0  0  0  0  0
   -1.5231  -52.5696  -17.2949 C   0  0  0  0  0  0  0  0  0  0  0  0
   -1.2151  -51.3698  -16.6723 C   0  0  0  0  0  0  0  0  0  0  0  0
   -0.0165  -50.6979  -16.8905 C   0  0  0  0  0  0  0  0  0  0  0  0
    3.3754  -48.0965  -17.4724 C   0  0  0  0  0  0  0  0  0  0  0  0
    3.3512  -47.5211  -16.2204 C   0  0  0  0  0  0  0  0  0  0  0  0
    2.1931  -47.9790  -15.6292 C   0  0  0  0  0  0  0  0  0  0  0  0
    1.5632  -48.8074  -16.5354 C   0  0  0  0  0  0  0  0  0  0  0  0
    2.3035  -48.8384  -17.5998 O   0  0  0  0  0  0  0  0  0  0  0  0
    4.4415  -47.9021  -18.4966 C   0  0  0  0  0  0  0  0  0  0  0  0
    3.9320  -48.2251  -19.8160 N   0  0  0  0  0  0  0  0  0  0  0  0
    3.1505  -47.6256  -20.0977 H   0  0  0  0  0  0  0  0  0  0  0  0
    4.9672  -48.3661  -20.8009 C   0  0  0  0  0  0  0  0  0  0  0  0
    5.6373  -47.0602  -21.1054 C   0  0  0  0  0  0  0  0  0  0  0  0
    7.3178  -47.2592  -21.5985 S   0  0  0  0  0  0  0  0  0  0  0  0
    7.9435  -45.9025  -21.7084 O   0  0  0  0  0  0  0  0  0  0  0  0
    8.0459  -47.9607  -20.4662 O   0  0  0  0  0  0  0  0  0  0  0  0
    6.1668  -46.8715  -24.6761 C   0  0  0  0  0  0  0  0  0  0  0  0
    6.9943  -47.9845  -24.2630 N   0  0  0  0  0  0  0  0  0  0  0  0
    7.3829  -48.9718  -25.0705 C   0  0  0  0  0  0  0  0  0  0  0  0
    8.1520  -49.8362  -24.3318 C   0  0  0  0  0  0  0  0  0  0  0  0
    8.2136  -49.3514  -23.0832 N   0  0  0  0  0  0  0  0  0  0  0  0
    7.4971  -48.2089  -23.0484 C   0  0  0  0  0  0  0  0  0  0  0  0
   -0.5775  -53.1652  -18.1546 N   0  0  0  0  0  0  0  0  0  0  0  0
    0.2367  -53.7208  -17.7539 H   0  0  0  0  0  0  0  0  0  0  0  0
   -0.6120  -53.0890  -19.5761 C   0  0  0  0  0  0  0  0  0  0  0  0
   -1.5449  -53.6551  -20.3965 C   0  0  0  0  0  0  0  0  0  0  0  0
   -1.4766  -53.5409  -21.7951 C   0  0  0  0  0  0  0  0  0  0  0  0
   -0.4575  -52.8466  -22.3998 C   0  0  0  0  0  0  0  0  0  0  0  0
    0.4882  -52.2715  -21.5838 C   0  0  0  0  0  0  0  0  0  0  0  0
    0.4226  -52.3830  -20.2114 C   0  0  0  0  0  0  0  0  0  0  0  0
    1.5932  -51.5227  -22.2490 C   0  0  0  0  0  0  0  0  0  0  0  0
    2.3853  -50.8924  -21.3054 F   0  0  0  0  0  0  0  0  0  0  0  0
    2.3182  -52.3692  -23.0643 F   0  0  0  0  0  0  0  0  0  0  0  0
    1.0330  -50.5532  -23.0654 F   0  0  0  0  0  0  0  0  0  0  0  0
   -0.3737  -52.7216  -23.7932 O   0  0  0  0  0  0  0  0  0  0  0  0
   -0.2335  -53.9053  -24.5918 C   0  0  0  0  0  0  0  0  0  0  0  0
   -0.2054  -53.5386  -26.0105 C   0  0  0  0  0  0  0  0  0  0  0  0
   -1.1238  -52.6522  -26.5188 C   0  0  0  0  0  0  0  0  0  0  0  0
   -1.1119  -52.2895  -27.8685 C   0  0  0  0  0  0  0  0  0  0  0  0
   -0.1653  -52.8256  -28.7134 C   0  0  0  0  0  0  0  0  0  0  0  0
    0.7602  -53.7165  -28.2094 C   0  0  0  0  0  0  0  0  0  0  0  0
    1.6743  -54.2249  -29.0521 F   0  0  0  0  0  0  0  0  0  0  0  0
    0.7432  -54.0761  -26.8560 C   0  0  0  0  0  0  0  0  0  0  0  0
 24 25  1  0  0  0
 25 26  1  0  0  0
 26 27  2  0  0  0
 27 28  1  0  0  0
 28 29  2  0  0  0
 29 21  1  0  0  0
 21 22  2  0  0  0
 21 23  2  0  0  0
 21 20  1  0  0  0
 20 19  1  0  0  0
 19 17  1  0  0  0
 17 16  1  0  0  0
 16 11  1  0  0  0
 11 12  2  0  0  0
 12 13  1  0  0  0
 13 14  2  0  0  0
 14 15  1  0  0  0
 14  1  1  0  0  0
  1  2  2  0  0  0
  2  3  1  0  0  0
  3  4  2  0  0  0
  4  5  1  0  0  0
  5  6  2  0  0  0
  6  7  1  0  0  0
  7  8  2  0  0  0
  8 30  1  0  0  0
 30 32  1  0  0  0
 32 33  2  0  0  0
 33 34  1  0  0  0
 34 35  2  0  0  0
 35 42  1  0  0  0
 42 43  1  0  0  0
 43 44  1  0  0  0
 44 45  2  0  0  0
 45 46  1  0  0  0
 46 47  2  0  0  0
 47 48  1  0  0  0
 48 49  1  0  0  0
 48 50  2  0  0  0
 35 36  1  0  0  0
 36 37  2  0  0  0
 36 38  1  0  0  0
 38 39  1  0  0  0
 38 40  1  0  0  0
 38 41  1  0  0  0
  8  9  1  0  0  0
  9 10  2  0  0  0
 29 25  1  0  0  0
 15 11  1  0  0  0
 10  1  1  0  0  0
  9  4  1  0  0  0
 37 32  1  0  0  0
 50 44  1  0  0  0
 17 18  1  0  0  0
 30 31  1  0  0  0
M  END
> <minimizedAffinity>
-8.16192

> <CNNscore>
0.1058342382

> <CNNaffinity>
7.0747056007

> <CNN_VS>
0.7487460971

> <CNNaffinity_variance>
0.4440042973

$$$$
[H]C([H])=C([H])C(=O)N([H])c1c([H])c([H])c([H])c(Oc2nc(N([H])c3c([H])nn(C([H])([H])[H])c3[H])nc3c2c([H])c([H])n3[H])c1[H]


 31 34  0  0  0  0  0  0  0  0999 V2000
   -0.6429  -54.0115  -22.9230 C   0  0  0  0  0  0  0  0  0  0  0  0
    0.4980  -53.2593  -22.9901 N   0  0  0  0  0  0  0  0  0  0  0  0
    0.9897  -52.6176  -21.8845 C   0  0  0  0  0  0  0  0  0  0  0  0
    0.2814  -52.7686  -20.7133 C   0  0  0  0  0  0  0  0  0  0  0  0
    0.4840  -52.2763  -19.4431 C   0  0  0  0  0  0  0  0  0  0  0  0
   -0.5431  -52.7517  -18.6608 C   0  0  0  0  0  0  0  0  0  0  0  0
   -1.3600  -53.5094  -19.3959 N   0  0  0  0  0  0  0  0  0  0  0  0
   -0.8820  -53.5428  -20.6704 C   0  0  0  0  0  0  0  0  0  0  0  0
   -1.3028  -54.1376  -21.7797 N   0  0  0  0  0  0  0  0  0  0  0  0
   -2.2367  -54.0237  -19.1168 H   0  0  0  0  0  0  0  0  0  0  0  0
   -1.1121  -54.6530  -24.0835 N   0  0  0  0  0  0  0  0  0  0  0  0
   -1.9845  -55.2640  -23.9487 H   0  0  0  0  0  0  0  0  0  0  0  0
    0.3317  -52.6650  -28.3788 C   0  0  0  0  0  0  0  0  0  0  0  0
    0.1175  -53.5957  -27.2789 N   0  0  0  0  0  0  0  0  0  0  0  0
   -0.5443  -53.3627  -26.1432 C   0  0  0  0  0  0  0  0  0  0  0  0
   -0.5162  -54.5326  -25.3468 C   0  0  0  0  0  0  0  0  0  0  0  0
    0.1875  -55.4225  -26.0867 C   0  0  0  0  0  0  0  0  0  0  0  0
    0.5669  -54.8335  -27.2640 N   0  0  0  0  0  0  0  0  0  0  0  0
    2.1020  -51.8909  -21.9739 O   0  0  0  0  0  0  0  0  0  0  0  0
    2.8956  -51.3380  -22.9030 C   0  0  0  0  0  0  0  0  0  0  0  0
    3.9781  -52.0453  -23.3915 C   0  0  0  0  0  0  0  0  0  0  0  0
    4.7901  -51.5013  -24.3268 C   0  0  0  0  0  0  0  0  0  0  0  0
    4.5566  -50.2090  -24.8246 C   0  0  0  0  0  0  0  0  0  0  0  0
    3.4941  -49.4639  -24.3724 C   0  0  0  0  0  0  0  0  0  0  0  0
    2.6882  -50.0742  -23.4068 C   0  0  0  0  0  0  0  0  0  0  0  0
    3.1868  -48.1630  -24.8213 N   0  0  0  0  0  0  0  0  0  0  0  0
    3.4885  -46.9488  -24.2190 C   0  0  0  0  0  0  0  0  0  0  0  0
    4.1063  -46.7830  -23.1380 O   0  0  0  0  0  0  0  0  0  0  0  0
    2.6501  -48.0979  -25.7464 H   0  0  0  0  0  0  0  0  0  0  0  0
    3.0733  -45.6615  -24.8536 C   0  0  0  0  0  0  0  0  0  0  0  0
    2.0395  -44.9937  -24.4011 C   0  0  0  0  0  0  0  0  0  0  0  0
 13 14  1  0  0  0
 14 15  1  0  0  0
 15 16  2  0  0  0
 16 11  1  0  0  0
 11  1  1  0  0  0
  1  2  2  0  0  0
  2  3  1  0  0  0
  3 19  1  0  0  0
 19 20  1  0  0  0
 20 21  2  0  0  0
 21 22  1  0  0  0
 22 23  2  0  0  0
 23 24  1  0  0  0
 24 26  1  0  0  0
 26 27  1  0  0  0
 27 28  2  0  0  0
 27 30  1  0  0  0
 30 31  2  0  0  0
 24 25  2  0  0  0
  3  4  2  0  0  0
  4  5  1  0  0  0
  5  6  2  0  0  0
  6  7  1  0  0  0
  7  8  1  0  0  0
  8  9  2  0  0  0
 16 17  1  0  0  0
 17 18  2  0  0  0
 18 14  1  0  0  0
  9  1  1  0  0  0
 25 20  1  0  0  0
  8  4  1  0  0  0
 11 12  1  0  0  0
 26 29  1  0  0  0
  7 10  1  0  0  0
M  END
> <minimizedAffinity>
-7.36932

> <CNNscore>
0.6956652403

> <CNNaffinity>
7.0417547226

> <CNN_VS>
4.8987040520

> <CNNaffinity_variance>
0.1067906991

$$$$
[H]C([H])=C([H])C(=O)N([H])c1c([H])c([H])c([H])c(Oc2nc(N([H])c3c([H])nn(C([H])([H])[H])c3[H])nc3c2c([H])c([H])n3[H])c1[H]


 31 34  0  0  0  0  0  0  0  0999 V2000
   -0.4878  -53.7335  -22.9345 C   0  0  0  0  0  0  0  0  0  0  0  0
    0.5802  -52.8847  -22.8293 N   0  0  0  0  0  0  0  0  0  0  0  0
    0.9244  -52.3245  -21.6278 C   0  0  0  0  0  0  0  0  0  0  0  0
    0.1458  -52.6579  -20.5420 C   0  0  0  0  0  0  0  0  0  0  0  0
    0.2043  -52.2876  -19.2168 C   0  0  0  0  0  0  0  0  0  0  0  0
   -0.8310  -52.9282  -18.5759 C   0  0  0  0  0  0  0  0  0  0  0  0
   -1.5155  -53.6701  -19.4493 N   0  0  0  0  0  0  0  0  0  0  0  0
   -0.9405  -53.5278  -20.6752 C   0  0  0  0  0  0  0  0  0  0  0  0
   -1.2185  -54.0353  -21.8698 N   0  0  0  0  0  0  0  0  0  0  0  0
   -2.3594  -54.2832  -19.2982 H   0  0  0  0  0  0  0  0  0  0  0  0
   -0.8055  -54.2858  -24.1883 N   0  0  0  0  0  0  0  0  0  0  0  0
   -1.1963  -55.2854  -24.1634 H   0  0  0  0  0  0  0  0  0  0  0  0
    0.7297  -53.3069  -28.7896 C   0  0  0  0  0  0  0  0  0  0  0  0
    0.0761  -53.2116  -27.4912 N   0  0  0  0  0  0  0  0  0  0  0  0
    0.1390  -54.0930  -26.4907 C   0  0  0  0  0  0  0  0  0  0  0  0
   -0.6407  -53.6168  -25.4094 C   0  0  0  0  0  0  0  0  0  0  0  0
   -1.1378  -52.4370  -25.8513 C   0  0  0  0  0  0  0  0  0  0  0  0
   -0.6898  -52.2049  -27.1250 N   0  0  0  0  0  0  0  0  0  0  0  0
    1.9680  -51.5011  -21.5497 O   0  0  0  0  0  0  0  0  0  0  0  0
    2.2428  -50.1884  -21.5515 C   0  0  0  0  0  0  0  0  0  0  0  0
    2.5077  -49.5432  -22.7450 C   0  0  0  0  0  0  0  0  0  0  0  0
    2.7894  -48.2202  -22.7643 C   0  0  0  0  0  0  0  0  0  0  0  0
    2.8202  -47.4695  -21.5777 C   0  0  0  0  0  0  0  0  0  0  0  0
    2.5640  -48.0627  -20.3648 C   0  0  0  0  0  0  0  0  0  0  0  0
    2.2791  -49.4309  -20.4031 C   0  0  0  0  0  0  0  0  0  0  0  0
    2.5708  -47.3825  -19.1297 N   0  0  0  0  0  0  0  0  0  0  0  0
    3.6309  -47.1985  -18.2520 C   0  0  0  0  0  0  0  0  0  0  0  0
    4.8068  -47.6138  -18.4017 O   0  0  0  0  0  0  0  0  0  0  0  0
    1.6390  -46.9505  -18.8242 H   0  0  0  0  0  0  0  0  0  0  0  0
    3.4403  -46.4421  -16.9777 C   0  0  0  0  0  0  0  0  0  0  0  0
    4.4301  -46.2963  -16.1301 C   0  0  0  0  0  0  0  0  0  0  0  0
 13 14  1  0  0  0
 14 15  1  0  0  0
 15 16  2  0  0  0
 16 11  1  0  0  0
 11  1  1  0  0  0
  1  2  2  0  0  0
  2  3  1  0  0  0
  3 19  1  0  0  0
 19 20  1  0  0  0
 20 21  2  0  0  0
 21 22  1  0  0  0
 22 23  2  0  0  0
 23 24  1  0  0  0
 24 26  1  0  0  0
 26 27  1  0  0  0
 27 28  2  0  0  0
 27 30  1  0  0  0
 30 31  2  0  0  0
 24 25  2  0  0  0
  3  4  2  0  0  0
  4  5  1  0  0  0
  5  6  2  0  0  0
  6  7  1  0  0  0
  7  8  1  0  0  0
  8  9  2  0  0  0
 16 17  1  0  0  0
 17 18  2  0  0  0
 18 14  1  0  0  0
  9  1  1  0  0  0
 25 20  1  0  0  0
  8  4  1  0  0  0
 11 12  1  0  0  0
 26 29  1  0  0  0
  7 10  1  0  0  0
M  END
> <minimizedAffinity>
-6.92203

> <CNNscore>
0.6736692190

> <CNNaffinity>
6.8978757858

> <CNN_VS>
4.6468868256

> <CNNaffinity_variance>
0.2216579616

$$$$
[H]C([H])=C([H])C(=O)N([H])c1c([H])c([H])c([H])c(Oc2nc(N([H])c3c([H])nn(C([H])([H])[H])c3[H])nc3c2c([H])c([H])n3[H])c1[H]


 31 34  0  0  0  0  0  0  0  0999 V2000
   -0.6584  -53.9751  -22.1666 C   0  0  0  0  0  0  0  0  0  0  0  0
    0.4216  -53.1471  -22.3083 N   0  0  0  0  0  0  0  0  0  0  0  0
    0.8511  -52.3594  -21.2735 C   0  0  0  0  0  0  0  0  0  0  0  0
    0.1448  -52.4444  -20.0945 C   0  0  0  0  0  0  0  0  0  0  0  0
    0.2960  -51.8104  -18.8811 C   0  0  0  0  0  0  0  0  0  0  0  0
   -0.6992  -52.2818  -18.0562 C   0  0  0  0  0  0  0  0  0  0  0  0
   -1.4476  -53.1721  -18.7113 N   0  0  0  0  0  0  0  0  0  0  0  0
   -0.9556  -53.2983  -19.9745 C   0  0  0  0  0  0  0  0  0  0  0  0
   -1.3181  -54.0345  -21.0177 N   0  0  0  0  0  0  0  0  0  0  0  0
   -2.2847  -53.7218  -18.3826 H   0  0  0  0  0  0  0  0  0  0  0  0
   -1.0650  -54.7665  -23.2559 N   0  0  0  0  0  0  0  0  0  0  0  0
   -1.6972  -55.5980  -23.0078 H   0  0  0  0  0  0  0  0  0  0  0  0
   -0.2486  -52.3470  -27.4945 C   0  0  0  0  0  0  0  0  0  0  0  0
   -0.3410  -53.3938  -26.4857 N   0  0  0  0  0  0  0  0  0  0  0  0
   -0.7669  -53.2649  -25.2271 C   0  0  0  0  0  0  0  0  0  0  0  0
   -0.6965  -54.5254  -24.5870 C   0  0  0  0  0  0  0  0  0  0  0  0
   -0.2147  -55.3572  -25.5410 C   0  0  0  0  0  0  0  0  0  0  0  0
   -0.0031  -54.6493  -26.6948 N   0  0  0  0  0  0  0  0  0  0  0  0
    1.9048  -51.5612  -21.4348 O   0  0  0  0  0  0  0  0  0  0  0  0
    2.8214  -51.2453  -22.3614 C   0  0  0  0  0  0  0  0  0  0  0  0
    3.9626  -52.0147  -22.4897 C   0  0  0  0  0  0  0  0  0  0  0  0
    4.8984  -51.7082  -23.4174 C   0  0  0  0  0  0  0  0  0  0  0  0
    4.7368  -50.6050  -24.2714 C   0  0  0  0  0  0  0  0  0  0  0  0
    3.6206  -49.8080  -24.1850 C   0  0  0  0  0  0  0  0  0  0  0  0
    2.6866  -50.1701  -23.2098 C   0  0  0  0  0  0  0  0  0  0  0  0
    3.3791  -48.6864  -25.0047 N   0  0  0  0  0  0  0  0  0  0  0  0
    3.3389  -48.6238  -26.3912 C   0  0  0  0  0  0  0  0  0  0  0  0
    3.5139  -49.5783  -27.1886 O   0  0  0  0  0  0  0  0  0  0  0  0
    3.2040  -47.7597  -24.4960 H   0  0  0  0  0  0  0  0  0  0  0  0
    3.0663  -47.3295  -27.0861 C   0  0  0  0  0  0  0  0  0  0  0  0
    2.4180  -46.3655  -26.4780 C   0  0  0  0  0  0  0  0  0  0  0  0
 13 14  1  0  0  0
 14 15  1  0  0  0
 15 16  2  0  0  0
 16 11  1  0  0  0
 11  1  1  0  0  0
  1  2  2  0  0  0
  2  3  1  0  0  0
  3 19  1  0  0  0
 19 20  1  0  0  0
 20 21  2  0  0  0
 21 22  1  0  0  0
 22 23  2  0  0  0
 23 24  1  0  0  0
 24 26  1  0  0  0
 26 27  1  0  0  0
 27 28  2  0  0  0
 27 30  1  0  0  0
 30 31  2  0  0  0
 24 25  2  0  0  0
  3  4  2  0  0  0
  4  5  1  0  0  0
  5  6  2  0  0  0
  6  7  1  0  0  0
  7  8  1  0  0  0
  8  9  2  0  0  0
 16 17  1  0  0  0
 17 18  2  0  0  0
 18 14  1  0  0  0
  9  1  1  0  0  0
 25 20  1  0  0  0
  8  4  1  0  0  0
 11 12  1  0  0  0
 26 29  1  0  0  0
  7 10  1  0  0  0
M  END
> <minimizedAffinity>
-7.18792

> <CNNscore>
0.6689172983

> <CNNaffinity>
6.8951148987

> <CNN_VS>
4.6122617722

> <CNNaffinity_variance>
0.0794797093

$$$$
[H]C([H])=C([H])C(=O)N([H])c1c([H])c([H])c([H])c(Oc2nc(N([H])c3c([H])nn(C([H])([H])[H])c3[H])nc3c2c([H])c([H])n3[H])c1[H]


 31 34  0  0  0  0  0  0  0  0999 V2000
   -0.5067  -53.6796  -23.0709 C   0  0  0  0  0  0  0  0  0  0  0  0
    0.5692  -52.8351  -23.0355 N   0  0  0  0  0  0  0  0  0  0  0  0
    0.9869  -52.2685  -21.8606 C   0  0  0  0  0  0  0  0  0  0  0  0
    0.2730  -52.5910  -20.7280 C   0  0  0  0  0  0  0  0  0  0  0  0
    0.4121  -52.2121  -19.4112 C   0  0  0  0  0  0  0  0  0  0  0  0
   -0.5859  -52.8436  -18.7053 C   0  0  0  0  0  0  0  0  0  0  0  0
   -1.3245  -53.5881  -19.5312 N   0  0  0  0  0  0  0  0  0  0  0  0
   -0.8230  -53.4567  -20.7902 C   0  0  0  0  0  0  0  0  0  0  0  0
   -1.1739  -53.9708  -21.9625 N   0  0  0  0  0  0  0  0  0  0  0  0
   -2.1604  -54.1962  -19.3258 H   0  0  0  0  0  0  0  0  0  0  0  0
   -0.9010  -54.2387  -24.2998 N   0  0  0  0  0  0  0  0  0  0  0  0
   -1.3855  -55.1945  -24.2342 H   0  0  0  0  0  0  0  0  0  0  0  0
    0.8519  -53.4308  -28.8562 C   0  0  0  0  0  0  0  0  0  0  0  0
    0.1199  -53.2994  -27.6037 N   0  0  0  0  0  0  0  0  0  0  0  0
    0.1660  -54.1217  -26.5531 C   0  0  0  0  0  0  0  0  0  0  0  0
   -0.6973  -53.6285  -25.5455 C   0  0  0  0  0  0  0  0  0  0  0  0
   -1.2232  -52.5007  -26.0801 C   0  0  0  0  0  0  0  0  0  0  0  0
   -0.7131  -52.3146  -27.3379 N   0  0  0  0  0  0  0  0  0  0  0  0
    2.0368  -51.4495  -21.8505 O   0  0  0  0  0  0  0  0  0  0  0  0
    3.0379  -51.0533  -22.6502 C   0  0  0  0  0  0  0  0  0  0  0  0
    4.2575  -51.7021  -22.5976 C   0  0  0  0  0  0  0  0  0  0  0  0
    5.2785  -51.3134  -23.3954 C   0  0  0  0  0  0  0  0  0  0  0  0
    5.1282  -50.2451  -24.2946 C   0  0  0  0  0  0  0  0  0  0  0  0
    3.9364  -49.5670  -24.3861 C   0  0  0  0  0  0  0  0  0  0  0  0
    2.9159  -50.0101  -23.5394 C   0  0  0  0  0  0  0  0  0  0  0  0
    3.7005  -48.4882  -25.2629 N   0  0  0  0  0  0  0  0  0  0  0  0
    3.5389  -48.5166  -26.6417 C   0  0  0  0  0  0  0  0  0  0  0  0
    3.5732  -49.5335  -27.3782 O   0  0  0  0  0  0  0  0  0  0  0  0
    3.6379  -47.5185  -24.8113 H   0  0  0  0  0  0  0  0  0  0  0  0
    3.2957  -47.2552  -27.4048 C   0  0  0  0  0  0  0  0  0  0  0  0
    3.1748  -46.1076  -26.7820 C   0  0  0  0  0  0  0  0  0  0  0  0
 13 14  1  0  0  0
 14 15  1  0  0  0
 15 16  2  0  0  0
 16 11  1  0  0  0
 11  1  1  0  0  0
  1  2  2  0  0  0
  2  3  1  0  0  0
  3 19  1  0  0  0
 19 20  1  0  0  0
 20 21  2  0  0  0
 21 22  1  0  0  0
 22 23  2  0  0  0
 23 24  1  0  0  0
 24 26  1  0  0  0
 26 27  1  0  0  0
 27 28  2  0  0  0
 27 30  1  0  0  0
 30 31  2  0  0  0
 24 25  2  0  0  0
  3  4  2  0  0  0
  4  5  1  0  0  0
  5  6  2  0  0  0
  6  7  1  0  0  0
  7  8  1  0  0  0
  8  9  2  0  0  0
 16 17  1  0  0  0
 17 18  2  0  0  0
 18 14  1  0  0  0
  9  1  1  0  0  0
 25 20  1  0  0  0
  8  4  1  0  0  0
 11 12  1  0  0  0
 26 29  1  0  0  0
  7 10  1  0  0  0
M  END
> <minimizedAffinity>
-7.35196

> <CNNscore>
0.6382150650

> <CNNaffinity>
6.8755874634

> <CNN_VS>
4.3881034851

> <CNNaffinity_variance>
0.0426611081

$$$$
[H]C([H])=C([H])C(=O)N([H])c1c([H])c([H])c([H])c(Oc2nc(N([H])c3c([H])nn(C([H])([H])[H])c3[H])nc3c2c([H])c([H])n3[H])c1[H]


 31 34  0  0  0  0  0  0  0  0999 V2000
   -0.5245  -53.4649  -23.8621 C   0  0  0  0  0  0  0  0  0  0  0  0
    0.5862  -52.6714  -23.7680 N   0  0  0  0  0  0  0  0  0  0  0  0
    1.1155  -52.3350  -22.5504 C   0  0  0  0  0  0  0  0  0  0  0  0
    0.4763  -52.8330  -21.4370 C   0  0  0  0  0  0  0  0  0  0  0  0
    0.7308  -52.6983  -20.0902 C   0  0  0  0  0  0  0  0  0  0  0  0
   -0.2369  -53.4163  -19.4261 C   0  0  0  0  0  0  0  0  0  0  0  0
   -1.0671  -53.9805  -20.3060 N   0  0  0  0  0  0  0  0  0  0  0  0
   -0.6573  -53.6419  -21.5594 C   0  0  0  0  0  0  0  0  0  0  0  0
   -1.1177  -53.9292  -22.7707 N   0  0  0  0  0  0  0  0  0  0  0  0
   -1.9104  -54.5912  -20.1422 H   0  0  0  0  0  0  0  0  0  0  0  0
   -1.0343  -53.7851  -25.1332 N   0  0  0  0  0  0  0  0  0  0  0  0
   -1.9681  -54.3147  -25.1326 H   0  0  0  0  0  0  0  0  0  0  0  0
    1.9857  -54.0919  -29.0413 C   0  0  0  0  0  0  0  0  0  0  0  0
    0.9785  -53.6333  -28.0940 N   0  0  0  0  0  0  0  0  0  0  0  0
    0.6009  -54.2360  -26.9643 C   0  0  0  0  0  0  0  0  0  0  0  0
   -0.4036  -53.4568  -26.3416 C   0  0  0  0  0  0  0  0  0  0  0  0
   -0.5671  -52.3990  -27.1715 C   0  0  0  0  0  0  0  0  0  0  0  0
    0.2851  -52.5229  -28.2370 N   0  0  0  0  0  0  0  0  0  0  0  0
    2.1973  -51.5613  -22.4835 O   0  0  0  0  0  0  0  0  0  0  0  0
    3.4868  -51.5650  -22.8519 C   0  0  0  0  0  0  0  0  0  0  0  0
    3.8396  -52.0015  -24.1152 C   0  0  0  0  0  0  0  0  0  0  0  0
    5.1360  -52.0142  -24.5017 C   0  0  0  0  0  0  0  0  0  0  0  0
    6.1541  -51.5863  -23.6341 C   0  0  0  0  0  0  0  0  0  0  0  0
    5.8569  -51.1428  -22.3678 C   0  0  0  0  0  0  0  0  0  0  0  0
    4.5026  -51.1508  -22.0209 C   0  0  0  0  0  0  0  0  0  0  0  0
    6.8161  -50.6932  -21.4371 N   0  0  0  0  0  0  0  0  0  0  0  0
    7.3618  -49.4232  -21.3061 C   0  0  0  0  0  0  0  0  0  0  0  0
    7.0937  -48.4175  -22.0093 O   0  0  0  0  0  0  0  0  0  0  0  0
    7.1738  -51.4230  -20.7389 H   0  0  0  0  0  0  0  0  0  0  0  0
    8.3772  -49.1375  -20.2479 C   0  0  0  0  0  0  0  0  0  0  0  0
    8.0136  -48.6671  -19.0792 C   0  0  0  0  0  0  0  0  0  0  0  0
 13 14  1  0  0  0
 14 15  1  0  0  0
 15 16  2  0  0  0
 16 11  1  0  0  0
 11  1  1  0  0  0
  1  2  2  0  0  0
  2  3  1  0  0  0
  3 19  1  0  0  0
 19 20  1  0  0  0
 20 21  2  0  0  0
 21 22  1  0  0  0
 22 23  2  0  0  0
 23 24  1  0  0  0
 24 26  1  0  0  0
 26 27  1  0  0  0
 27 28  2  0  0  0
 27 30  1  0  0  0
 30 31  2  0  0  0
 24 25  2  0  0  0
  3  4  2  0  0  0
  4  5  1  0  0  0
  5  6  2  0  0  0
  6  7  1  0  0  0
  7  8  1  0  0  0
  8  9  2  0  0  0
 16 17  1  0  0  0
 17 18  2  0  0  0
 18 14  1  0  0  0
  9  1  1  0  0  0
 25 20  1  0  0  0
  8  4  1  0  0  0
 11 12  1  0  0  0
 26 29  1  0  0  0
  7 10  1  0  0  0
M  END
> <minimizedAffinity>
-7.08467

> <CNNscore>
0.6020256281

> <CNNaffinity>
6.8037643433

> <CNN_VS>
4.0960407257

> <CNNaffinity_variance>
0.0242586751

$$$$
[H]C([H])=C([H])C(=O)N([H])c1c([H])c([H])c([H])c(Oc2nc(N([H])c3c([H])nn(C([H])([H])[H])c3[H])nc3c2c([H])c([H])n3[H])c1[H]


 31 34  0  0  0  0  0  0  0  0999 V2000
   -0.6470  -53.8138  -23.3282 C   0  0  0  0  0  0  0  0  0  0  0  0
   -0.1192  -52.5684  -23.5341 N   0  0  0  0  0  0  0  0  0  0  0  0
    0.2195  -51.7595  -22.4821 C   0  0  0  0  0  0  0  0  0  0  0  0
    0.0024  -52.2618  -21.2184 C   0  0  0  0  0  0  0  0  0  0  0  0
    0.2218  -51.7331  -19.9657 C   0  0  0  0  0  0  0  0  0  0  0  0
   -0.1826  -52.6812  -19.0544 C   0  0  0  0  0  0  0  0  0  0  0  0
   -0.6373  -53.7608  -19.6945 N   0  0  0  0  0  0  0  0  0  0  0  0
   -0.5383  -53.5378  -21.0340 C   0  0  0  0  0  0  0  0  0  0  0  0
   -0.8441  -54.2693  -22.0984 N   0  0  0  0  0  0  0  0  0  0  0  0
   -1.0206  -54.6631  -19.3074 H   0  0  0  0  0  0  0  0  0  0  0  0
   -0.9806  -54.6107  -24.4381 N   0  0  0  0  0  0  0  0  0  0  0  0
   -1.6951  -55.3886  -24.2458 H   0  0  0  0  0  0  0  0  0  0  0  0
   -0.1422  -52.6654  -28.9102 C   0  0  0  0  0  0  0  0  0  0  0  0
   -0.0940  -53.5270  -27.7365 N   0  0  0  0  0  0  0  0  0  0  0  0
   -0.7889  -53.3875  -26.6053 C   0  0  0  0  0  0  0  0  0  0  0  0
   -0.4445  -54.4388  -25.7221 C   0  0  0  0  0  0  0  0  0  0  0  0
    0.4686  -55.1656  -26.4093 C   0  0  0  0  0  0  0  0  0  0  0  0
    0.6709  -54.5944  -27.6381 N   0  0  0  0  0  0  0  0  0  0  0  0
    0.7317  -50.5511  -22.7069 O   0  0  0  0  0  0  0  0  0  0  0  0
    1.7944  -49.8067  -22.3674 C   0  0  0  0  0  0  0  0  0  0  0  0
    1.6406  -48.7483  -21.4916 C   0  0  0  0  0  0  0  0  0  0  0  0
    2.7015  -47.9858  -21.1408 C   0  0  0  0  0  0  0  0  0  0  0  0
    3.9823  -48.2474  -21.6544 C   0  0  0  0  0  0  0  0  0  0  0  0
    4.1891  -49.2877  -22.5283 C   0  0  0  0  0  0  0  0  0  0  0  0
    3.0590  -50.0424  -22.8564 C   0  0  0  0  0  0  0  0  0  0  0  0
    5.4404  -49.6205  -23.0864 N   0  0  0  0  0  0  0  0  0  0  0  0
    6.5377  -50.1978  -22.4614 C   0  0  0  0  0  0  0  0  0  0  0  0
    6.6181  -50.5382  -21.2550 O   0  0  0  0  0  0  0  0  0  0  0  0
    5.5658  -49.4006  -24.1276 H   0  0  0  0  0  0  0  0  0  0  0  0
    7.7897  -50.4763  -23.2277 C   0  0  0  0  0  0  0  0  0  0  0  0
    8.2109  -49.6440  -24.1493 C   0  0  0  0  0  0  0  0  0  0  0  0
 13 14  1  0  0  0
 14 15  1  0  0  0
 15 16  2  0  0  0
 16 11  1  0  0  0
 11  1  1  0  0  0
  1  2  2  0  0  0
  2  3  1  0  0  0
  3 19  1  0  0  0
 19 20  1  0  0  0
 20 21  2  0  0  0
 21 22  1  0  0  0
 22 23  2  0  0  0
 23 24  1  0  0  0
 24 26  1  0  0  0
 26 27  1  0  0  0
 27 28  2  0  0  0
 27 30  1  0  0  0
 30 31  2  0  0  0
 24 25  2  0  0  0
  3  4  2  0  0  0
  4  5  1  0  0  0
  5  6  2  0  0  0
  6  7  1  0  0  0
  7  8  1  0  0  0
  8  9  2  0  0  0
 16 17  1  0  0  0
 17 18  2  0  0  0
 18 14  1  0  0  0
  9  1  1  0  0  0
 25 20  1  0  0  0
  8  4  1  0  0  0
 11 12  1  0  0  0
 26 29  1  0  0  0
  7 10  1  0  0  0
M  END
> <minimizedAffinity>
-7.28843

> <CNNscore>
0.5974972844

> <CNNaffinity>
6.9328184128

> <CNN_VS>
4.1423401833

> <CNNaffinity_variance>
0.2058275044

$$$$
[H]C([H])=C([H])C(=O)N([H])c1c([H])c([H])c([H])c(Oc2nc(N([H])c3c([H])nn(C([H])([H])[H])c3[H])nc3c2c([H])c([H])n3[H])c1[H]


 31 34  0  0  0  0  0  0  0  0999 V2000
   -0.4403  -52.5841  -23.3780 C   0  0  0  0  0  0  0  0  0  0  0  0
    0.5817  -51.6801  -23.2771 N   0  0  0  0  0  0  0  0  0  0  0  0
    1.1369  -51.3707  -22.0639 C   0  0  0  0  0  0  0  0  0  0  0  0
    0.6165  -52.0119  -20.9619 C   0  0  0  0  0  0  0  0  0  0  0  0
    0.9276  -51.9421  -19.6220 C   0  0  0  0  0  0  0  0  0  0  0  0
    0.0805  -52.8071  -18.9686 C   0  0  0  0  0  0  0  0  0  0  0  0
   -0.7305  -53.3990  -19.8484 N   0  0  0  0  0  0  0  0  0  0  0  0
   -0.4282  -52.9319  -21.0910 C   0  0  0  0  0  0  0  0  0  0  0  0
   -0.9199  -53.1852  -22.2976 N   0  0  0  0  0  0  0  0  0  0  0  0
   -1.4928  -54.1096  -19.6913 H   0  0  0  0  0  0  0  0  0  0  0  0
   -0.9808  -52.8716  -24.6443 N   0  0  0  0  0  0  0  0  0  0  0  0
   -1.9798  -52.5144  -24.8083 H   0  0  0  0  0  0  0  0  0  0  0  0
    1.6852  -53.7398  -28.7218 C   0  0  0  0  0  0  0  0  0  0  0  0
    0.9076  -53.9206  -27.5033 N   0  0  0  0  0  0  0  0  0  0  0  0
    0.3732  -52.9655  -26.7390 C   0  0  0  0  0  0  0  0  0  0  0  0
   -0.3011  -53.5710  -25.6516 C   0  0  0  0  0  0  0  0  0  0  0  0
   -0.1187  -54.8991  -25.8442 C   0  0  0  0  0  0  0  0  0  0  0  0
    0.6219  -55.0949  -26.9801 N   0  0  0  0  0  0  0  0  0  0  0  0
    2.1309  -50.4877  -21.9902 O   0  0  0  0  0  0  0  0  0  0  0  0
    2.5092  -49.3198  -22.5303 C   0  0  0  0  0  0  0  0  0  0  0  0
    2.3721  -48.1508  -21.8054 C   0  0  0  0  0  0  0  0  0  0  0  0
    2.7462  -46.9641  -22.3363 C   0  0  0  0  0  0  0  0  0  0  0  0
    3.2817  -46.8877  -23.6325 C   0  0  0  0  0  0  0  0  0  0  0  0
    3.4391  -48.0202  -24.3948 C   0  0  0  0  0  0  0  0  0  0  0  0
    3.0365  -49.2184  -23.7975 C   0  0  0  0  0  0  0  0  0  0  0  0
    3.9708  -48.0322  -25.7007 N   0  0  0  0  0  0  0  0  0  0  0  0
    3.4639  -47.4292  -26.8441 C   0  0  0  0  0  0  0  0  0  0  0  0
    2.4135  -46.7454  -26.9263 O   0  0  0  0  0  0  0  0  0  0  0  0
    4.8842  -48.5766  -25.8329 H   0  0  0  0  0  0  0  0  0  0  0  0
    4.1771  -47.5569  -28.1508 C   0  0  0  0  0  0  0  0  0  0  0  0
    3.6754  -47.0317  -29.2426 C   0  0  0  0  0  0  0  0  0  0  0  0
 13 14  1  0  0  0
 14 15  1  0  0  0
 15 16  2  0  0  0
 16 11  1  0  0  0
 11  1  1  0  0  0
  1  2  2  0  0  0
  2  3  1  0  0  0
  3 19  1  0  0  0
 19 20  1  0  0  0
 20 21  2  0  0  0
 21 22  1  0  0  0
 22 23  2  0  0  0
 23 24  1  0  0  0
 24 26  1  0  0  0
 26 27  1  0  0  0
 27 28  2  0  0  0
 27 30  1  0  0  0
 30 31  2  0  0  0
 24 25  2  0  0  0
  3  4  2  0  0  0
  4  5  1  0  0  0
  5  6  2  0  0  0
  6  7  1  0  0  0
  7  8  1  0  0  0
  8  9  2  0  0  0
 16 17  1  0  0  0
 17 18  2  0  0  0
 18 14  1  0  0  0
  9  1  1  0  0  0
 25 20  1  0  0  0
  8  4  1  0  0  0
 11 12  1  0  0  0
 26 29  1  0  0  0
  7 10  1  0  0  0
M  END
> <minimizedAffinity>
-6.74429

> <CNNscore>
0.3766835928

> <CNNaffinity>
6.6827344894

> <CNN_VS>
2.5172765255

> <CNNaffinity_variance>
0.0938734338

$$$$
[H]C([H])=C([H])C(=O)N([H])c1c([H])c([H])c([H])c(Oc2nc(N([H])c3c([H])nn(C([H])([H])[H])c3[H])nc3c2c([H])c([H])n3[H])c1[H]


 31 34  0  0  0  0  0  0  0  0999 V2000
    0.8979  -52.6334  -24.2405 C   0  0  0  0  0  0  0  0  0  0  0  0
    1.3164  -51.6439  -23.3933 N   0  0  0  0  0  0  0  0  0  0  0  0
    0.8695  -51.5822  -22.1002 C   0  0  0  0  0  0  0  0  0  0  0  0
   -0.0150  -52.5598  -21.7022 C   0  0  0  0  0  0  0  0  0  0  0  0
   -0.6496  -52.7964  -20.5029 C   0  0  0  0  0  0  0  0  0  0  0  0
   -1.4255  -53.9195  -20.6752 C   0  0  0  0  0  0  0  0  0  0  0  0
   -1.2921  -54.3761  -21.9225 N   0  0  0  0  0  0  0  0  0  0  0  0
   -0.4277  -53.5606  -22.5869 C   0  0  0  0  0  0  0  0  0  0  0  0
    0.0451  -53.5609  -23.8271 N   0  0  0  0  0  0  0  0  0  0  0  0
   -1.7396  -55.2095  -22.3873 H   0  0  0  0  0  0  0  0  0  0  0  0
    1.3826  -52.6581  -25.5606 N   0  0  0  0  0  0  0  0  0  0  0  0
    2.4517  -52.6733  -25.6564 H   0  0  0  0  0  0  0  0  0  0  0  0
   -2.6895  -52.5535  -28.3704 C   0  0  0  0  0  0  0  0  0  0  0  0
   -1.3004  -52.6132  -27.9355 N   0  0  0  0  0  0  0  0  0  0  0  0
   -0.8468  -52.5818  -26.6804 C   0  0  0  0  0  0  0  0  0  0  0  0
    0.5662  -52.6636  -26.7005 C   0  0  0  0  0  0  0  0  0  0  0  0
    0.8767  -52.7413  -28.0165 C   0  0  0  0  0  0  0  0  0  0  0  0
   -0.2756  -52.7092  -28.7568 N   0  0  0  0  0  0  0  0  0  0  0  0
    1.2908  -50.6098  -21.2938 O   0  0  0  0  0  0  0  0  0  0  0  0
    1.7286  -50.4343  -20.0384 C   0  0  0  0  0  0  0  0  0  0  0  0
    2.9084  -51.0294  -19.6323 C   0  0  0  0  0  0  0  0  0  0  0  0
    3.3628  -50.8647  -18.3688 C   0  0  0  0  0  0  0  0  0  0  0  0
    2.6516  -50.0882  -17.4393 C   0  0  0  0  0  0  0  0  0  0  0  0
    1.4734  -49.4751  -17.7923 C   0  0  0  0  0  0  0  0  0  0  0  0
    1.0506  -49.6786  -19.1092 C   0  0  0  0  0  0  0  0  0  0  0  0
    0.7009  -48.6771  -16.9236 N   0  0  0  0  0  0  0  0  0  0  0  0
   -0.4093  -49.0432  -16.1743 C   0  0  0  0  0  0  0  0  0  0  0  0
   -0.9412  -50.1803  -16.1316 O   0  0  0  0  0  0  0  0  0  0  0  0
    1.0059  -47.6545  -16.8264 H   0  0  0  0  0  0  0  0  0  0  0  0
   -1.1018  -48.0455  -15.3040 C   0  0  0  0  0  0  0  0  0  0  0  0
   -2.4006  -48.0944  -15.1304 C   0  0  0  0  0  0  0  0  0  0  0  0
 13 14  1  0  0  0
 14 15  1  0  0  0
 15 16  2  0  0  0
 16 11  1  0  0  0
 11  1  1  0  0  0
  1  2  2  0  0  0
  2  3  1  0  0  0
  3 19  1  0  0  0
 19 20  1  0  0  0
 20 21  2  0  0  0
 21 22  1  0  0  0
 22 23  2  0  0  0
 23 24  1  0  0  0
 24 26  1  0  0  0
 26 27  1  0  0  0
 27 28  2  0  0  0
 27 30  1  0  0  0
 30 31  2  0  0  0
 24 25  2  0  0  0
  3  4  2  0  0  0
  4  5  1  0  0  0
  5  6  2  0  0  0
  6  7  1  0  0  0
  7  8  1  0  0  0
  8  9  2  0  0  0
 16 17  1  0  0  0
 17 18  2  0  0  0
 18 14  1  0  0  0
  9  1  1  0  0  0
 25 20  1  0  0  0
  8  4  1  0  0  0
 11 12  1  0  0  0
 26 29  1  0  0  0
  7 10  1  0  0  0
M  END
> <minimizedAffinity>
-7.43516

> <CNNscore>
0.2610706389

> <CNNaffinity>
6.4898543358

> <CNN_VS>
1.6943104267

> <CNNaffinity_variance>
0.1688237786

$$$$
[H]C([H])=C([H])C(=O)N([H])c1c([H])c([H])c([H])c(Oc2nc(N([H])c3c([H])nn(C([H])([H])[H])c3[H])nc3c2c([H])c([H])n3[H])c1[H]


 31 34  0  0  0  0  0  0  0  0999 V2000
    0.9576  -53.0483  -24.3162 C   0  0  0  0  0  0  0  0  0  0  0  0
    1.2994  -51.9504  -23.5746 N   0  0  0  0  0  0  0  0  0  0  0  0
    0.7564  -51.7350  -22.3359 C   0  0  0  0  0  0  0  0  0  0  0  0
   -0.1432  -52.6732  -21.8811 C   0  0  0  0  0  0  0  0  0  0  0  0
   -0.8626  -52.7695  -20.7106 C   0  0  0  0  0  0  0  0  0  0  0  0
   -1.6095  -53.9221  -20.7933 C   0  0  0  0  0  0  0  0  0  0  0  0
   -1.3777  -54.5302  -21.9588 N   0  0  0  0  0  0  0  0  0  0  0  0
   -0.4762  -53.7869  -22.6578 C   0  0  0  0  0  0  0  0  0  0  0  0
    0.0878  -53.9343  -23.8502 N   0  0  0  0  0  0  0  0  0  0  0  0
   -1.7788  -55.4254  -22.3442 H   0  0  0  0  0  0  0  0  0  0  0  0
    1.5397  -53.2297  -25.5836 N   0  0  0  0  0  0  0  0  0  0  0  0
    2.5657  -53.5457  -25.5760 H   0  0  0  0  0  0  0  0  0  0  0  0
   -2.1637  -52.6025  -28.8051 C   0  0  0  0  0  0  0  0  0  0  0  0
   -0.8366  -52.7446  -28.2214 N   0  0  0  0  0  0  0  0  0  0  0  0
   -0.5389  -52.9439  -26.9355 C   0  0  0  0  0  0  0  0  0  0  0  0
    0.8675  -53.0249  -26.7969 C   0  0  0  0  0  0  0  0  0  0  0  0
    1.3364  -52.8623  -28.0570 C   0  0  0  0  0  0  0  0  0  0  0  0
    0.2817  -52.6924  -28.9147 N   0  0  0  0  0  0  0  0  0  0  0  0
    1.1042  -50.6592  -21.6324 O   0  0  0  0  0  0  0  0  0  0  0  0
    1.9182  -50.3096  -20.6255 C   0  0  0  0  0  0  0  0  0  0  0  0
    2.6796  -51.2733  -19.9910 C   0  0  0  0  0  0  0  0  0  0  0  0
    3.5037  -50.9381  -18.9719 C   0  0  0  0  0  0  0  0  0  0  0  0
    3.6077  -49.6082  -18.5327 C   0  0  0  0  0  0  0  0  0  0  0  0
    2.8727  -48.6122  -19.1296 C   0  0  0  0  0  0  0  0  0  0  0  0
    2.0381  -49.0142  -20.1767 C   0  0  0  0  0  0  0  0  0  0  0  0
    2.9205  -47.2541  -18.7534 N   0  0  0  0  0  0  0  0  0  0  0  0
    3.5766  -46.2064  -19.3858 C   0  0  0  0  0  0  0  0  0  0  0  0
    4.2637  -46.2783  -20.4347 O   0  0  0  0  0  0  0  0  0  0  0  0
    2.3829  -46.9919  -17.8644 H   0  0  0  0  0  0  0  0  0  0  0  0
    3.5106  -44.8215  -18.8289 C   0  0  0  0  0  0  0  0  0  0  0  0
    3.4113  -44.6225  -17.5366 C   0  0  0  0  0  0  0  0  0  0  0  0
 13 14  1  0  0  0
 14 15  1  0  0  0
 15 16  2  0  0  0
 16 11  1  0  0  0
 11  1  1  0  0  0
  1  2  2  0  0  0
  2  3  1  0  0  0
  3 19  1  0  0  0
 19 20  1  0  0  0
 20 21  2  0  0  0
 21 22  1  0  0  0
 22 23  2  0  0  0
 23 24  1  0  0  0
 24 26  1  0  0  0
 26 27  1  0  0  0
 27 28  2  0  0  0
 27 30  1  0  0  0
 30 31  2  0  0  0
 24 25  2  0  0  0
  3  4  2  0  0  0
  4  5  1  0  0  0
  5  6  2  0  0  0
  6  7  1  0  0  0
  7  8  1  0  0  0
  8  9  2  0  0  0
 16 17  1  0  0  0
 17 18  2  0  0  0
 18 14  1  0  0  0
  9  1  1  0  0  0
 25 20  1  0  0  0
  8  4  1  0  0  0
 11 12  1  0  0  0
 26 29  1  0  0  0
  7 10  1  0  0  0
M  END
> <minimizedAffinity>
-6.65231

> <CNNscore>
0.2424258590

> <CNNaffinity>
6.4914832115

> <CNN_VS>
1.5737034082

> <CNNaffinity_variance>
0.2225923985

$$$$
[H]c1c([H])c([H])c(C([H])([H])C([H])([H])N([H])c2c([H])c([H])n([H])c(=O)c2C(=O)N([H])c2c([H])c([H])c(N3C([H])([H])C([H])([H])N(C([H])([H])[H])C([H])([H])C3([H])[H])c([H])c2[H])c([H])c1[H]


 35 38  0  0  0  0  0  0  0  0999 V2000
   -0.4298  -53.8495  -22.7262 C   0  0  0  0  0  0  0  0  0  0  0  0
    0.3940  -53.5933  -23.8230 C   0  0  0  0  0  0  0  0  0  0  0  0
    0.2633  -54.3862  -24.9332 C   0  0  0  0  0  0  0  0  0  0  0  0
   -0.6310  -55.4215  -25.0260 C   0  0  0  0  0  0  0  0  0  0  0  0
   -1.4116  -55.6577  -23.9671 N   0  0  0  0  0  0  0  0  0  0  0  0
   -1.3207  -54.8964  -22.8415 C   0  0  0  0  0  0  0  0  0  0  0  0
   -2.1350  -55.2546  -21.9315 O   0  0  0  0  0  0  0  0  0  0  0  0
   -2.1133  -56.4607  -24.0177 H   0  0  0  0  0  0  0  0  0  0  0  0
    0.0213  -53.3041  -20.2886 N   0  0  0  0  0  0  0  0  0  0  0  0
   -0.4498  -53.0036  -21.5654 C   0  0  0  0  0  0  0  0  0  0  0  0
   -0.9509  -51.8345  -21.6970 O   0  0  0  0  0  0  0  0  0  0  0  0
    0.4818  -54.2490  -20.1086 H   0  0  0  0  0  0  0  0  0  0  0  0
   -0.2609  -50.8419  -16.8444 C   0  0  0  0  0  0  0  0  0  0  0  0
   -1.0526  -51.9589  -16.9863 C   0  0  0  0  0  0  0  0  0  0  0  0
   -0.9349  -52.7525  -18.1159 C   0  0  0  0  0  0  0  0  0  0  0  0
   -0.0229  -52.4556  -19.1398 C   0  0  0  0  0  0  0  0  0  0  0  0
    0.7442  -51.3532  -18.9803 C   0  0  0  0  0  0  0  0  0  0  0  0
    0.6419  -50.5324  -17.8401 C   0  0  0  0  0  0  0  0  0  0  0  0
    2.3596  -48.9508  -13.7581 C   0  0  0  0  0  0  0  0  0  0  0  0
    1.0098  -48.4454  -13.8494 N   0  0  0  0  0  0  0  0  0  0  0  0
    0.0271  -49.3902  -13.3826 C   0  0  0  0  0  0  0  0  0  0  0  0
   -0.1844  -50.5304  -14.3535 C   0  0  0  0  0  0  0  0  0  0  0  0
   -0.3212  -49.9904  -15.7172 N   0  0  0  0  0  0  0  0  0  0  0  0
   -0.5222  -48.5575  -15.7613 C   0  0  0  0  0  0  0  0  0  0  0  0
    0.7038  -47.9102  -15.1516 C   0  0  0  0  0  0  0  0  0  0  0  0
    1.4357  -52.6642  -23.7987 N   0  0  0  0  0  0  0  0  0  0  0  0
    2.4292  -52.9730  -23.5215 H   0  0  0  0  0  0  0  0  0  0  0  0
    1.3889  -51.2743  -24.1700 C   0  0  0  0  0  0  0  0  0  0  0  0
    1.6206  -50.9462  -25.5917 C   0  0  0  0  0  0  0  0  0  0  0  0
    0.8911  -51.6799  -26.6126 C   0  0  0  0  0  0  0  0  0  0  0  0
   -0.4889  -51.6314  -26.6256 C   0  0  0  0  0  0  0  0  0  0  0  0
   -1.1748  -52.3480  -27.5757 C   0  0  0  0  0  0  0  0  0  0  0  0
   -0.5355  -53.1192  -28.5236 C   0  0  0  0  0  0  0  0  0  0  0  0
    0.8396  -53.1741  -28.5189 C   0  0  0  0  0  0  0  0  0  0  0  0
    1.5349  -52.4646  -27.5775 C   0  0  0  0  0  0  0  0  0  0  0  0
 19 20  1  0  0  0
 20 21  1  0  0  0
 21 22  1  0  0  0
 22 23  1  0  0  0
 23 24  1  0  0  0
 24 25  1  0  0  0
 23 13  1  0  0  0
 13 14  2  0  0  0
 14 15  1  0  0  0
 15 16  2  0  0  0
 16  9  1  0  0  0
  9 10  1  0  0  0
 10 11  2  0  0  0
 10  1  1  0  0  0
  1  2  2  0  0  0
  2 26  1  0  0  0
 26 28  1  0  0  0
 28 29  1  0  0  0
 29 30  1  0  0  0
 30 31  2  0  0  0
 31 32  1  0  0  0
 32 33  2  0  0  0
 33 34  1  0  0  0
 34 35  2  0  0  0
  2  3  1  0  0  0
  3  4  2  0  0  0
  4  5  1  0  0  0
  5  6  1  0  0  0
  6  7  2  0  0  0
 16 17  1  0  0  0
 17 18  2  0  0  0
 25 20  1  0  0  0
 18 13  1  0  0  0
  6  1  1  0  0  0
 35 30  1  0  0  0
  9 12  1  0  0  0
 26 27  1  0  0  0
  5  8  1  0  0  0
M  END
> <minimizedAffinity>
-8.02823

> <CNNscore>
0.9645478129

> <CNNaffinity>
7.1796922684

> <CNN_VS>
6.9251565933

> <CNNaffinity_variance>
0.0740500987

$$$$
[H]c1c([H])c([H])c(C([H])([H])C([H])([H])N([H])c2c([H])c([H])n([H])c(=O)c2C(=O)N([H])c2c([H])c([H])c(N3C([H])([H])C([H])([H])N(C([H])([H])[H])C([H])([H])C3([H])[H])c([H])c2[H])c([H])c1[H]


 35 38  0  0  0  0  0  0  0  0999 V2000
   -0.3729  -53.5198  -23.1751 C   0  0  0  0  0  0  0  0  0  0  0  0
    0.2599  -52.8784  -24.2407 C   0  0  0  0  0  0  0  0  0  0  0  0
    0.2857  -53.5103  -25.4565 C   0  0  0  0  0  0  0  0  0  0  0  0
   -0.2733  -54.7414  -25.6846 C   0  0  0  0  0  0  0  0  0  0  0  0
   -0.8733  -55.3457  -24.6546 N   0  0  0  0  0  0  0  0  0  0  0  0
   -0.9269  -54.7576  -23.4273 C   0  0  0  0  0  0  0  0  0  0  0  0
   -1.5344  -55.4662  -22.5621 O   0  0  0  0  0  0  0  0  0  0  0  0
   -1.3131  -56.3059  -24.8102 H   0  0  0  0  0  0  0  0  0  0  0  0
   -0.0742  -53.3225  -20.6621 N   0  0  0  0  0  0  0  0  0  0  0  0
   -0.5544  -52.8899  -21.8968 C   0  0  0  0  0  0  0  0  0  0  0  0
   -1.2291  -51.8041  -21.8657 O   0  0  0  0  0  0  0  0  0  0  0  0
    0.5241  -54.2040  -20.6119 H   0  0  0  0  0  0  0  0  0  0  0  0
   -0.5350  -51.3819  -16.9170 C   0  0  0  0  0  0  0  0  0  0  0  0
    0.3761  -50.9298  -17.8444 C   0  0  0  0  0  0  0  0  0  0  0  0
    0.5011  -51.5746  -19.0642 C   0  0  0  0  0  0  0  0  0  0  0  0
   -0.2798  -52.6918  -19.3965 C   0  0  0  0  0  0  0  0  0  0  0  0
   -1.1677  -53.1197  -18.4704 C   0  0  0  0  0  0  0  0  0  0  0  0
   -1.3121  -52.4792  -17.2242 C   0  0  0  0  0  0  0  0  0  0  0  0
   -1.8743  -47.5404  -15.0682 C   0  0  0  0  0  0  0  0  0  0  0  0
   -1.7461  -48.6699  -14.1773 N   0  0  0  0  0  0  0  0  0  0  0  0
   -0.3752  -49.0569  -13.9601 C   0  0  0  0  0  0  0  0  0  0  0  0
    0.2243  -49.7562  -15.1597 C   0  0  0  0  0  0  0  0  0  0  0  0
   -0.7219  -50.7703  -15.6559 N   0  0  0  0  0  0  0  0  0  0  0  0
   -1.8061  -51.0562  -14.7403 C   0  0  0  0  0  0  0  0  0  0  0  0
   -2.5909  -49.7742  -14.5549 C   0  0  0  0  0  0  0  0  0  0  0  0
    0.9854  -51.6940  -24.1007 N   0  0  0  0  0  0  0  0  0  0  0  0
    0.4774  -50.7448  -24.1073 H   0  0  0  0  0  0  0  0  0  0  0  0
    2.3993  -51.5452  -23.8752 C   0  0  0  0  0  0  0  0  0  0  0  0
    2.8639  -51.5451  -22.4729 C   0  0  0  0  0  0  0  0  0  0  0  0
    2.6414  -50.3631  -21.6565 C   0  0  0  0  0  0  0  0  0  0  0  0
    3.5228  -50.0701  -20.6346 C   0  0  0  0  0  0  0  0  0  0  0  0
    3.2935  -48.9672  -19.8488 C   0  0  0  0  0  0  0  0  0  0  0  0
    2.2105  -48.1353  -20.0412 C   0  0  0  0  0  0  0  0  0  0  0  0
    1.3263  -48.4189  -21.0570 C   0  0  0  0  0  0  0  0  0  0  0  0
    1.5436  -49.5149  -21.8472 C   0  0  0  0  0  0  0  0  0  0  0  0
 19 20  1  0  0  0
 20 21  1  0  0  0
 21 22  1  0  0  0
 22 23  1  0  0  0
 23 24  1  0  0  0
 24 25  1  0  0  0
 23 13  1  0  0  0
 13 14  2  0  0  0
 14 15  1  0  0  0
 15 16  2  0  0  0
 16  9  1  0  0  0
  9 10  1  0  0  0
 10 11  2  0  0  0
 10  1  1  0  0  0
  1  2  2  0  0  0
  2 26  1  0  0  0
 26 28  1  0  0  0
 28 29  1  0  0  0
 29 30  1  0  0  0
 30 31  2  0  0  0
 31 32  1  0  0  0
 32 33  2  0  0  0
 33 34  1  0  0  0
 34 35  2  0  0  0
  2  3  1  0  0  0
  3  4  2  0  0  0
  4  5  1  0  0  0
  5  6  1  0  0  0
  6  7  2  0  0  0
 16 17  1  0  0  0
 17 18  2  0  0  0
 25 20  1  0  0  0
 18 13  1  0  0  0
  6  1  1  0  0  0
 35 30  1  0  0  0
  9 12  1  0  0  0
 26 27  1  0  0  0
  5  8  1  0  0  0
M  END
> <minimizedAffinity>
-7.54767

> <CNNscore>
0.8973163366

> <CNNaffinity>
7.0511045456

> <CNN_VS>
6.3270711899

> <CNNaffinity_variance>
0.0676940531

$$$$
[H]c1c([H])c([H])c(C([H])([H])C([H])([H])N([H])c2c([H])c([H])n([H])c(=O)c2C(=O)N([H])c2c([H])c([H])c(N3C([H])([H])C([H])([H])N(C([H])([H])[H])C([H])([H])C3([H])[H])c([H])c2[H])c([H])c1[H]


 35 38  0  0  0  0  0  0  0  0999 V2000
   -0.2863  -53.5136  -23.0196 C   0  0  0  0  0  0  0  0  0  0  0  0
    0.4570  -52.9630  -24.0644 C   0  0  0  0  0  0  0  0  0  0  0  0
    0.4573  -53.6096  -25.2728 C   0  0  0  0  0  0  0  0  0  0  0  0
   -0.2303  -54.7715  -25.5125 C   0  0  0  0  0  0  0  0  0  0  0  0
   -0.9354  -55.2895  -24.5022 N   0  0  0  0  0  0  0  0  0  0  0  0
   -0.9687  -54.6830  -23.2832 C   0  0  0  0  0  0  0  0  0  0  0  0
   -1.6868  -55.3059  -22.4370 O   0  0  0  0  0  0  0  0  0  0  0  0
   -1.4762  -56.1950  -24.6670 H   0  0  0  0  0  0  0  0  0  0  0  0
   -0.0145  -53.2934  -20.5055 N   0  0  0  0  0  0  0  0  0  0  0  0
   -0.4437  -52.8502  -21.7552 C   0  0  0  0  0  0  0  0  0  0  0  0
   -1.0416  -51.7199  -21.7534 O   0  0  0  0  0  0  0  0  0  0  0  0
    0.5201  -54.2132  -20.4306 H   0  0  0  0  0  0  0  0  0  0  0  0
   -0.7013  -51.3861  -16.7779 C   0  0  0  0  0  0  0  0  0  0  0  0
   -1.4094  -52.5086  -17.1431 C   0  0  0  0  0  0  0  0  0  0  0  0
   -1.1600  -53.1191  -18.3615 C   0  0  0  0  0  0  0  0  0  0  0  0
   -0.1956  -52.6278  -19.2541 C   0  0  0  0  0  0  0  0  0  0  0  0
    0.4876  -51.5235  -18.8758 C   0  0  0  0  0  0  0  0  0  0  0  0
    0.2510  -50.8869  -17.6417 C   0  0  0  0  0  0  0  0  0  0  0  0
   -2.6052  -47.7220  -15.0694 C   0  0  0  0  0  0  0  0  0  0  0  0
   -2.1838  -48.7267  -14.1213 N   0  0  0  0  0  0  0  0  0  0  0  0
   -0.7505  -48.8284  -14.0156 C   0  0  0  0  0  0  0  0  0  0  0  0
   -0.1292  -49.5022  -15.2188 C   0  0  0  0  0  0  0  0  0  0  0  0
   -0.8971  -50.7151  -15.5488 N   0  0  0  0  0  0  0  0  0  0  0  0
   -1.8233  -51.1208  -14.5128 C   0  0  0  0  0  0  0  0  0  0  0  0
   -2.8251  -49.9986  -14.3376 C   0  0  0  0  0  0  0  0  0  0  0  0
    1.3079  -51.8677  -23.9057 N   0  0  0  0  0  0  0  0  0  0  0  0
    0.9294  -50.8671  -24.0267 H   0  0  0  0  0  0  0  0  0  0  0  0
    2.6950  -51.8749  -23.5213 C   0  0  0  0  0  0  0  0  0  0  0  0
    3.6714  -51.3602  -24.5033 C   0  0  0  0  0  0  0  0  0  0  0  0
    3.5516  -49.9865  -24.9631 C   0  0  0  0  0  0  0  0  0  0  0  0
    3.4330  -49.7328  -26.3153 C   0  0  0  0  0  0  0  0  0  0  0  0
    3.3473  -48.4317  -26.7471 C   0  0  0  0  0  0  0  0  0  0  0  0
    3.3752  -47.3615  -25.8778 C   0  0  0  0  0  0  0  0  0  0  0  0
    3.4931  -47.6039  -24.5282 C   0  0  0  0  0  0  0  0  0  0  0  0
    3.5793  -48.8958  -24.0850 C   0  0  0  0  0  0  0  0  0  0  0  0
 19 20  1  0  0  0
 20 21  1  0  0  0
 21 22  1  0  0  0
 22 23  1  0  0  0
 23 24  1  0  0  0
 24 25  1  0  0  0
 23 13  1  0  0  0
 13 14  2  0  0  0
 14 15  1  0  0  0
 15 16  2  0  0  0
 16  9  1  0  0  0
  9 10  1  0  0  0
 10 11  2  0  0  0
 10  1  1  0  0  0
  1  2  2  0  0  0
  2 26  1  0  0  0
 26 28  1  0  0  0
 28 29  1  0  0  0
 29 30  1  0  0  0
 30 31  2  0  0  0
 31 32  1  0  0  0
 32 33  2  0  0  0
 33 34  1  0  0  0
 34 35  2  0  0  0
  2  3  1  0  0  0
  3  4  2  0  0  0
  4  5  1  0  0  0
  5  6  1  0  0  0
  6  7  2  0  0  0
 16 17  1  0  0  0
 17 18  2  0  0  0
 25 20  1  0  0  0
 18 13  1  0  0  0
  6  1  1  0  0  0
 35 30  1  0  0  0
  9 12  1  0  0  0
 26 27  1  0  0  0
  5  8  1  0  0  0
M  END
> <minimizedAffinity>
-7.56125

> <CNNscore>
0.7824236751

> <CNNaffinity>
6.9056024551

> <CNN_VS>
5.4031066895

> <CNNaffinity_variance>
0.1940557063

$$$$
[H]c1c([H])c([H])c(C([H])([H])C([H])([H])N([H])c2c([H])c([H])n([H])c(=O)c2C(=O)N([H])c2c([H])c([H])c(N3C([H])([H])C([H])([H])N(C([H])([H])[H])C([H])([H])C3([H])[H])c([H])c2[H])c([H])c1[H]


 35 38  0  0  0  0  0  0  0  0999 V2000
   -0.3854  -53.3366  -23.2214 C   0  0  0  0  0  0  0  0  0  0  0  0
    0.1223  -52.6211  -24.3065 C   0  0  0  0  0  0  0  0  0  0  0  0
    0.1324  -53.2261  -25.5362 C   0  0  0  0  0  0  0  0  0  0  0  0
   -0.3261  -54.4987  -25.7603 C   0  0  0  0  0  0  0  0  0  0  0  0
   -0.8067  -55.1737  -24.7116 N   0  0  0  0  0  0  0  0  0  0  0  0
   -0.8398  -54.6152  -23.4700 C   0  0  0  0  0  0  0  0  0  0  0  0
   -1.3283  -55.3917  -22.5879 O   0  0  0  0  0  0  0  0  0  0  0  0
   -1.1668  -56.1671  -24.8639 H   0  0  0  0  0  0  0  0  0  0  0  0
    0.0945  -53.1163  -20.7386 N   0  0  0  0  0  0  0  0  0  0  0  0
   -0.5463  -52.7490  -21.9205 C   0  0  0  0  0  0  0  0  0  0  0  0
   -1.3652  -51.7729  -21.8122 O   0  0  0  0  0  0  0  0  0  0  0  0
    0.8156  -53.9020  -20.7555 H   0  0  0  0  0  0  0  0  0  0  0  0
   -0.3113  -51.3042  -16.9234 C   0  0  0  0  0  0  0  0  0  0  0  0
    0.5433  -50.7852  -17.8694 C   0  0  0  0  0  0  0  0  0  0  0  0
    0.6510  -51.3894  -19.1115 C   0  0  0  0  0  0  0  0  0  0  0  0
   -0.0913  -52.5313  -19.4483 C   0  0  0  0  0  0  0  0  0  0  0  0
   -0.9239  -53.0249  -18.5037 C   0  0  0  0  0  0  0  0  0  0  0  0
   -1.0497  -52.4267  -17.2346 C   0  0  0  0  0  0  0  0  0  0  0  0
   -2.9951  -51.4805  -13.3547 C   0  0  0  0  0  0  0  0  0  0  0  0
   -1.7386  -50.7906  -13.1781 N   0  0  0  0  0  0  0  0  0  0  0  0
   -1.6827  -49.5407  -13.8929 C   0  0  0  0  0  0  0  0  0  0  0  0
   -1.5271  -49.7352  -15.3847 C   0  0  0  0  0  0  0  0  0  0  0  0
   -0.4778  -50.7373  -15.6387 N   0  0  0  0  0  0  0  0  0  0  0  0
    0.3261  -51.0500  -14.4761 C   0  0  0  0  0  0  0  0  0  0  0  0
   -0.5999  -51.6363  -13.4309 C   0  0  0  0  0  0  0  0  0  0  0  0
    0.7454  -51.3782  -24.1811 N   0  0  0  0  0  0  0  0  0  0  0  0
    0.1541  -50.4875  -24.0536 H   0  0  0  0  0  0  0  0  0  0  0  0
    2.1564  -51.0977  -24.1352 C   0  0  0  0  0  0  0  0  0  0  0  0
    2.9595  -51.8318  -23.1359 C   0  0  0  0  0  0  0  0  0  0  0  0
    4.3102  -51.3792  -22.8466 C   0  0  0  0  0  0  0  0  0  0  0  0
    4.6544  -51.0620  -21.5474 C   0  0  0  0  0  0  0  0  0  0  0  0
    5.9239  -50.6090  -21.2830 C   0  0  0  0  0  0  0  0  0  0  0  0
    6.8748  -50.4576  -22.2704 C   0  0  0  0  0  0  0  0  0  0  0  0
    6.5414  -50.7711  -23.5683 C   0  0  0  0  0  0  0  0  0  0  0  0
    5.2798  -51.2235  -23.8450 C   0  0  0  0  0  0  0  0  0  0  0  0
 19 20  1  0  0  0
 20 21  1  0  0  0
 21 22  1  0  0  0
 22 23  1  0  0  0
 23 24  1  0  0  0
 24 25  1  0  0  0
 23 13  1  0  0  0
 13 14  2  0  0  0
 14 15  1  0  0  0
 15 16  2  0  0  0
 16  9  1  0  0  0
  9 10  1  0  0  0
 10 11  2  0  0  0
 10  1  1  0  0  0
  1  2  2  0  0  0
  2 26  1  0  0  0
 26 28  1  0  0  0
 28 29  1  0  0  0
 29 30  1  0  0  0
 30 31  2  0  0  0
 31 32  1  0  0  0
 32 33  2  0  0  0
 33 34  1  0  0  0
 34 35  2  0  0  0
  2  3  1  0  0  0
  3  4  2  0  0  0
  4  5  1  0  0  0
  5  6  1  0  0  0
  6  7  2  0  0  0
 16 17  1  0  0  0
 17 18  2  0  0  0
 25 20  1  0  0  0
 18 13  1  0  0  0
  6  1  1  0  0  0
 35 30  1  0  0  0
  9 12  1  0  0  0
 26 27  1  0  0  0
  5  8  1  0  0  0
M  END
> <minimizedAffinity>
-7.45528

> <CNNscore>
0.7411963940

> <CNNaffinity>
6.8376755714

> <CNN_VS>
5.0680603981

> <CNNaffinity_variance>
0.0973745510

$$$$
[H]c1c([H])c([H])c(C([H])([H])C([H])([H])N([H])c2c([H])c([H])n([H])c(=O)c2C(=O)N([H])c2c([H])c([H])c(N3C([H])([H])C([H])([H])N(C([H])([H])[H])C([H])([H])C3([H])[H])c([H])c2[H])c([H])c1[H]


 35 38  0  0  0  0  0  0  0  0999 V2000
   -0.0149  -53.6826  -22.6019 C   0  0  0  0  0  0  0  0  0  0  0  0
    0.7385  -53.0396  -23.5849 C   0  0  0  0  0  0  0  0  0  0  0  0
    0.4672  -53.3200  -24.8986 C   0  0  0  0  0  0  0  0  0  0  0  0
   -0.5025  -54.2013  -25.3025 C   0  0  0  0  0  0  0  0  0  0  0  0
   -1.2144  -54.8124  -24.3506 N   0  0  0  0  0  0  0  0  0  0  0  0
   -0.9838  -54.5657  -23.0313 C   0  0  0  0  0  0  0  0  0  0  0  0
   -1.7492  -55.2282  -22.2600 O   0  0  0  0  0  0  0  0  0  0  0  0
   -1.9729  -55.5041  -24.6436 H   0  0  0  0  0  0  0  0  0  0  0  0
   -0.2530  -52.1867  -20.5651 N   0  0  0  0  0  0  0  0  0  0  0  0
    0.1141  -53.3685  -21.2061 C   0  0  0  0  0  0  0  0  0  0  0  0
    0.6192  -54.2635  -20.4451 O   0  0  0  0  0  0  0  0  0  0  0  0
   -0.7105  -51.4051  -21.1283 H   0  0  0  0  0  0  0  0  0  0  0  0
    0.3532  -51.2409  -16.4734 C   0  0  0  0  0  0  0  0  0  0  0  0
    1.1420  -50.6861  -17.4555 C   0  0  0  0  0  0  0  0  0  0  0  0
    0.9180  -51.0031  -18.7855 C   0  0  0  0  0  0  0  0  0  0  0  0
   -0.1008  -51.8846  -19.1768 C   0  0  0  0  0  0  0  0  0  0  0  0
   -0.8631  -52.4189  -18.1957 C   0  0  0  0  0  0  0  0  0  0  0  0
   -0.6537  -52.1103  -16.8373 C   0  0  0  0  0  0  0  0  0  0  0  0
    2.9525  -52.2766  -12.9892 C   0  0  0  0  0  0  0  0  0  0  0  0
    2.0748  -51.1423  -12.8191 N   0  0  0  0  0  0  0  0  0  0  0  0
    0.6865  -51.5184  -12.7336 C   0  0  0  0  0  0  0  0  0  0  0  0
    0.1180  -51.9359  -14.0715 C   0  0  0  0  0  0  0  0  0  0  0  0
    0.5191  -50.9584  -15.0979 N   0  0  0  0  0  0  0  0  0  0  0  0
    1.0683  -49.7334  -14.5560 C   0  0  0  0  0  0  0  0  0  0  0  0
    2.3187  -50.1013  -13.7847 C   0  0  0  0  0  0  0  0  0  0  0  0
    1.8420  -52.2335  -23.2999 N   0  0  0  0  0  0  0  0  0  0  0  0
    2.8172  -52.6742  -23.1813 H   0  0  0  0  0  0  0  0  0  0  0  0
    1.8838  -50.7988  -23.1912 C   0  0  0  0  0  0  0  0  0  0  0  0
    2.5940  -50.2293  -22.0277 C   0  0  0  0  0  0  0  0  0  0  0  0
    2.9295  -48.8150  -22.0295 C   0  0  0  0  0  0  0  0  0  0  0  0
    3.0781  -48.1558  -23.2338 C   0  0  0  0  0  0  0  0  0  0  0  0
    3.4216  -46.8259  -23.2309 C   0  0  0  0  0  0  0  0  0  0  0  0
    3.6253  -46.1181  -22.0648 C   0  0  0  0  0  0  0  0  0  0  0  0
    3.4797  -46.7662  -20.8595 C   0  0  0  0  0  0  0  0  0  0  0  0
    3.1375  -48.0913  -20.8488 C   0  0  0  0  0  0  0  0  0  0  0  0
 19 20  1  0  0  0
 20 21  1  0  0  0
 21 22  1  0  0  0
 22 23  1  0  0  0
 23 24  1  0  0  0
 24 25  1  0  0  0
 23 13  1  0  0  0
 13 14  2  0  0  0
 14 15  1  0  0  0
 15 16  2  0  0  0
 16  9  1  0  0  0
  9 10  1  0  0  0
 10 11  2  0  0  0
 10  1  1  0  0  0
  1  2  2  0  0  0
  2 26  1  0  0  0
 26 28  1  0  0  0
 28 29  1  0  0  0
 29 30  1  0  0  0
 30 31  2  0  0  0
 31 32  1  0  0  0
 32 33  2  0  0  0
 33 34  1  0  0  0
 34 35  2  0  0  0
  2  3  1  0  0  0
  3  4  2  0  0  0
  4  5  1  0  0  0
  5  6  1  0  0  0
  6  7  2  0  0  0
 16 17  1  0  0  0
 17 18  2  0  0  0
 25 20  1  0  0  0
 18 13  1  0  0  0
  6  1  1  0  0  0
 35 30  1  0  0  0
  9 12  1  0  0  0
 26 27  1  0  0  0
  5  8  1  0  0  0
M  END
> <minimizedAffinity>
-6.95015

> <CNNscore>
0.6845505834

> <CNNaffinity>
6.8028230667

> <CNN_VS>
4.6568765640

> <CNNaffinity_variance>
0.2187620103

$$$$
[H]c1c([H])c([H])c(C([H])([H])C([H])([H])N([H])c2c([H])c([H])n([H])c(=O)c2C(=O)N([H])c2c([H])c([H])c(N3C([H])([H])C([H])([H])N(C([H])([H])[H])C([H])([H])C3([H])[H])c([H])c2[H])c([H])c1[H]


 35 38  0  0  0  0  0  0  0  0999 V2000
    0.0819  -53.3019  -21.6847 C   0  0  0  0  0  0  0  0  0  0  0  0
    0.4940  -53.1854  -23.0128 C   0  0  0  0  0  0  0  0  0  0  0  0
   -0.1393  -53.9483  -23.9589 C   0  0  0  0  0  0  0  0  0  0  0  0
   -1.1549  -54.8240  -23.6731 C   0  0  0  0  0  0  0  0  0  0  0  0
   -1.5375  -54.9279  -22.3967 N   0  0  0  0  0  0  0  0  0  0  0  0
   -0.9404  -54.1896  -21.4204 C   0  0  0  0  0  0  0  0  0  0  0  0
   -1.4251  -54.4086  -20.2642 O   0  0  0  0  0  0  0  0  0  0  0  0
   -2.3252  -55.6057  -22.1522 H   0  0  0  0  0  0  0  0  0  0  0  0
   -0.1160  -51.6261  -19.7885 N   0  0  0  0  0  0  0  0  0  0  0  0
    0.6020  -52.4620  -20.6418 C   0  0  0  0  0  0  0  0  0  0  0  0
    1.8671  -52.4687  -20.4559 O   0  0  0  0  0  0  0  0  0  0  0  0
   -1.1794  -51.5906  -19.8617 H   0  0  0  0  0  0  0  0  0  0  0  0
    1.3581  -49.1750  -16.6542 C   0  0  0  0  0  0  0  0  0  0  0  0
    0.5563  -50.2620  -16.3892 C   0  0  0  0  0  0  0  0  0  0  0  0
    0.0955  -51.0529  -17.4292 C   0  0  0  0  0  0  0  0  0  0  0  0
    0.4205  -50.7831  -18.7671 C   0  0  0  0  0  0  0  0  0  0  0  0
    1.2085  -49.7100  -19.0047 C   0  0  0  0  0  0  0  0  0  0  0  0
    1.6889  -48.8925  -17.9630 C   0  0  0  0  0  0  0  0  0  0  0  0
    3.3025  -45.1902  -16.0984 C   0  0  0  0  0  0  0  0  0  0  0  0
    2.8117  -45.8360  -14.9034 N   0  0  0  0  0  0  0  0  0  0  0  0
    3.5838  -46.9966  -14.5388 C   0  0  0  0  0  0  0  0  0  0  0  0
    3.3225  -48.1740  -15.4515 C   0  0  0  0  0  0  0  0  0  0  0  0
    1.8703  -48.3284  -15.6442 N   0  0  0  0  0  0  0  0  0  0  0  0
    1.0718  -47.5544  -14.7173 C   0  0  0  0  0  0  0  0  0  0  0  0
    1.3951  -46.0937  -14.9529 C   0  0  0  0  0  0  0  0  0  0  0  0
    1.6054  -52.4386  -23.4078 N   0  0  0  0  0  0  0  0  0  0  0  0
    2.5892  -52.8750  -23.3753 H   0  0  0  0  0  0  0  0  0  0  0  0
    1.6275  -51.1026  -23.9429 C   0  0  0  0  0  0  0  0  0  0  0  0
    1.8179  -50.9614  -25.4011 C   0  0  0  0  0  0  0  0  0  0  0  0
    0.9204  -51.6670  -26.3009 C   0  0  0  0  0  0  0  0  0  0  0  0
    1.4488  -52.4763  -27.2873 C   0  0  0  0  0  0  0  0  0  0  0  0
    0.5977  -53.1198  -28.1522 C   0  0  0  0  0  0  0  0  0  0  0  0
   -0.7730  -52.9888  -28.0739 C   0  0  0  0  0  0  0  0  0  0  0  0
   -1.3093  -52.1845  -27.0943 C   0  0  0  0  0  0  0  0  0  0  0  0
   -0.4720  -51.5379  -26.2262 C   0  0  0  0  0  0  0  0  0  0  0  0
 19 20  1  0  0  0
 20 21  1  0  0  0
 21 22  1  0  0  0
 22 23  1  0  0  0
 23 24  1  0  0  0
 24 25  1  0  0  0
 23 13  1  0  0  0
 13 14  2  0  0  0
 14 15  1  0  0  0
 15 16  2  0  0  0
 16  9  1  0  0  0
  9 10  1  0  0  0
 10 11  2  0  0  0
 10  1  1  0  0  0
  1  2  2  0  0  0
  2 26  1  0  0  0
 26 28  1  0  0  0
 28 29  1  0  0  0
 29 30  1  0  0  0
 30 31  2  0  0  0
 31 32  1  0  0  0
 32 33  2  0  0  0
 33 34  1  0  0  0
 34 35  2  0  0  0
  2  3  1  0  0  0
  3  4  2  0  0  0
  4  5  1  0  0  0
  5  6  1  0  0  0
  6  7  2  0  0  0
 16 17  1  0  0  0
 17 18  2  0  0  0
 25 20  1  0  0  0
 18 13  1  0  0  0
  6  1  1  0  0  0
 35 30  1  0  0  0
  9 12  1  0  0  0
 26 27  1  0  0  0
  5  8  1  0  0  0
M  END
> <minimizedAffinity>
-7.51520

> <CNNscore>
0.6757220626

> <CNNaffinity>
6.7891340256

> <CNN_VS>
4.5875678062

> <CNNaffinity_variance>
0.2245112211

$$$$
[H]c1c([H])c([H])c(C([H])([H])C([H])([H])N([H])c2c([H])c([H])n([H])c(=O)c2C(=O)N([H])c2c([H])c([H])c(N3C([H])([H])C([H])([H])N(C([H])([H])[H])C([H])([H])C3([H])[H])c([H])c2[H])c([H])c1[H]


 35 38  0  0  0  0  0  0  0  0999 V2000
    0.5026  -53.6919  -23.7099 C   0  0  0  0  0  0  0  0  0  0  0  0
    0.6487  -54.1309  -25.0264 C   0  0  0  0  0  0  0  0  0  0  0  0
   -0.2509  -55.0445  -25.5103 C   0  0  0  0  0  0  0  0  0  0  0  0
   -1.2867  -55.5553  -24.7712 C   0  0  0  0  0  0  0  0  0  0  0  0
   -1.4131  -55.1285  -23.5110 N   0  0  0  0  0  0  0  0  0  0  0  0
   -0.5455  -54.2200  -22.9850 C   0  0  0  0  0  0  0  0  0  0  0  0
   -0.8095  -53.9219  -21.7762 O   0  0  0  0  0  0  0  0  0  0  0  0
   -2.2116  -55.5154  -22.9174 H   0  0  0  0  0  0  0  0  0  0  0  0
    0.8961  -51.4947  -22.5013 N   0  0  0  0  0  0  0  0  0  0  0  0
    1.3211  -52.6523  -23.1508 C   0  0  0  0  0  0  0  0  0  0  0  0
    2.5893  -52.7853  -23.2466 O   0  0  0  0  0  0  0  0  0  0  0  0
   -0.1473  -51.3288  -22.3549 H   0  0  0  0  0  0  0  0  0  0  0  0
    3.2587  -48.4179  -20.7822 C   0  0  0  0  0  0  0  0  0  0  0  0
    2.4168  -49.1840  -20.0082 C   0  0  0  0  0  0  0  0  0  0  0  0
    1.6628  -50.1893  -20.5915 C   0  0  0  0  0  0  0  0  0  0  0  0
    1.7253  -50.4614  -21.9664 C   0  0  0  0  0  0  0  0  0  0  0  0
    2.5581  -49.6961  -22.7080 C   0  0  0  0  0  0  0  0  0  0  0  0
    3.3343  -48.6692  -22.1362 C   0  0  0  0  0  0  0  0  0  0  0  0
    3.7462  -45.9008  -17.1222 C   0  0  0  0  0  0  0  0  0  0  0  0
    4.8308  -45.8629  -18.0751 N   0  0  0  0  0  0  0  0  0  0  0  0
    4.4788  -45.1816  -19.2950 C   0  0  0  0  0  0  0  0  0  0  0  0
    3.5543  -46.0008  -20.1678 C   0  0  0  0  0  0  0  0  0  0  0  0
    4.0623  -47.3807  -20.2552 N   0  0  0  0  0  0  0  0  0  0  0  0
    5.4168  -47.5372  -19.7688 C   0  0  0  0  0  0  0  0  0  0  0  0
    5.4166  -47.1595  -18.3021 C   0  0  0  0  0  0  0  0  0  0  0  0
    1.7398  -53.7949  -25.8298 N   0  0  0  0  0  0  0  0  0  0  0  0
    2.3593  -54.5680  -26.2514 H   0  0  0  0  0  0  0  0  0  0  0  0
    2.1535  -52.4833  -26.2548 C   0  0  0  0  0  0  0  0  0  0  0  0
    1.0995  -51.4605  -26.4140 C   0  0  0  0  0  0  0  0  0  0  0  0
   -0.1670  -51.8411  -27.0174 C   0  0  0  0  0  0  0  0  0  0  0  0
   -1.3338  -51.6913  -26.2942 C   0  0  0  0  0  0  0  0  0  0  0  0
   -2.5251  -52.0774  -26.8585 C   0  0  0  0  0  0  0  0  0  0  0  0
   -2.6024  -52.6125  -28.1272 C   0  0  0  0  0  0  0  0  0  0  0  0
   -1.4451  -52.7659  -28.8559 C   0  0  0  0  0  0  0  0  0  0  0  0
   -0.2516  -52.3850  -28.3051 C   0  0  0  0  0  0  0  0  0  0  0  0
 19 20  1  0  0  0
 20 21  1  0  0  0
 21 22  1  0  0  0
 22 23  1  0  0  0
 23 24  1  0  0  0
 24 25  1  0  0  0
 23 13  1  0  0  0
 13 14  2  0  0  0
 14 15  1  0  0  0
 15 16  2  0  0  0
 16  9  1  0  0  0
  9 10  1  0  0  0
 10 11  2  0  0  0
 10  1  1  0  0  0
  1  2  2  0  0  0
  2 26  1  0  0  0
 26 28  1  0  0  0
 28 29  1  0  0  0
 29 30  1  0  0  0
 30 31  2  0  0  0
 31 32  1  0  0  0
 32 33  2  0  0  0
 33 34  1  0  0  0
 34 35  2  0  0  0
  2  3  1  0  0  0
  3  4  2  0  0  0
  4  5  1  0  0  0
  5  6  1  0  0  0
  6  7  2  0  0  0
 16 17  1  0  0  0
 17 18  2  0  0  0
 25 20  1  0  0  0
 18 13  1  0  0  0
  6  1  1  0  0  0
 35 30  1  0  0  0
  9 12  1  0  0  0
 26 27  1  0  0  0
  5  8  1  0  0  0
M  END
> <minimizedAffinity>
-6.15177

> <CNNscore>
0.6250529885

> <CNNaffinity>
6.9418549538

> <CNN_VS>
4.3390274048

> <CNNaffinity_variance>
0.3090368807

$$$$
[H]c1c([H])c([H])c(C([H])([H])C([H])([H])N([H])c2c([H])c([H])n([H])c(=O)c2C(=O)N([H])c2c([H])c([H])c(N3C([H])([H])C([H])([H])N(C([H])([H])[H])C([H])([H])C3([H])[H])c([H])c2[H])c([H])c1[H]


 35 38  0  0  0  0  0  0  0  0999 V2000
    0.0708  -53.3719  -22.2090 C   0  0  0  0  0  0  0  0  0  0  0  0
    0.7257  -52.7458  -23.2703 C   0  0  0  0  0  0  0  0  0  0  0  0
    0.3472  -53.0672  -24.5477 C   0  0  0  0  0  0  0  0  0  0  0  0
   -0.6383  -53.9738  -24.8424 C   0  0  0  0  0  0  0  0  0  0  0  0
   -1.2550  -54.5683  -23.8165 N   0  0  0  0  0  0  0  0  0  0  0  0
   -0.9161  -54.2810  -22.5291 C   0  0  0  0  0  0  0  0  0  0  0  0
   -1.6008  -54.9327  -21.6770 O   0  0  0  0  0  0  0  0  0  0  0  0
   -2.0239  -55.2792  -24.0240 H   0  0  0  0  0  0  0  0  0  0  0  0
   -0.0982  -51.8621  -20.1755 N   0  0  0  0  0  0  0  0  0  0  0  0
    0.3140  -53.0166  -20.8385 C   0  0  0  0  0  0  0  0  0  0  0  0
    0.9816  -53.8419  -20.1256 O   0  0  0  0  0  0  0  0  0  0  0  0
   -0.6867  -51.1406  -20.6957 H   0  0  0  0  0  0  0  0  0  0  0  0
    0.5363  -50.8707  -16.0989 C   0  0  0  0  0  0  0  0  0  0  0  0
   -0.5165  -51.6712  -16.4801 C   0  0  0  0  0  0  0  0  0  0  0  0
   -0.6969  -51.9888  -17.8165 C   0  0  0  0  0  0  0  0  0  0  0  0
    0.1683  -51.5167  -18.8148 C   0  0  0  0  0  0  0  0  0  0  0  0
    1.1953  -50.7311  -18.4183 C   0  0  0  0  0  0  0  0  0  0  0  0
    1.3982  -50.3959  -17.0653 C   0  0  0  0  0  0  0  0  0  0  0  0
    3.3149  -48.4166  -13.6038 C   0  0  0  0  0  0  0  0  0  0  0  0
    2.1194  -48.8949  -12.9496 N   0  0  0  0  0  0  0  0  0  0  0  0
    2.1328  -50.3195  -12.7341 C   0  0  0  0  0  0  0  0  0  0  0  0
    1.9145  -51.0988  -14.0118 C   0  0  0  0  0  0  0  0  0  0  0  0
    0.7862  -50.5112  -14.7544 N   0  0  0  0  0  0  0  0  0  0  0  0
   -0.0002  -49.5752  -13.9790 C   0  0  0  0  0  0  0  0  0  0  0  0
    0.9136  -48.4324  -13.5883 C   0  0  0  0  0  0  0  0  0  0  0  0
    1.8356  -51.9157  -23.1036 N   0  0  0  0  0  0  0  0  0  0  0  0
    2.6574  -52.2300  -22.4829 H   0  0  0  0  0  0  0  0  0  0  0  0
    2.0882  -50.6424  -23.7256 C   0  0  0  0  0  0  0  0  0  0  0  0
    2.8633  -50.6464  -24.9833 C   0  0  0  0  0  0  0  0  0  0  0  0
    3.3020  -49.3795  -25.5451 C   0  0  0  0  0  0  0  0  0  0  0  0
    3.4240  -48.2789  -24.7200 C   0  0  0  0  0  0  0  0  0  0  0  0
    3.8129  -47.0774  -25.2603 C   0  0  0  0  0  0  0  0  0  0  0  0
    4.0881  -46.9258  -26.6032 C   0  0  0  0  0  0  0  0  0  0  0  0
    3.9694  -48.0167  -27.4336 C   0  0  0  0  0  0  0  0  0  0  0  0
    3.5828  -49.2196  -26.9077 C   0  0  0  0  0  0  0  0  0  0  0  0
 19 20  1  0  0  0
 20 21  1  0  0  0
 21 22  1  0  0  0
 22 23  1  0  0  0
 23 24  1  0  0  0
 24 25  1  0  0  0
 23 13  1  0  0  0
 13 14  2  0  0  0
 14 15  1  0  0  0
 15 16  2  0  0  0
 16  9  1  0  0  0
  9 10  1  0  0  0
 10 11  2  0  0  0
 10  1  1  0  0  0
  1  2  2  0  0  0
  2 26  1  0  0  0
 26 28  1  0  0  0
 28 29  1  0  0  0
 29 30  1  0  0  0
 30 31  2  0  0  0
 31 32  1  0  0  0
 32 33  2  0  0  0
 33 34  1  0  0  0
 34 35  2  0  0  0
  2  3  1  0  0  0
  3  4  2  0  0  0
  4  5  1  0  0  0
  5  6  1  0  0  0
  6  7  2  0  0  0
 16 17  1  0  0  0
 17 18  2  0  0  0
 25 20  1  0  0  0
 18 13  1  0  0  0
  6  1  1  0  0  0
 35 30  1  0  0  0
  9 12  1  0  0  0
 26 27  1  0  0  0
  5  8  1  0  0  0
M  END
> <minimizedAffinity>
-6.76431

> <CNNscore>
0.6171464920

> <CNNaffinity>
6.5743126869

> <CNN_VS>
4.0573139191

> <CNNaffinity_variance>
0.2768420279

$$$$
[H]c1c([H])c([H])c(C([H])([H])C([H])([H])N([H])c2c([H])c([H])n([H])c(=O)c2C(=O)N([H])c2c([H])c([H])c(N3C([H])([H])C([H])([H])N(C([H])([H])[H])C([H])([H])C3([H])[H])c([H])c2[H])c([H])c1[H]


 35 38  0  0  0  0  0  0  0  0999 V2000
   -0.0682  -53.4723  -22.2667 C   0  0  0  0  0  0  0  0  0  0  0  0
    0.1140  -53.7063  -23.6303 C   0  0  0  0  0  0  0  0  0  0  0  0
   -0.6977  -54.6227  -24.2465 C   0  0  0  0  0  0  0  0  0  0  0  0
   -1.6786  -55.3266  -23.5966 C   0  0  0  0  0  0  0  0  0  0  0  0
   -1.8402  -55.0950  -22.2902 N   0  0  0  0  0  0  0  0  0  0  0  0
   -1.0597  -54.1926  -21.6334 C   0  0  0  0  0  0  0  0  0  0  0  0
   -1.3464  -54.0932  -20.3975 O   0  0  0  0  0  0  0  0  0  0  0  0
   -2.5969  -55.6342  -21.7648 H   0  0  0  0  0  0  0  0  0  0  0  0
    0.1223  -51.3394  -20.9039 N   0  0  0  0  0  0  0  0  0  0  0  0
    0.6512  -52.4499  -21.5592 C   0  0  0  0  0  0  0  0  0  0  0  0
    1.9249  -52.5523  -21.5104 O   0  0  0  0  0  0  0  0  0  0  0  0
   -0.9350  -51.2026  -20.8740 H   0  0  0  0  0  0  0  0  0  0  0  0
    2.3696  -48.2761  -19.0144 C   0  0  0  0  0  0  0  0  0  0  0  0
    2.1415  -48.2560  -20.3717 C   0  0  0  0  0  0  0  0  0  0  0  0
    1.3962  -49.2627  -20.9639 C   0  0  0  0  0  0  0  0  0  0  0  0
    0.8554  -50.3216  -20.2194 C   0  0  0  0  0  0  0  0  0  0  0  0
    1.0926  -50.3222  -18.8879 C   0  0  0  0  0  0  0  0  0  0  0  0
    1.8469  -49.3089  -18.2646 C   0  0  0  0  0  0  0  0  0  0  0  0
    6.5807  -47.0045  -18.2279 C   0  0  0  0  0  0  0  0  0  0  0  0
    5.5499  -46.0501  -17.8925 N   0  0  0  0  0  0  0  0  0  0  0  0
    4.7651  -46.4532  -16.7533 C   0  0  0  0  0  0  0  0  0  0  0  0
    3.8112  -47.5808  -17.0790 C   0  0  0  0  0  0  0  0  0  0  0  0
    3.1142  -47.2801  -18.3414 N   0  0  0  0  0  0  0  0  0  0  0  0
    3.2690  -45.9102  -18.7830 C   0  0  0  0  0  0  0  0  0  0  0  0
    4.7455  -45.6788  -19.0286 C   0  0  0  0  0  0  0  0  0  0  0  0
    1.1661  -53.1604  -24.3678 N   0  0  0  0  0  0  0  0  0  0  0  0
    2.0468  -53.7463  -24.5685 H   0  0  0  0  0  0  0  0  0  0  0  0
    1.2291  -51.8646  -24.9913 C   0  0  0  0  0  0  0  0  0  0  0  0
    0.0046  -51.3742  -25.6566 C   0  0  0  0  0  0  0  0  0  0  0  0
   -0.4163  -51.9923  -26.9031 C   0  0  0  0  0  0  0  0  0  0  0  0
    0.5392  -52.4582  -27.7845 C   0  0  0  0  0  0  0  0  0  0  0  0
    0.1374  -53.0171  -28.9731 C   0  0  0  0  0  0  0  0  0  0  0  0
   -1.1916  -53.1322  -29.3234 C   0  0  0  0  0  0  0  0  0  0  0  0
   -2.1514  -52.6708  -28.4517 C   0  0  0  0  0  0  0  0  0  0  0  0
   -1.7641  -52.1119  -27.2640 C   0  0  0  0  0  0  0  0  0  0  0  0
 19 20  1  0  0  0
 20 21  1  0  0  0
 21 22  1  0  0  0
 22 23  1  0  0  0
 23 24  1  0  0  0
 24 25  1  0  0  0
 23 13  1  0  0  0
 13 14  2  0  0  0
 14 15  1  0  0  0
 15 16  2  0  0  0
 16  9  1  0  0  0
  9 10  1  0  0  0
 10 11  2  0  0  0
 10  1  1  0  0  0
  1  2  2  0  0  0
  2 26  1  0  0  0
 26 28  1  0  0  0
 28 29  1  0  0  0
 29 30  1  0  0  0
 30 31  2  0  0  0
 31 32  1  0  0  0
 32 33  2  0  0  0
 33 34  1  0  0  0
 34 35  2  0  0  0
  2  3  1  0  0  0
  3  4  2  0  0  0
  4  5  1  0  0  0
  5  6  1  0  0  0
  6  7  2  0  0  0
 16 17  1  0  0  0
 17 18  2  0  0  0
 25 20  1  0  0  0
 18 13  1  0  0  0
  6  1  1  0  0  0
 35 30  1  0  0  0
  9 12  1  0  0  0
 26 27  1  0  0  0
  5  8  1  0  0  0
M  END
> <minimizedAffinity>
-7.31889

> <CNNscore>
0.6092220545

> <CNNaffinity>
6.7770538330

> <CNN_VS>
4.1287307739

> <CNNaffinity_variance>
0.1993170083

$$$$
[H]OC([H])([H])N(c1c(Br)c([H])c([H])c([H])c1N([H])c1nc([H])nc2c([H])c([H])nc([H])c12)C([H])([H])O[H]


 26 28  0  0  0  0  0  0  0  0999 V2000
    0.0100  -52.7594  -27.3072 C   0  0  0  0  0  0  0  0  0  0  0  0
   -0.9268  -52.5880  -28.3100 C   0  0  0  0  0  0  0  0  0  0  0  0
   -0.3269  -52.8815  -30.1063 Br  0  0  0  0  0  0  0  0  0  0  0  0
   -2.2324  -52.2255  -28.0704 C   0  0  0  0  0  0  0  0  0  0  0  0
   -2.6248  -52.0245  -26.7760 C   0  0  0  0  0  0  0  0  0  0  0  0
   -1.7144  -52.1857  -25.7295 C   0  0  0  0  0  0  0  0  0  0  0  0
   -0.4021  -52.5507  -25.9797 C   0  0  0  0  0  0  0  0  0  0  0  0
    0.5924  -52.7353  -24.9975 N   0  0  0  0  0  0  0  0  0  0  0  0
    1.3842  -53.3695  -25.2204 H   0  0  0  0  0  0  0  0  0  0  0  0
    0.6375  -52.1431  -23.7227 C   0  0  0  0  0  0  0  0  0  0  0  0
    1.2260  -50.9813  -23.4350 N   0  0  0  0  0  0  0  0  0  0  0  0
    1.2937  -50.3862  -22.2554 C   0  0  0  0  0  0  0  0  0  0  0  0
    0.7374  -50.9452  -21.1874 N   0  0  0  0  0  0  0  0  0  0  0  0
    0.1119  -52.1381  -21.3883 C   0  0  0  0  0  0  0  0  0  0  0  0
   -0.4728  -52.7266  -20.2694 C   0  0  0  0  0  0  0  0  0  0  0  0
   -1.1088  -53.9229  -20.4344 C   0  0  0  0  0  0  0  0  0  0  0  0
   -1.1709  -54.5161  -21.6343 N   0  0  0  0  0  0  0  0  0  0  0  0
   -0.6002  -53.9504  -22.7480 C   0  0  0  0  0  0  0  0  0  0  0  0
    0.0355  -52.7646  -22.6080 C   0  0  0  0  0  0  0  0  0  0  0  0
    1.3365  -53.1343  -27.6317 N   0  0  0  0  0  0  0  0  0  0  0  0
    3.3107  -52.0676  -28.4642 O   0  0  0  0  0  0  0  0  0  0  0  0
    2.3963  -52.1860  -27.4685 C   0  0  0  0  0  0  0  0  0  0  0  0
    4.1821  -52.4941  -28.3068 H   0  0  0  0  0  0  0  0  0  0  0  0
    1.6100  -54.4681  -28.0626 C   0  0  0  0  0  0  0  0  0  0  0  0
    2.5090  -54.6476  -29.0650 O   0  0  0  0  0  0  0  0  0  0  0  0
    2.9039  -53.8868  -29.4978 H   0  0  0  0  0  0  0  0  0  0  0  0
 21 22  1  0  0  0
 22 20  1  0  0  0
 20 24  1  0  0  0
 24 25  1  0  0  0
 20  1  1  0  0  0
  1  2  2  0  0  0
  2  3  1  0  0  0
  2  4  1  0  0  0
  4  5  2  0  0  0
  5  6  1  0  0  0
  6  7  2  0  0  0
  7  8  1  0  0  0
  8 10  1  0  0  0
 10 11  2  0  0  0
 11 12  1  0  0  0
 12 13  2  0  0  0
 13 14  1  0  0  0
 14 15  2  0  0  0
 15 16  1  0  0  0
 16 17  2  0  0  0
 17 18  1  0  0  0
 18 19  2  0  0  0
  7  1  1  0  0  0
 19 10  1  0  0  0
 19 14  1  0  0  0
 21 23  1  0  0  0
 25 26  1  0  0  0
  8  9  1  0  0  0
M  END
> <minimizedAffinity>
-7.35161

> <CNNscore>
0.9045137167

> <CNNaffinity>
7.0188417435

> <CNN_VS>
6.3486385345

> <CNNaffinity_variance>
0.0694860294

$$$$
[H]OC([H])([H])N(c1c(Br)c([H])c([H])c([H])c1N([H])c1nc([H])nc2c([H])c([H])nc([H])c12)C([H])([H])O[H]


 26 28  0  0  0  0  0  0  0  0999 V2000
    3.7131  -50.6041  -21.7803 C   0  0  0  0  0  0  0  0  0  0  0  0
    5.0881  -50.5864  -21.9271 C   0  0  0  0  0  0  0  0  0  0  0  0
    6.0750  -49.5428  -20.6584 Br  0  0  0  0  0  0  0  0  0  0  0  0
    5.7508  -51.2701  -22.9206 C   0  0  0  0  0  0  0  0  0  0  0  0
    5.0138  -52.0044  -23.8080 C   0  0  0  0  0  0  0  0  0  0  0  0
    3.6225  -52.0527  -23.7000 C   0  0  0  0  0  0  0  0  0  0  0  0
    2.9637  -51.3614  -22.6970 C   0  0  0  0  0  0  0  0  0  0  0  0
    1.5671  -51.3423  -22.5043 N   0  0  0  0  0  0  0  0  0  0  0  0
    1.0456  -50.4976  -22.8100 H   0  0  0  0  0  0  0  0  0  0  0  0
    0.7812  -52.3603  -21.9352 C   0  0  0  0  0  0  0  0  0  0  0  0
    0.5963  -52.5487  -20.6278 N   0  0  0  0  0  0  0  0  0  0  0  0
   -0.1317  -53.4886  -20.0474 C   0  0  0  0  0  0  0  0  0  0  0  0
   -0.7828  -54.3836  -20.7807 N   0  0  0  0  0  0  0  0  0  0  0  0
   -0.6509  -54.2672  -22.1311 C   0  0  0  0  0  0  0  0  0  0  0  0
   -1.3332  -55.2048  -22.9028 C   0  0  0  0  0  0  0  0  0  0  0  0
   -1.2236  -55.1178  -24.2604 C   0  0  0  0  0  0  0  0  0  0  0  0
   -0.4832  -54.1612  -24.8370 N   0  0  0  0  0  0  0  0  0  0  0  0
    0.1962  -53.2288  -24.0919 C   0  0  0  0  0  0  0  0  0  0  0  0
    0.1019  -53.2958  -22.7441 C   0  0  0  0  0  0  0  0  0  0  0  0
    3.1020  -49.8748  -20.7316 N   0  0  0  0  0  0  0  0  0  0  0  0
    3.1764  -51.7893  -19.2971 O   0  0  0  0  0  0  0  0  0  0  0  0
    3.0408  -50.4447  -19.4198 C   0  0  0  0  0  0  0  0  0  0  0  0
    2.3493  -52.2970  -19.1408 H   0  0  0  0  0  0  0  0  0  0  0  0
    2.6056  -48.5589  -20.9798 C   0  0  0  0  0  0  0  0  0  0  0  0
    1.4161  -48.4320  -21.6235 O   0  0  0  0  0  0  0  0  0  0  0  0
    0.9571  -49.2127  -21.9428 H   0  0  0  0  0  0  0  0  0  0  0  0
 21 22  1  0  0  0
 22 20  1  0  0  0
 20 24  1  0  0  0
 24 25  1  0  0  0
 20  1  1  0  0  0
  1  2  2  0  0  0
  2  3  1  0  0  0
  2  4  1  0  0  0
  4  5  2  0  0  0
  5  6  1  0  0  0
  6  7  2  0  0  0
  7  8  1  0  0  0
  8 10  1  0  0  0
 10 11  2  0  0  0
 11 12  1  0  0  0
 12 13  2  0  0  0
 13 14  1  0  0  0
 14 15  2  0  0  0
 15 16  1  0  0  0
 16 17  2  0  0  0
 17 18  1  0  0  0
 18 19  2  0  0  0
  7  1  1  0  0  0
 19 10  1  0  0  0
 19 14  1  0  0  0
 21 23  1  0  0  0
 25 26  1  0  0  0
  8  9  1  0  0  0
M  END
> <minimizedAffinity>
-6.16148

> <CNNscore>
0.5699090362

> <CNNaffinity>
6.1050319672

> <CNN_VS>
3.4793128967

> <CNNaffinity_variance>
0.0829601064

$$$$
[H]OC([H])([H])N(c1c(Br)c([H])c([H])c([H])c1N([H])c1nc([H])nc2c([H])c([H])nc([H])c12)C([H])([H])O[H]


 26 28  0  0  0  0  0  0  0  0999 V2000
    1.1509  -52.1311  -25.8774 C   0  0  0  0  0  0  0  0  0  0  0  0
    1.1966  -52.4917  -27.2117 C   0  0  0  0  0  0  0  0  0  0  0  0
    2.9364  -52.6641  -27.9967 Br  0  0  0  0  0  0  0  0  0  0  0  0
    0.0725  -52.7233  -27.9708 C   0  0  0  0  0  0  0  0  0  0  0  0
   -1.1522  -52.5908  -27.3770 C   0  0  0  0  0  0  0  0  0  0  0  0
   -1.2488  -52.2284  -26.0320 C   0  0  0  0  0  0  0  0  0  0  0  0
   -0.1121  -51.9971  -25.2754 C   0  0  0  0  0  0  0  0  0  0  0  0
   -0.1018  -51.6247  -23.9155 N   0  0  0  0  0  0  0  0  0  0  0  0
    0.0493  -50.6228  -23.6869 H   0  0  0  0  0  0  0  0  0  0  0  0
   -0.2796  -52.4735  -22.8083 C   0  0  0  0  0  0  0  0  0  0  0  0
   -0.6648  -53.7488  -22.8713 N   0  0  0  0  0  0  0  0  0  0  0  0
   -0.8447  -54.5838  -21.8610 C   0  0  0  0  0  0  0  0  0  0  0  0
   -0.6390  -54.1826  -20.6123 N   0  0  0  0  0  0  0  0  0  0  0  0
   -0.2420  -52.8897  -20.4523 C   0  0  0  0  0  0  0  0  0  0  0  0
   -0.0252  -52.4663  -19.1431 C   0  0  0  0  0  0  0  0  0  0  0  0
    0.3739  -51.1761  -18.9457 C   0  0  0  0  0  0  0  0  0  0  0  0
    0.5529  -50.3395  -19.9771 N   0  0  0  0  0  0  0  0  0  0  0  0
    0.3438  -50.7399  -21.2740 C   0  0  0  0  0  0  0  0  0  0  0  0
   -0.0522  -52.0146  -21.4935 C   0  0  0  0  0  0  0  0  0  0  0  0
    2.3519  -51.9097  -25.1605 N   0  0  0  0  0  0  0  0  0  0  0  0
    2.6918  -49.9691  -23.8015 O   0  0  0  0  0  0  0  0  0  0  0  0
    2.8442  -50.5744  -25.0064 C   0  0  0  0  0  0  0  0  0  0  0  0
    1.9719  -49.3029  -23.7378 H   0  0  0  0  0  0  0  0  0  0  0  0
    3.0268  -53.0115  -24.5522 C   0  0  0  0  0  0  0  0  0  0  0  0
    4.1540  -52.7589  -23.8374 O   0  0  0  0  0  0  0  0  0  0  0  0
    4.5047  -51.8661  -23.7934 H   0  0  0  0  0  0  0  0  0  0  0  0
 21 22  1  0  0  0
 22 20  1  0  0  0
 20 24  1  0  0  0
 24 25  1  0  0  0
 20  1  1  0  0  0
  1  2  2  0  0  0
  2  3  1  0  0  0
  2  4  1  0  0  0
  4  5  2  0  0  0
  5  6  1  0  0  0
  6  7  2  0  0  0
  7  8  1  0  0  0
  8 10  1  0  0  0
 10 11  2  0  0  0
 11 12  1  0  0  0
 12 13  2  0  0  0
 13 14  1  0  0  0
 14 15  2  0  0  0
 15 16  1  0  0  0
 16 17  2  0  0  0
 17 18  1  0  0  0
 18 19  2  0  0  0
  7  1  1  0  0  0
 19 10  1  0  0  0
 19 14  1  0  0  0
 21 23  1  0  0  0
 25 26  1  0  0  0
  8  9  1  0  0  0
M  END
> <minimizedAffinity>
-6.67791

> <CNNscore>
0.4973371923

> <CNNaffinity>
6.0368285179

> <CNN_VS>
3.0023393631

> <CNNaffinity_variance>
0.0800725967

$$$$
[H]OC([H])([H])N(c1c(Br)c([H])c([H])c([H])c1N([H])c1nc([H])nc2c([H])c([H])nc([H])c12)C([H])([H])O[H]


 26 28  0  0  0  0  0  0  0  0999 V2000
    0.2351  -52.8085  -27.1146 C   0  0  0  0  0  0  0  0  0  0  0  0
   -0.8008  -52.5586  -27.9961 C   0  0  0  0  0  0  0  0  0  0  0  0
   -0.4084  -52.7538  -29.8617 Br  0  0  0  0  0  0  0  0  0  0  0  0
   -2.0628  -52.1865  -27.5929 C   0  0  0  0  0  0  0  0  0  0  0  0
   -2.3062  -52.0571  -26.2536 C   0  0  0  0  0  0  0  0  0  0  0  0
   -1.2914  -52.2989  -25.3253 C   0  0  0  0  0  0  0  0  0  0  0  0
   -0.0241  -52.6729  -25.7399 C   0  0  0  0  0  0  0  0  0  0  0  0
    1.0667  -52.9358  -24.8860 N   0  0  0  0  0  0  0  0  0  0  0  0
    1.7423  -53.6710  -25.1725 H   0  0  0  0  0  0  0  0  0  0  0  0
    1.3526  -52.3001  -23.6646 C   0  0  0  0  0  0  0  0  0  0  0  0
    0.4419  -51.8659  -22.7922 N   0  0  0  0  0  0  0  0  0  0  0  0
    0.6621  -51.2647  -21.6344 C   0  0  0  0  0  0  0  0  0  0  0  0
    1.9026  -51.0310  -21.2234 N   0  0  0  0  0  0  0  0  0  0  0  0
    2.9004  -51.4422  -22.0540 C   0  0  0  0  0  0  0  0  0  0  0  0
    4.2030  -51.1985  -21.6248 C   0  0  0  0  0  0  0  0  0  0  0  0
    5.2281  -51.5978  -22.4326 C   0  0  0  0  0  0  0  0  0  0  0  0
    4.9927  -52.2059  -23.6033 N   0  0  0  0  0  0  0  0  0  0  0  0
    3.7152  -52.4541  -24.0420 C   0  0  0  0  0  0  0  0  0  0  0  0
    2.6834  -52.0670  -23.2576 C   0  0  0  0  0  0  0  0  0  0  0  0
    1.5082  -53.1882  -27.6050 N   0  0  0  0  0  0  0  0  0  0  0  0
    3.3844  -52.1152  -28.6332 O   0  0  0  0  0  0  0  0  0  0  0  0
    2.5944  -52.2582  -27.5392 C   0  0  0  0  0  0  0  0  0  0  0  0
    4.2618  -52.5568  -28.5964 H   0  0  0  0  0  0  0  0  0  0  0  0
    1.7084  -54.5104  -28.1062 C   0  0  0  0  0  0  0  0  0  0  0  0
    2.5110  -54.6718  -29.1902 O   0  0  0  0  0  0  0  0  0  0  0  0
    2.8858  -53.9041  -29.6288 H   0  0  0  0  0  0  0  0  0  0  0  0
 21 22  1  0  0  0
 22 20  1  0  0  0
 20 24  1  0  0  0
 24 25  1  0  0  0
 20  1  1  0  0  0
  1  2  2  0  0  0
  2  3  1  0  0  0
  2  4  1  0  0  0
  4  5  2  0  0  0
  5  6  1  0  0  0
  6  7  2  0  0  0
  7  8  1  0  0  0
  8 10  1  0  0  0
 10 11  2  0  0  0
 11 12  1  0  0  0
 12 13  2  0  0  0
 13 14  1  0  0  0
 14 15  2  0  0  0
 15 16  1  0  0  0
 16 17  2  0  0  0
 17 18  1  0  0  0
 18 19  2  0  0  0
  7  1  1  0  0  0
 19 10  1  0  0  0
 19 14  1  0  0  0
 21 23  1  0  0  0
 25 26  1  0  0  0
  8  9  1  0  0  0
M  END
> <minimizedAffinity>
-6.65919

> <CNNscore>
0.4908227921

> <CNNaffinity>
6.3415093422

> <CNN_VS>
3.1125574112

> <CNNaffinity_variance>
0.2003907412

$$$$
[H]OC([H])([H])N(c1c(Br)c([H])c([H])c([H])c1N([H])c1nc([H])nc2c([H])c([H])nc([H])c12)C([H])([H])O[H]


 26 28  0  0  0  0  0  0  0  0999 V2000
    1.2948  -52.1239  -25.6892 C   0  0  0  0  0  0  0  0  0  0  0  0
    2.5068  -51.9311  -26.3266 C   0  0  0  0  0  0  0  0  0  0  0  0
    2.7620  -52.8548  -27.9863 Br  0  0  0  0  0  0  0  0  0  0  0  0
    3.5039  -51.1252  -25.8266 C   0  0  0  0  0  0  0  0  0  0  0  0
    3.2865  -50.4818  -24.6397 C   0  0  0  0  0  0  0  0  0  0  0  0
    2.0782  -50.6455  -23.9592 C   0  0  0  0  0  0  0  0  0  0  0  0
    1.0802  -51.4587  -24.4697 C   0  0  0  0  0  0  0  0  0  0  0  0
   -0.1698  -51.6925  -23.8607 N   0  0  0  0  0  0  0  0  0  0  0  0
   -0.9849  -51.1435  -24.1971 H   0  0  0  0  0  0  0  0  0  0  0  0
   -0.4460  -52.6069  -22.8285 C   0  0  0  0  0  0  0  0  0  0  0  0
   -0.8891  -53.8527  -23.0032 N   0  0  0  0  0  0  0  0  0  0  0  0
   -1.1616  -54.7464  -22.0665 C   0  0  0  0  0  0  0  0  0  0  0  0
   -1.0017  -54.4458  -20.7834 N   0  0  0  0  0  0  0  0  0  0  0  0
   -0.5509  -53.1900  -20.5101 C   0  0  0  0  0  0  0  0  0  0  0  0
   -0.3820  -52.8721  -19.1646 C   0  0  0  0  0  0  0  0  0  0  0  0
    0.0688  -51.6218  -18.8542 C   0  0  0  0  0  0  0  0  0  0  0  0
    0.3416  -50.7249  -19.8118 N   0  0  0  0  0  0  0  0  0  0  0  0
    0.1808  -51.0211  -21.1431 C   0  0  0  0  0  0  0  0  0  0  0  0
   -0.2649  -52.2546  -21.4742 C   0  0  0  0  0  0  0  0  0  0  0  0
    0.3160  -52.9689  -26.2662 N   0  0  0  0  0  0  0  0  0  0  0  0
   -0.6271  -55.0562  -25.5717 O   0  0  0  0  0  0  0  0  0  0  0  0
    0.4261  -54.3870  -26.1049 C   0  0  0  0  0  0  0  0  0  0  0  0
   -0.5389  -55.3265  -24.6308 H   0  0  0  0  0  0  0  0  0  0  0  0
   -0.7982  -52.3964  -26.9522 C   0  0  0  0  0  0  0  0  0  0  0  0
   -2.0217  -52.4740  -26.3671 O   0  0  0  0  0  0  0  0  0  0  0  0
   -2.1288  -52.9485  -25.5392 H   0  0  0  0  0  0  0  0  0  0  0  0
 21 22  1  0  0  0
 22 20  1  0  0  0
 20 24  1  0  0  0
 24 25  1  0  0  0
 20  1  1  0  0  0
  1  2  2  0  0  0
  2  3  1  0  0  0
  2  4  1  0  0  0
  4  5  2  0  0  0
  5  6  1  0  0  0
  6  7  2  0  0  0
  7  8  1  0  0  0
  8 10  1  0  0  0
 10 11  2  0  0  0
 11 12  1  0  0  0
 12 13  2  0  0  0
 13 14  1  0  0  0
 14 15  2  0  0  0
 15 16  1  0  0  0
 16 17  2  0  0  0
 17 18  1  0  0  0
 18 19  2  0  0  0
  7  1  1  0  0  0
 19 10  1  0  0  0
 19 14  1  0  0  0
 21 23  1  0  0  0
 25 26  1  0  0  0
  8  9  1  0  0  0
M  END
> <minimizedAffinity>
-6.81048

> <CNNscore>
0.4269200861

> <CNNaffinity>
6.1269140244

> <CNN_VS>
2.6157026291

> <CNNaffinity_variance>
0.0149177192

$$$$
[H]OC([H])([H])N(c1c(Br)c([H])c([H])c([H])c1N([H])c1nc([H])nc2c([H])c([H])nc([H])c12)C([H])([H])O[H]


 26 28  0  0  0  0  0  0  0  0999 V2000
    3.1000  -51.1611  -23.3096 C   0  0  0  0  0  0  0  0  0  0  0  0
    4.0886  -51.4813  -24.2220 C   0  0  0  0  0  0  0  0  0  0  0  0
    5.7725  -50.5905  -24.0134 Br  0  0  0  0  0  0  0  0  0  0  0  0
    3.9108  -52.3880  -25.2417 C   0  0  0  0  0  0  0  0  0  0  0  0
    2.6959  -53.0043  -25.3598 C   0  0  0  0  0  0  0  0  0  0  0  0
    1.6667  -52.7134  -24.4620 C   0  0  0  0  0  0  0  0  0  0  0  0
    1.8544  -51.7994  -23.4386 C   0  0  0  0  0  0  0  0  0  0  0  0
    0.8817  -51.4343  -22.4853 N   0  0  0  0  0  0  0  0  0  0  0  0
    0.7183  -50.4218  -22.3207 H   0  0  0  0  0  0  0  0  0  0  0  0
    0.0876  -52.3039  -21.7167 C   0  0  0  0  0  0  0  0  0  0  0  0
   -0.5807  -53.3562  -22.1911 N   0  0  0  0  0  0  0  0  0  0  0  0
   -1.3376  -54.2003  -21.5092 C   0  0  0  0  0  0  0  0  0  0  0  0
   -1.5006  -54.0505  -20.2002 N   0  0  0  0  0  0  0  0  0  0  0  0
   -0.8524  -52.9980  -19.6285 C   0  0  0  0  0  0  0  0  0  0  0  0
   -1.0215  -52.8389  -18.2551 C   0  0  0  0  0  0  0  0  0  0  0  0
   -0.3857  -51.7943  -17.6490 C   0  0  0  0  0  0  0  0  0  0  0  0
    0.3785  -50.9457  -18.3502 N   0  0  0  0  0  0  0  0  0  0  0  0
    0.5562  -51.0875  -19.7046 C   0  0  0  0  0  0  0  0  0  0  0  0
   -0.0644  -52.1160  -20.3265 C   0  0  0  0  0  0  0  0  0  0  0  0
    3.3578  -50.2174  -22.2857 N   0  0  0  0  0  0  0  0  0  0  0  0
    1.7028  -48.5168  -21.9736 O   0  0  0  0  0  0  0  0  0  0  0  0
    2.9250  -48.8629  -22.4509 C   0  0  0  0  0  0  0  0  0  0  0  0
    0.9861  -48.4249  -22.6400 H   0  0  0  0  0  0  0  0  0  0  0  0
    3.9944  -50.6384  -21.0786 C   0  0  0  0  0  0  0  0  0  0  0  0
    3.6641  -51.8532  -20.5682 O   0  0  0  0  0  0  0  0  0  0  0  0
    2.9821  -52.3818  -20.9897 H   0  0  0  0  0  0  0  0  0  0  0  0
 21 22  1  0  0  0
 22 20  1  0  0  0
 20 24  1  0  0  0
 24 25  1  0  0  0
 20  1  1  0  0  0
  1  2  2  0  0  0
  2  3  1  0  0  0
  2  4  1  0  0  0
  4  5  2  0  0  0
  5  6  1  0  0  0
  6  7  2  0  0  0
  7  8  1  0  0  0
  8 10  1  0  0  0
 10 11  2  0  0  0
 11 12  1  0  0  0
 12 13  2  0  0  0
 13 14  1  0  0  0
 14 15  2  0  0  0
 15 16  1  0  0  0
 16 17  2  0  0  0
 17 18  1  0  0  0
 18 19  2  0  0  0
  7  1  1  0  0  0
 19 10  1  0  0  0
 19 14  1  0  0  0
 21 23  1  0  0  0
 25 26  1  0  0  0
  8  9  1  0  0  0
M  END
> <minimizedAffinity>
-6.10414

> <CNNscore>
0.4110772908

> <CNNaffinity>
5.7988624573

> <CNN_VS>
2.3837807178

> <CNNaffinity_variance>
0.1113778725

$$$$
[H]OC([H])([H])N(c1c(Br)c([H])c([H])c([H])c1N([H])c1nc([H])nc2c([H])c([H])nc([H])c12)C([H])([H])O[H]


 26 28  0  0  0  0  0  0  0  0999 V2000
    0.8014  -51.8603  -21.9908 C   0  0  0  0  0  0  0  0  0  0  0  0
    0.8198  -52.6425  -20.8504 C   0  0  0  0  0  0  0  0  0  0  0  0
    1.7830  -51.9475  -19.3464 Br  0  0  0  0  0  0  0  0  0  0  0  0
    0.1910  -53.8632  -20.7612 C   0  0  0  0  0  0  0  0  0  0  0  0
   -0.4868  -54.3273  -21.8544 C   0  0  0  0  0  0  0  0  0  0  0  0
   -0.5334  -53.5729  -23.0285 C   0  0  0  0  0  0  0  0  0  0  0  0
    0.1024  -52.3453  -23.1096 C   0  0  0  0  0  0  0  0  0  0  0  0
    0.1183  -51.5108  -24.2459 N   0  0  0  0  0  0  0  0  0  0  0  0
   -0.1940  -50.5268  -24.1309 H   0  0  0  0  0  0  0  0  0  0  0  0
    0.5205  -51.8655  -25.5460 C   0  0  0  0  0  0  0  0  0  0  0  0
    1.7847  -51.9723  -25.9574 N   0  0  0  0  0  0  0  0  0  0  0  0
    2.2104  -52.3022  -27.1659 C   0  0  0  0  0  0  0  0  0  0  0  0
    1.3429  -52.5724  -28.1338 N   0  0  0  0  0  0  0  0  0  0  0  0
    0.0246  -52.4879  -27.8027 C   0  0  0  0  0  0  0  0  0  0  0  0
   -0.8876  -52.7712  -28.8164 C   0  0  0  0  0  0  0  0  0  0  0  0
   -2.2177  -52.6965  -28.5195 C   0  0  0  0  0  0  0  0  0  0  0  0
   -2.6369  -52.3613  -27.2917 N   0  0  0  0  0  0  0  0  0  0  0  0
   -1.7518  -52.0787  -26.2804 C   0  0  0  0  0  0  0  0  0  0  0  0
   -0.4283  -52.1465  -26.5519 C   0  0  0  0  0  0  0  0  0  0  0  0
    1.4724  -50.6134  -22.0070 N   0  0  0  0  0  0  0  0  0  0  0  0
    2.7761  -49.8346  -23.8570 O   0  0  0  0  0  0  0  0  0  0  0  0
    2.7332  -50.5006  -22.6755 C   0  0  0  0  0  0  0  0  0  0  0  0
    2.8285  -50.3892  -24.6668 H   0  0  0  0  0  0  0  0  0  0  0  0
    0.8592  -49.4715  -21.4073 C   0  0  0  0  0  0  0  0  0  0  0  0
    1.4320  -48.2560  -21.6064 O   0  0  0  0  0  0  0  0  0  0  0  0
    2.2551  -48.1874  -22.0963 H   0  0  0  0  0  0  0  0  0  0  0  0
 21 22  1  0  0  0
 22 20  1  0  0  0
 20 24  1  0  0  0
 24 25  1  0  0  0
 20  1  1  0  0  0
  1  2  2  0  0  0
  2  3  1  0  0  0
  2  4  1  0  0  0
  4  5  2  0  0  0
  5  6  1  0  0  0
  6  7  2  0  0  0
  7  8  1  0  0  0
  8 10  1  0  0  0
 10 11  2  0  0  0
 11 12  1  0  0  0
 12 13  2  0  0  0
 13 14  1  0  0  0
 14 15  2  0  0  0
 15 16  1  0  0  0
 16 17  2  0  0  0
 17 18  1  0  0  0
 18 19  2  0  0  0
  7  1  1  0  0  0
 19 10  1  0  0  0
 19 14  1  0  0  0
 21 23  1  0  0  0
 25 26  1  0  0  0
  8  9  1  0  0  0
M  END
> <minimizedAffinity>
-7.23782

> <CNNscore>
0.3911618292

> <CNNaffinity>
6.1743788719

> <CNN_VS>
2.4151813984

> <CNNaffinity_variance>
0.0770265162

$$$$
[H]OC([H])([H])N(c1c(Br)c([H])c([H])c([H])c1N([H])c1nc([H])nc2c([H])c([H])nc([H])c12)C([H])([H])O[H]


 26 28  0  0  0  0  0  0  0  0999 V2000
    0.0163  -53.0060  -26.9613 C   0  0  0  0  0  0  0  0  0  0  0  0
   -0.9535  -52.5684  -27.8447 C   0  0  0  0  0  0  0  0  0  0  0  0
   -0.6291  -52.8894  -29.7061 Br  0  0  0  0  0  0  0  0  0  0  0  0
   -2.1062  -51.9310  -27.4465 C   0  0  0  0  0  0  0  0  0  0  0  0
   -2.3039  -51.7190  -26.1101 C   0  0  0  0  0  0  0  0  0  0  0  0
   -1.3526  -52.1431  -25.1800 C   0  0  0  0  0  0  0  0  0  0  0  0
   -0.1953  -52.7838  -25.5897 C   0  0  0  0  0  0  0  0  0  0  0  0
    0.8252  -53.2463  -24.7337 N   0  0  0  0  0  0  0  0  0  0  0  0
    0.9752  -54.2719  -24.6656 H   0  0  0  0  0  0  0  0  0  0  0  0
    1.6847  -52.4598  -23.9459 C   0  0  0  0  0  0  0  0  0  0  0  0
    2.7197  -51.7554  -24.4059 N   0  0  0  0  0  0  0  0  0  0  0  0
    3.5532  -51.0032  -23.7060 C   0  0  0  0  0  0  0  0  0  0  0  0
    3.4097  -50.8847  -22.3915 N   0  0  0  0  0  0  0  0  0  0  0  0
    2.3748  -51.5721  -21.8337 C   0  0  0  0  0  0  0  0  0  0  0  0
    2.2219  -51.4492  -20.4547 C   0  0  0  0  0  0  0  0  0  0  0  0
    1.1945  -52.1245  -19.8621 C   0  0  0  0  0  0  0  0  0  0  0  0
    0.3565  -52.8834  -20.5816 N   0  0  0  0  0  0  0  0  0  0  0  0
    0.4924  -53.0160  -21.9417 C   0  0  0  0  0  0  0  0  0  0  0  0
    1.5038  -52.3556  -22.5504 C   0  0  0  0  0  0  0  0  0  0  0  0
    1.1773  -53.6555  -27.4467 N   0  0  0  0  0  0  0  0  0  0  0  0
    0.4644  -55.8447  -26.7926 O   0  0  0  0  0  0  0  0  0  0  0  0
    1.1529  -55.0695  -27.6682 C   0  0  0  0  0  0  0  0  0  0  0  0
    1.0018  -56.3420  -26.1369 H   0  0  0  0  0  0  0  0  0  0  0  0
    2.3387  -52.8868  -27.7631 C   0  0  0  0  0  0  0  0  0  0  0  0
    3.4969  -53.1766  -27.1153 O   0  0  0  0  0  0  0  0  0  0  0  0
    3.5082  -53.8480  -26.4288 H   0  0  0  0  0  0  0  0  0  0  0  0
 21 22  1  0  0  0
 22 20  1  0  0  0
 20 24  1  0  0  0
 24 25  1  0  0  0
 20  1  1  0  0  0
  1  2  2  0  0  0
  2  3  1  0  0  0
  2  4  1  0  0  0
  4  5  2  0  0  0
  5  6  1  0  0  0
  6  7  2  0  0  0
  7  8  1  0  0  0
  8 10  1  0  0  0
 10 11  2  0  0  0
 11 12  1  0  0  0
 12 13  2  0  0  0
 13 14  1  0  0  0
 14 15  2  0  0  0
 15 16  1  0  0  0
 16 17  2  0  0  0
 17 18  1  0  0  0
 18 19  2  0  0  0
  7  1  1  0  0  0
 19 10  1  0  0  0
 19 14  1  0  0  0
 21 23  1  0  0  0
 25 26  1  0  0  0
  8  9  1  0  0  0
M  END
> <minimizedAffinity>
-5.96524

> <CNNscore>
0.3548521101

> <CNNaffinity>
6.1230764389

> <CNN_VS>
2.1727867126

> <CNNaffinity_variance>
0.0638736710

$$$$
[H]OC([H])([H])N(c1c(Br)c([H])c([H])c([H])c1N([H])c1nc([H])nc2c([H])c([H])nc([H])c12)C([H])([H])O[H]


 26 28  0  0  0  0  0  0  0  0999 V2000
    1.5157  -51.9880  -25.4866 C   0  0  0  0  0  0  0  0  0  0  0  0
    1.3506  -52.4562  -26.7774 C   0  0  0  0  0  0  0  0  0  0  0  0
    2.9455  -52.7219  -27.8063 Br  0  0  0  0  0  0  0  0  0  0  0  0
    0.1206  -52.7290  -27.3308 C   0  0  0  0  0  0  0  0  0  0  0  0
   -0.9955  -52.5276  -26.5669 C   0  0  0  0  0  0  0  0  0  0  0  0
   -0.8791  -52.0559  -25.2578 C   0  0  0  0  0  0  0  0  0  0  0  0
    0.3629  -51.7838  -24.7088 C   0  0  0  0  0  0  0  0  0  0  0  0
    0.5874  -51.3027  -23.4026 N   0  0  0  0  0  0  0  0  0  0  0  0
    0.9237  -50.3258  -23.2954 H   0  0  0  0  0  0  0  0  0  0  0  0
    0.4010  -52.0093  -22.2010 C   0  0  0  0  0  0  0  0  0  0  0  0
    0.0819  -53.3011  -22.1104 N   0  0  0  0  0  0  0  0  0  0  0  0
   -0.1028  -54.0068  -21.0066 C   0  0  0  0  0  0  0  0  0  0  0  0
    0.0258  -53.4366  -19.8147 N   0  0  0  0  0  0  0  0  0  0  0  0
    0.3514  -52.1142  -19.8110 C   0  0  0  0  0  0  0  0  0  0  0  0
    0.4873  -51.5136  -18.5616 C   0  0  0  0  0  0  0  0  0  0  0  0
    0.8134  -50.1889  -18.5205 C   0  0  0  0  0  0  0  0  0  0  0  0
    0.9981  -49.4844  -19.6454 N   0  0  0  0  0  0  0  0  0  0  0  0
    0.8682  -50.0602  -20.8854 C   0  0  0  0  0  0  0  0  0  0  0  0
    0.5455  -51.3722  -20.9503 C   0  0  0  0  0  0  0  0  0  0  0  0
    2.8150  -51.7301  -24.9860 N   0  0  0  0  0  0  0  0  0  0  0  0
    4.8871  -52.6012  -24.1637 O   0  0  0  0  0  0  0  0  0  0  0  0
    3.5620  -52.7929  -24.3847 C   0  0  0  0  0  0  0  0  0  0  0  0
    5.5006  -53.0394  -24.7943 H   0  0  0  0  0  0  0  0  0  0  0  0
    3.3868  -50.4302  -25.1371 C   0  0  0  0  0  0  0  0  0  0  0  0
    3.0954  -49.4877  -24.2033 O   0  0  0  0  0  0  0  0  0  0  0  0
    2.4794  -49.6884  -23.4944 H   0  0  0  0  0  0  0  0  0  0  0  0
 21 22  1  0  0  0
 22 20  1  0  0  0
 20 24  1  0  0  0
 24 25  1  0  0  0
 20  1  1  0  0  0
  1  2  2  0  0  0
  2  3  1  0  0  0
  2  4  1  0  0  0
  4  5  2  0  0  0
  5  6  1  0  0  0
  6  7  2  0  0  0
  7  8  1  0  0  0
  8 10  1  0  0  0
 10 11  2  0  0  0
 11 12  1  0  0  0
 12 13  2  0  0  0
 13 14  1  0  0  0
 14 15  2  0  0  0
 15 16  1  0  0  0
 16 17  2  0  0  0
 17 18  1  0  0  0
 18 19  2  0  0  0
  7  1  1  0  0  0
 19 10  1  0  0  0
 19 14  1  0  0  0
 21 23  1  0  0  0
 25 26  1  0  0  0
  8  9  1  0  0  0
M  END
> <minimizedAffinity>
-6.22542

> <CNNscore>
0.3015187979

> <CNNaffinity>
5.7392029762

> <CNN_VS>
1.7304775715

> <CNNaffinity_variance>
0.2049595565

$$$$
[H]c1nc(N([H])c2c([H])c([H])c([H])c(Cl)c2[H])c2c([H])c(N([H])C(=O)N(C([H])([H])[H])C([H])([H])C([H])([H])Cl)c([H])c([H])c2n1


 28 30  0  0  0  0  0  0  0  0999 V2000
    0.5200  -51.7360  -20.5858 C   0  0  0  0  0  0  0  0  0  0  0  0
   -0.2809  -52.4431  -19.7395 C   0  0  0  0  0  0  0  0  0  0  0  0
   -1.0511  -53.5341  -20.1488 C   0  0  0  0  0  0  0  0  0  0  0  0
   -0.9913  -53.9033  -21.4641 C   0  0  0  0  0  0  0  0  0  0  0  0
   -1.7032  -54.9481  -21.9389 N   0  0  0  0  0  0  0  0  0  0  0  0
   -1.6571  -55.3251  -23.2169 C   0  0  0  0  0  0  0  0  0  0  0  0
   -0.8826  -54.6534  -24.0693 N   0  0  0  0  0  0  0  0  0  0  0  0
   -0.1271  -53.5973  -23.7208 C   0  0  0  0  0  0  0  0  0  0  0  0
   -0.1841  -53.2130  -22.3800 C   0  0  0  0  0  0  0  0  0  0  0  0
    0.5453  -52.1621  -21.9410 C   0  0  0  0  0  0  0  0  0  0  0  0
    2.6004  -48.1616  -19.6461 C   0  0  0  0  0  0  0  0  0  0  0  0
    3.2895  -49.4107  -19.3769 N   0  0  0  0  0  0  0  0  0  0  0  0
    2.5872  -50.6437  -19.6826 C   0  0  0  0  0  0  0  0  0  0  0  0
    3.1536  -51.7342  -19.4415 O   0  0  0  0  0  0  0  0  0  0  0  0
    1.2986  -50.6152  -20.2376 N   0  0  0  0  0  0  0  0  0  0  0  0
    0.8844  -49.6514  -20.4093 H   0  0  0  0  0  0  0  0  0  0  0  0
    4.6099  -49.4898  -18.8476 C   0  0  0  0  0  0  0  0  0  0  0  0
    5.7165  -49.0996  -19.7613 C   0  0  0  0  0  0  0  0  0  0  0  0
    5.9157  -50.2597  -21.0717 Cl  0  0  0  0  0  0  0  0  0  0  0  0
    0.6548  -52.8732  -24.6366 N   0  0  0  0  0  0  0  0  0  0  0  0
    1.5150  -52.3283  -24.3537 H   0  0  0  0  0  0  0  0  0  0  0  0
    0.2931  -52.8517  -26.0131 C   0  0  0  0  0  0  0  0  0  0  0  0
    1.3246  -53.0540  -26.9447 C   0  0  0  0  0  0  0  0  0  0  0  0
    1.1011  -53.0885  -28.2982 C   0  0  0  0  0  0  0  0  0  0  0  0
   -0.1655  -52.9236  -28.8118 C   0  0  0  0  0  0  0  0  0  0  0  0
   -1.1834  -52.7261  -27.9229 C   0  0  0  0  0  0  0  0  0  0  0  0
   -2.8053  -52.5114  -28.5080 Cl  0  0  0  0  0  0  0  0  0  0  0  0
   -0.9520  -52.6919  -26.5421 C   0  0  0  0  0  0  0  0  0  0  0  0
 11 12  1  0  0  0
 12 17  1  0  0  0
 17 18  1  0  0  0
 18 19  1  0  0  0
 12 13  1  0  0  0
 13 14  2  0  0  0
 13 15  1  0  0  0
 15  1  1  0  0  0
  1  2  2  0  0  0
  2  3  1  0  0  0
  3  4  2  0  0  0
  4  5  1  0  0  0
  5  6  2  0  0  0
  6  7  1  0  0  0
  7  8  2  0  0  0
  8 20  1  0  0  0
 20 22  1  0  0  0
 22 23  2  0  0  0
 23 24  1  0  0  0
 24 25  2  0  0  0
 25 26  1  0  0  0
 26 27  1  0  0  0
 26 28  2  0  0  0
  8  9  1  0  0  0
  9 10  2  0  0  0
 10  1  1  0  0  0
  9  4  1  0  0  0
 28 22  1  0  0  0
 15 16  1  0  0  0
 20 21  1  0  0  0
M  END
> <minimizedAffinity>
-8.23888

> <CNNscore>
0.9746623635

> <CNNaffinity>
7.3227257729

> <CNN_VS>
7.1371850967

> <CNNaffinity_variance>
0.0770061016

$$$$
[H]c1nc(N([H])c2c([H])c([H])c([H])c(Cl)c2[H])c2c([H])c(N([H])C(=O)N(C([H])([H])[H])C([H])([H])C([H])([H])Cl)c([H])c([H])c2n1


 28 30  0  0  0  0  0  0  0  0999 V2000
    1.7549  -51.1153  -23.2250 C   0  0  0  0  0  0  0  0  0  0  0  0
    1.1140  -51.2919  -24.4149 C   0  0  0  0  0  0  0  0  0  0  0  0
    0.1309  -52.2634  -24.6168 C   0  0  0  0  0  0  0  0  0  0  0  0
   -0.1979  -53.0709  -23.5635 C   0  0  0  0  0  0  0  0  0  0  0  0
   -1.1395  -54.0325  -23.6760 N   0  0  0  0  0  0  0  0  0  0  0  0
   -1.4758  -54.8286  -22.6607 C   0  0  0  0  0  0  0  0  0  0  0  0
   -0.8670  -54.6802  -21.4840 N   0  0  0  0  0  0  0  0  0  0  0  0
    0.0852  -53.7616  -21.2449 C   0  0  0  0  0  0  0  0  0  0  0  0
    0.4278  -52.9344  -22.3158 C   0  0  0  0  0  0  0  0  0  0  0  0
    1.3747  -51.9807  -22.1641 C   0  0  0  0  0  0  0  0  0  0  0  0
    5.0285  -48.4882  -22.6168 C   0  0  0  0  0  0  0  0  0  0  0  0
    3.7432  -48.0661  -22.0901 N   0  0  0  0  0  0  0  0  0  0  0  0
    2.6099  -48.9487  -22.2993 C   0  0  0  0  0  0  0  0  0  0  0  0
    1.4869  -48.5976  -21.8706 O   0  0  0  0  0  0  0  0  0  0  0  0
    2.7688  -50.1719  -22.9685 N   0  0  0  0  0  0  0  0  0  0  0  0
    3.7516  -50.3968  -23.3053 H   0  0  0  0  0  0  0  0  0  0  0  0
    3.5400  -46.8513  -21.3741 C   0  0  0  0  0  0  0  0  0  0  0  0
    3.2610  -46.9766  -19.9187 C   0  0  0  0  0  0  0  0  0  0  0  0
    4.1748  -48.2967  -19.1942 Cl  0  0  0  0  0  0  0  0  0  0  0  0
    0.7475  -53.6409  -20.0114 N   0  0  0  0  0  0  0  0  0  0  0  0
    1.6268  -54.1778  -19.7759 H   0  0  0  0  0  0  0  0  0  0  0  0
    0.2307  -52.7667  -19.0141 C   0  0  0  0  0  0  0  0  0  0  0  0
   -0.8912  -53.2131  -18.2967 C   0  0  0  0  0  0  0  0  0  0  0  0
   -1.4634  -52.4788  -17.2885 C   0  0  0  0  0  0  0  0  0  0  0  0
   -0.9546  -51.2510  -16.9294 C   0  0  0  0  0  0  0  0  0  0  0  0
    0.1369  -50.7983  -17.6141 C   0  0  0  0  0  0  0  0  0  0  0  0
    0.8266  -49.2559  -17.2086 Cl  0  0  0  0  0  0  0  0  0  0  0  0
    0.7188  -51.5505  -18.6423 C   0  0  0  0  0  0  0  0  0  0  0  0
 11 12  1  0  0  0
 12 17  1  0  0  0
 17 18  1  0  0  0
 18 19  1  0  0  0
 12 13  1  0  0  0
 13 14  2  0  0  0
 13 15  1  0  0  0
 15  1  1  0  0  0
  1  2  2  0  0  0
  2  3  1  0  0  0
  3  4  2  0  0  0
  4  5  1  0  0  0
  5  6  2  0  0  0
  6  7  1  0  0  0
  7  8  2  0  0  0
  8 20  1  0  0  0
 20 22  1  0  0  0
 22 23  2  0  0  0
 23 24  1  0  0  0
 24 25  2  0  0  0
 25 26  1  0  0  0
 26 27  1  0  0  0
 26 28  2  0  0  0
  8  9  1  0  0  0
  9 10  2  0  0  0
 10  1  1  0  0  0
  9  4  1  0  0  0
 28 22  1  0  0  0
 15 16  1  0  0  0
 20 21  1  0  0  0
M  END
> <minimizedAffinity>
-6.29125

> <CNNscore>
0.6784780622

> <CNNaffinity>
6.5534758568

> <CNN_VS>
4.4463896751

> <CNNaffinity_variance>
0.2090575695

$$$$
[H]c1nc(N([H])c2c([H])c([H])c([H])c(Cl)c2[H])c2c([H])c(N([H])C(=O)N(C([H])([H])[H])C([H])([H])C([H])([H])Cl)c([H])c([H])c2n1


 28 30  0  0  0  0  0  0  0  0999 V2000
    0.7963  -51.8648  -20.9026 C   0  0  0  0  0  0  0  0  0  0  0  0
    0.5740  -52.9422  -20.0981 C   0  0  0  0  0  0  0  0  0  0  0  0
   -0.0317  -54.1185  -20.5457 C   0  0  0  0  0  0  0  0  0  0  0  0
   -0.4161  -54.1827  -21.8564 C   0  0  0  0  0  0  0  0  0  0  0  0
   -1.0060  -55.2848  -22.3677 N   0  0  0  0  0  0  0  0  0  0  0  0
   -1.3861  -55.3679  -23.6430 C   0  0  0  0  0  0  0  0  0  0  0  0
   -1.1819  -54.3306  -24.4551 N   0  0  0  0  0  0  0  0  0  0  0  0
   -0.6056  -53.1793  -24.0678 C   0  0  0  0  0  0  0  0  0  0  0  0
   -0.2120  -53.1052  -22.7306 C   0  0  0  0  0  0  0  0  0  0  0  0
    0.3780  -51.9849  -22.2552 C   0  0  0  0  0  0  0  0  0  0  0  0
    2.3073  -48.0331  -19.8914 C   0  0  0  0  0  0  0  0  0  0  0  0
    2.9978  -49.1791  -19.3280 N   0  0  0  0  0  0  0  0  0  0  0  0
    2.4868  -50.4977  -19.6553 C   0  0  0  0  0  0  0  0  0  0  0  0
    3.0540  -51.5012  -19.1661 O   0  0  0  0  0  0  0  0  0  0  0  0
    1.3787  -50.6460  -20.5036 N   0  0  0  0  0  0  0  0  0  0  0  0
    0.9504  -49.7470  -20.8754 H   0  0  0  0  0  0  0  0  0  0  0  0
    4.1467  -49.0801  -18.4913 C   0  0  0  0  0  0  0  0  0  0  0  0
    3.9288  -48.5339  -17.1253 C   0  0  0  0  0  0  0  0  0  0  0  0
    3.0987  -49.6910  -16.0886 Cl  0  0  0  0  0  0  0  0  0  0  0  0
   -0.4315  -52.0784  -24.9235 N   0  0  0  0  0  0  0  0  0  0  0  0
   -1.1620  -51.3247  -25.0468 H   0  0  0  0  0  0  0  0  0  0  0  0
    0.7714  -51.9492  -25.6735 C   0  0  0  0  0  0  0  0  0  0  0  0
    1.0730  -52.9836  -26.5745 C   0  0  0  0  0  0  0  0  0  0  0  0
    2.1848  -52.9619  -27.3785 C   0  0  0  0  0  0  0  0  0  0  0  0
    3.0690  -51.9075  -27.3370 C   0  0  0  0  0  0  0  0  0  0  0  0
    2.7940  -50.8905  -26.4680 C   0  0  0  0  0  0  0  0  0  0  0  0
    3.8711  -49.5308  -26.3683 Cl  0  0  0  0  0  0  0  0  0  0  0  0
    1.6581  -50.9155  -25.6491 C   0  0  0  0  0  0  0  0  0  0  0  0
 11 12  1  0  0  0
 12 17  1  0  0  0
 17 18  1  0  0  0
 18 19  1  0  0  0
 12 13  1  0  0  0
 13 14  2  0  0  0
 13 15  1  0  0  0
 15  1  1  0  0  0
  1  2  2  0  0  0
  2  3  1  0  0  0
  3  4  2  0  0  0
  4  5  1  0  0  0
  5  6  2  0  0  0
  6  7  1  0  0  0
  7  8  2  0  0  0
  8 20  1  0  0  0
 20 22  1  0  0  0
 22 23  2  0  0  0
 23 24  1  0  0  0
 24 25  2  0  0  0
 25 26  1  0  0  0
 26 27  1  0  0  0
 26 28  2  0  0  0
  8  9  1  0  0  0
  9 10  2  0  0  0
 10  1  1  0  0  0
  9  4  1  0  0  0
 28 22  1  0  0  0
 15 16  1  0  0  0
 20 21  1  0  0  0
M  END
> <minimizedAffinity>
-6.94970

> <CNNscore>
0.5426290035

> <CNNaffinity>
6.6239509583

> <CNN_VS>
3.5943479538

> <CNNaffinity_variance>
0.2764247358

$$$$
[H]c1nc(N([H])c2c([H])c([H])c([H])c(Cl)c2[H])c2c([H])c(N([H])C(=O)N(C([H])([H])[H])C([H])([H])C([H])([H])Cl)c([H])c([H])c2n1


 28 30  0  0  0  0  0  0  0  0999 V2000
    1.3344  -51.2442  -24.3281 C   0  0  0  0  0  0  0  0  0  0  0  0
    0.5556  -51.6331  -25.3769 C   0  0  0  0  0  0  0  0  0  0  0  0
   -0.3562  -52.6885  -25.3019 C   0  0  0  0  0  0  0  0  0  0  0  0
   -0.4661  -53.3572  -24.1142 C   0  0  0  0  0  0  0  0  0  0  0  0
   -1.3256  -54.3873  -23.9589 N   0  0  0  0  0  0  0  0  0  0  0  0
   -1.4490  -55.0506  -22.8090 C   0  0  0  0  0  0  0  0  0  0  0  0
   -0.7012  -54.6936  -21.7646 N   0  0  0  0  0  0  0  0  0  0  0  0
    0.1898  -53.6871  -21.7917 C   0  0  0  0  0  0  0  0  0  0  0  0
    0.3092  -53.0007  -23.0012 C   0  0  0  0  0  0  0  0  0  0  0  0
    1.1800  -51.9724  -23.1178 C   0  0  0  0  0  0  0  0  0  0  0  0
    3.9422  -47.8994  -24.3200 C   0  0  0  0  0  0  0  0  0  0  0  0
    4.5368  -49.1930  -24.6040 N   0  0  0  0  0  0  0  0  0  0  0  0
    3.6601  -50.3499  -24.5999 C   0  0  0  0  0  0  0  0  0  0  0  0
    4.1530  -51.4791  -24.8234 O   0  0  0  0  0  0  0  0  0  0  0  0
    2.2865  -50.2065  -24.3505 N   0  0  0  0  0  0  0  0  0  0  0  0
    1.9452  -49.2168  -24.1659 H   0  0  0  0  0  0  0  0  0  0  0  0
    5.9179  -49.3837  -24.8974 C   0  0  0  0  0  0  0  0  0  0  0  0
    6.6522  -48.2062  -25.4323 C   0  0  0  0  0  0  0  0  0  0  0  0
    6.5505  -48.1212  -27.1888 Cl  0  0  0  0  0  0  0  0  0  0  0  0
    1.0005  -53.3457  -20.6959 N   0  0  0  0  0  0  0  0  0  0  0  0
    2.0436  -53.5146  -20.6776 H   0  0  0  0  0  0  0  0  0  0  0  0
    0.4167  -52.7480  -19.5436 C   0  0  0  0  0  0  0  0  0  0  0  0
    1.0482  -51.6021  -19.0327 C   0  0  0  0  0  0  0  0  0  0  0  0
    0.5660  -50.9150  -17.9472 C   0  0  0  0  0  0  0  0  0  0  0  0
   -0.5776  -51.3253  -17.2996 C   0  0  0  0  0  0  0  0  0  0  0  0
   -1.2078  -52.4372  -17.7807 C   0  0  0  0  0  0  0  0  0  0  0  0
   -2.6561  -53.0061  -17.0075 Cl  0  0  0  0  0  0  0  0  0  0  0  0
   -0.7133  -53.1359  -18.8892 C   0  0  0  0  0  0  0  0  0  0  0  0
 11 12  1  0  0  0
 12 17  1  0  0  0
 17 18  1  0  0  0
 18 19  1  0  0  0
 12 13  1  0  0  0
 13 14  2  0  0  0
 13 15  1  0  0  0
 15  1  1  0  0  0
  1  2  2  0  0  0
  2  3  1  0  0  0
  3  4  2  0  0  0
  4  5  1  0  0  0
  5  6  2  0  0  0
  6  7  1  0  0  0
  7  8  2  0  0  0
  8 20  1  0  0  0
 20 22  1  0  0  0
 22 23  2  0  0  0
 23 24  1  0  0  0
 24 25  2  0  0  0
 25 26  1  0  0  0
 26 27  1  0  0  0
 26 28  2  0  0  0
  8  9  1  0  0  0
  9 10  2  0  0  0
 10  1  1  0  0  0
  9  4  1  0  0  0
 28 22  1  0  0  0
 15 16  1  0  0  0
 20 21  1  0  0  0
M  END
> <minimizedAffinity>
-6.66283

> <CNNscore>
0.5393075943

> <CNNaffinity>
6.5621004105

> <CNN_VS>
3.5389904976

> <CNNaffinity_variance>
0.2340098619

$$$$
[H]c1nc(N([H])c2c([H])c([H])c([H])c(Cl)c2[H])c2c([H])c(N([H])C(=O)N(C([H])([H])[H])C([H])([H])C([H])([H])Cl)c([H])c([H])c2n1


 28 30  0  0  0  0  0  0  0  0999 V2000
    0.6091  -53.1189  -24.2530 C   0  0  0  0  0  0  0  0  0  0  0  0
   -0.3074  -54.1200  -24.3771 C   0  0  0  0  0  0  0  0  0  0  0  0
   -1.0904  -54.5756  -23.3140 C   0  0  0  0  0  0  0  0  0  0  0  0
   -0.9225  -53.9816  -22.0938 C   0  0  0  0  0  0  0  0  0  0  0  0
   -1.6422  -54.3624  -21.0163 N   0  0  0  0  0  0  0  0  0  0  0  0
   -1.4947  -53.7947  -19.8189 C   0  0  0  0  0  0  0  0  0  0  0  0
   -0.6064  -52.8125  -19.6658 N   0  0  0  0  0  0  0  0  0  0  0  0
    0.1695  -52.3439  -20.6589 C   0  0  0  0  0  0  0  0  0  0  0  0
    0.0052  -52.9464  -21.9073 C   0  0  0  0  0  0  0  0  0  0  0  0
    0.7431  -52.5363  -22.9640 C   0  0  0  0  0  0  0  0  0  0  0  0
    3.1243  -51.9838  -27.4738 C   0  0  0  0  0  0  0  0  0  0  0  0
    2.7508  -50.9410  -26.5354 N   0  0  0  0  0  0  0  0  0  0  0  0
    1.8814  -51.3103  -25.4332 C   0  0  0  0  0  0  0  0  0  0  0  0
    1.5300  -50.4241  -24.6212 O   0  0  0  0  0  0  0  0  0  0  0  0
    1.4428  -52.6345  -25.2798 N   0  0  0  0  0  0  0  0  0  0  0  0
    1.7811  -53.3273  -26.0116 H   0  0  0  0  0  0  0  0  0  0  0  0
    3.1989  -49.5918  -26.6296 C   0  0  0  0  0  0  0  0  0  0  0  0
    4.5825  -49.3169  -26.1587 C   0  0  0  0  0  0  0  0  0  0  0  0
    4.9610  -50.2197  -24.6944 Cl  0  0  0  0  0  0  0  0  0  0  0  0
    1.1302  -51.3349  -20.4759 N   0  0  0  0  0  0  0  0  0  0  0  0
    1.6495  -50.8831  -21.2778 H   0  0  0  0  0  0  0  0  0  0  0  0
    1.4407  -50.8845  -19.1618 C   0  0  0  0  0  0  0  0  0  0  0  0
    2.7159  -51.2019  -18.6658 C   0  0  0  0  0  0  0  0  0  0  0  0
    3.1483  -50.7979  -17.4277 C   0  0  0  0  0  0  0  0  0  0  0  0
    2.3378  -50.0510  -16.6028 C   0  0  0  0  0  0  0  0  0  0  0  0
    1.0937  -49.7307  -17.0662 C   0  0  0  0  0  0  0  0  0  0  0  0
    0.0227  -48.7897  -16.0729 Cl  0  0  0  0  0  0  0  0  0  0  0  0
    0.6556  -50.1441  -18.3306 C   0  0  0  0  0  0  0  0  0  0  0  0
 11 12  1  0  0  0
 12 17  1  0  0  0
 17 18  1  0  0  0
 18 19  1  0  0  0
 12 13  1  0  0  0
 13 14  2  0  0  0
 13 15  1  0  0  0
 15  1  1  0  0  0
  1  2  2  0  0  0
  2  3  1  0  0  0
  3  4  2  0  0  0
  4  5  1  0  0  0
  5  6  2  0  0  0
  6  7  1  0  0  0
  7  8  2  0  0  0
  8 20  1  0  0  0
 20 22  1  0  0  0
 22 23  2  0  0  0
 23 24  1  0  0  0
 24 25  2  0  0  0
 25 26  1  0  0  0
 26 27  1  0  0  0
 26 28  2  0  0  0
  8  9  1  0  0  0
  9 10  2  0  0  0
 10  1  1  0  0  0
  9  4  1  0  0  0
 28 22  1  0  0  0
 15 16  1  0  0  0
 20 21  1  0  0  0
M  END
> <minimizedAffinity>
-6.25309

> <CNNscore>
0.5108293891

> <CNNaffinity>
6.6174788475

> <CNN_VS>
3.3804025650

> <CNNaffinity_variance>
0.3646445572

$$$$
[H]c1nc(N([H])c2c([H])c([H])c([H])c(Cl)c2[H])c2c([H])c(N([H])C(=O)N(C([H])([H])[H])C([H])([H])C([H])([H])Cl)c([H])c([H])c2n1


 28 30  0  0  0  0  0  0  0  0999 V2000
   -0.7590  -52.5255  -24.7222 C   0  0  0  0  0  0  0  0  0  0  0  0
   -1.9795  -52.2807  -25.2772 C   0  0  0  0  0  0  0  0  0  0  0  0
   -2.2040  -52.2688  -26.6557 C   0  0  0  0  0  0  0  0  0  0  0  0
   -1.1415  -52.5167  -27.4801 C   0  0  0  0  0  0  0  0  0  0  0  0
   -1.2755  -52.5257  -28.8240 N   0  0  0  0  0  0  0  0  0  0  0  0
   -0.2528  -52.7671  -29.6446 C   0  0  0  0  0  0  0  0  0  0  0  0
    0.9536  -53.0105  -29.1319 N   0  0  0  0  0  0  0  0  0  0  0  0
    1.2162  -53.0296  -27.8135 C   0  0  0  0  0  0  0  0  0  0  0  0
    0.1371  -52.7757  -26.9653 C   0  0  0  0  0  0  0  0  0  0  0  0
    0.3099  -52.7772  -25.6238 C   0  0  0  0  0  0  0  0  0  0  0  0
   -0.1208  -52.7769  -20.5368 C   0  0  0  0  0  0  0  0  0  0  0  0
    0.6870  -51.8160  -21.2661 N   0  0  0  0  0  0  0  0  0  0  0  0
    0.4888  -51.7250  -22.7012 C   0  0  0  0  0  0  0  0  0  0  0  0
    1.1871  -50.9168  -23.3548 O   0  0  0  0  0  0  0  0  0  0  0  0
   -0.4668  -52.5266  -23.3444 N   0  0  0  0  0  0  0  0  0  0  0  0
   -1.0168  -53.1898  -22.7217 H   0  0  0  0  0  0  0  0  0  0  0  0
    1.6436  -50.9567  -20.6527 C   0  0  0  0  0  0  0  0  0  0  0  0
    1.1102  -49.7452  -19.9749 C   0  0  0  0  0  0  0  0  0  0  0  0
    1.0862  -48.3545  -21.0556 Cl  0  0  0  0  0  0  0  0  0  0  0  0
    2.5003  -53.2485  -27.2864 N   0  0  0  0  0  0  0  0  0  0  0  0
    3.0499  -54.1343  -27.4602 H   0  0  0  0  0  0  0  0  0  0  0  0
    3.1109  -52.2510  -26.4751 C   0  0  0  0  0  0  0  0  0  0  0  0
    3.8466  -52.6972  -25.3649 C   0  0  0  0  0  0  0  0  0  0  0  0
    4.5092  -51.8384  -24.5244 C   0  0  0  0  0  0  0  0  0  0  0  0
    4.4819  -50.4783  -24.7356 C   0  0  0  0  0  0  0  0  0  0  0  0
    3.7726  -50.0232  -25.8103 C   0  0  0  0  0  0  0  0  0  0  0  0
    3.6994  -48.3171  -26.1314 Cl  0  0  0  0  0  0  0  0  0  0  0  0
    3.0978  -50.9024  -26.6665 C   0  0  0  0  0  0  0  0  0  0  0  0
 11 12  1  0  0  0
 12 17  1  0  0  0
 17 18  1  0  0  0
 18 19  1  0  0  0
 12 13  1  0  0  0
 13 14  2  0  0  0
 13 15  1  0  0  0
 15  1  1  0  0  0
  1  2  2  0  0  0
  2  3  1  0  0  0
  3  4  2  0  0  0
  4  5  1  0  0  0
  5  6  2  0  0  0
  6  7  1  0  0  0
  7  8  2  0  0  0
  8 20  1  0  0  0
 20 22  1  0  0  0
 22 23  2  0  0  0
 23 24  1  0  0  0
 24 25  2  0  0  0
 25 26  1  0  0  0
 26 27  1  0  0  0
 26 28  2  0  0  0
  8  9  1  0  0  0
  9 10  2  0  0  0
 10  1  1  0  0  0
  9  4  1  0  0  0
 28 22  1  0  0  0
 15 16  1  0  0  0
 20 21  1  0  0  0
M  END
> <minimizedAffinity>
-6.90014

> <CNNscore>
0.2954831123

> <CNNaffinity>
6.5449967384

> <CNN_VS>
1.9339359999

> <CNNaffinity_variance>
0.0671703368

$$$$
[H]c1nc(N([H])c2c([H])c([H])c([H])c(Cl)c2[H])c2c([H])c(N([H])C(=O)N(C([H])([H])[H])C([H])([H])C([H])([H])Cl)c([H])c([H])c2n1


 28 30  0  0  0  0  0  0  0  0999 V2000
   -0.6173  -52.9469  -20.7233 C   0  0  0  0  0  0  0  0  0  0  0  0
   -1.3805  -54.0548  -20.9420 C   0  0  0  0  0  0  0  0  0  0  0  0
   -1.5149  -54.6551  -22.1959 C   0  0  0  0  0  0  0  0  0  0  0  0
   -0.8438  -54.0974  -23.2487 C   0  0  0  0  0  0  0  0  0  0  0  0
   -0.9193  -54.6187  -24.4923 N   0  0  0  0  0  0  0  0  0  0  0  0
   -0.2713  -54.0910  -25.5312 C   0  0  0  0  0  0  0  0  0  0  0  0
    0.4836  -53.0073  -25.3491 N   0  0  0  0  0  0  0  0  0  0  0  0
    0.6401  -52.3953  -24.1622 C   0  0  0  0  0  0  0  0  0  0  0  0
   -0.0433  -52.9577  -23.0828 C   0  0  0  0  0  0  0  0  0  0  0  0
    0.0586  -52.4084  -21.8511 C   0  0  0  0  0  0  0  0  0  0  0  0
    0.1072  -50.7712  -17.1555 C   0  0  0  0  0  0  0  0  0  0  0  0
   -0.9621  -51.7525  -17.1187 N   0  0  0  0  0  0  0  0  0  0  0  0
   -1.2305  -52.4982  -18.3348 C   0  0  0  0  0  0  0  0  0  0  0  0
   -2.1604  -53.3368  -18.3333 O   0  0  0  0  0  0  0  0  0  0  0  0
   -0.4630  -52.2843  -19.4901 N   0  0  0  0  0  0  0  0  0  0  0  0
    0.3052  -51.5536  -19.4129 H   0  0  0  0  0  0  0  0  0  0  0  0
   -1.7444  -52.0296  -15.9607 C   0  0  0  0  0  0  0  0  0  0  0  0
   -2.4934  -50.8859  -15.3754 C   0  0  0  0  0  0  0  0  0  0  0  0
   -4.2334  -51.1541  -15.4289 Cl  0  0  0  0  0  0  0  0  0  0  0  0
    1.4071  -51.2305  -23.9908 N   0  0  0  0  0  0  0  0  0  0  0  0
    1.1472  -50.3020  -24.4235 H   0  0  0  0  0  0  0  0  0  0  0  0
    2.5947  -51.2750  -23.2075 C   0  0  0  0  0  0  0  0  0  0  0  0
    3.7999  -51.5016  -23.8924 C   0  0  0  0  0  0  0  0  0  0  0  0
    5.0157  -51.5344  -23.2569 C   0  0  0  0  0  0  0  0  0  0  0  0
    5.1098  -51.3433  -21.8967 C   0  0  0  0  0  0  0  0  0  0  0  0
    3.9495  -51.1207  -21.2115 C   0  0  0  0  0  0  0  0  0  0  0  0
    4.0010  -50.8721  -19.4926 Cl  0  0  0  0  0  0  0  0  0  0  0  0
    2.7103  -51.0874  -21.8632 C   0  0  0  0  0  0  0  0  0  0  0  0
 11 12  1  0  0  0
 12 17  1  0  0  0
 17 18  1  0  0  0
 18 19  1  0  0  0
 12 13  1  0  0  0
 13 14  2  0  0  0
 13 15  1  0  0  0
 15  1  1  0  0  0
  1  2  2  0  0  0
  2  3  1  0  0  0
  3  4  2  0  0  0
  4  5  1  0  0  0
  5  6  2  0  0  0
  6  7  1  0  0  0
  7  8  2  0  0  0
  8 20  1  0  0  0
 20 22  1  0  0  0
 22 23  2  0  0  0
 23 24  1  0  0  0
 24 25  2  0  0  0
 25 26  1  0  0  0
 26 27  1  0  0  0
 26 28  2  0  0  0
  8  9  1  0  0  0
  9 10  2  0  0  0
 10  1  1  0  0  0
  9  4  1  0  0  0
 28 22  1  0  0  0
 15 16  1  0  0  0
 20 21  1  0  0  0
M  END
> <minimizedAffinity>
-6.86490

> <CNNscore>
0.2819923460

> <CNNaffinity>
6.4630570412

> <CNN_VS>
1.8225326538

> <CNNaffinity_variance>
0.0937142372

$$$$
[H]c1nc(N([H])c2c([H])c([H])c([H])c(Cl)c2[H])c2c([H])c(N([H])C(=O)N(C([H])([H])[H])C([H])([H])C([H])([H])Cl)c([H])c([H])c2n1


 28 30  0  0  0  0  0  0  0  0999 V2000
   -0.4114  -53.7260  -22.9515 C   0  0  0  0  0  0  0  0  0  0  0  0
   -1.4582  -54.1445  -22.1855 C   0  0  0  0  0  0  0  0  0  0  0  0
   -1.5753  -53.8510  -20.8250 C   0  0  0  0  0  0  0  0  0  0  0  0
   -0.5871  -53.1066  -20.2426 C   0  0  0  0  0  0  0  0  0  0  0  0
   -0.6270  -52.7779  -18.9333 N   0  0  0  0  0  0  0  0  0  0  0  0
    0.3252  -52.0514  -18.3474 C   0  0  0  0  0  0  0  0  0  0  0  0
    1.3619  -51.6270  -19.0703 N   0  0  0  0  0  0  0  0  0  0  0  0
    1.5170  -51.8871  -20.3803 C   0  0  0  0  0  0  0  0  0  0  0  0
    0.5132  -52.6482  -20.9817 C   0  0  0  0  0  0  0  0  0  0  0  0
    0.5869  -52.9556  -22.2967 C   0  0  0  0  0  0  0  0  0  0  0  0
    0.2078  -54.9122  -26.9761 C   0  0  0  0  0  0  0  0  0  0  0  0
   -0.1118  -53.5147  -26.7468 N   0  0  0  0  0  0  0  0  0  0  0  0
   -0.3375  -53.0943  -25.3759 C   0  0  0  0  0  0  0  0  0  0  0  0
   -0.6332  -51.8978  -25.1546 O   0  0  0  0  0  0  0  0  0  0  0  0
   -0.2266  -54.0103  -24.3186 N   0  0  0  0  0  0  0  0  0  0  0  0
    0.0239  -55.0077  -24.5878 H   0  0  0  0  0  0  0  0  0  0  0  0
   -0.2007  -52.5412  -27.7833 C   0  0  0  0  0  0  0  0  0  0  0  0
   -1.2467  -52.7645  -28.8166 C   0  0  0  0  0  0  0  0  0  0  0  0
   -2.8640  -52.5032  -28.1698 Cl  0  0  0  0  0  0  0  0  0  0  0  0
    2.6339  -51.4674  -21.1224 N   0  0  0  0  0  0  0  0  0  0  0  0
    3.4906  -52.0702  -21.2629 H   0  0  0  0  0  0  0  0  0  0  0  0
    2.6410  -50.1754  -21.7198 C   0  0  0  0  0  0  0  0  0  0  0  0
    2.2363  -49.0996  -20.9125 C   0  0  0  0  0  0  0  0  0  0  0  0
    2.2299  -47.8023  -21.3597 C   0  0  0  0  0  0  0  0  0  0  0  0
    2.6266  -47.4923  -22.6411 C   0  0  0  0  0  0  0  0  0  0  0  0
    3.0247  -48.5239  -23.4427 C   0  0  0  0  0  0  0  0  0  0  0  0
    3.5371  -48.1985  -25.0707 Cl  0  0  0  0  0  0  0  0  0  0  0  0
    3.0304  -49.8468  -22.9831 C   0  0  0  0  0  0  0  0  0  0  0  0
 11 12  1  0  0  0
 12 17  1  0  0  0
 17 18  1  0  0  0
 18 19  1  0  0  0
 12 13  1  0  0  0
 13 14  2  0  0  0
 13 15  1  0  0  0
 15  1  1  0  0  0
  1  2  2  0  0  0
  2  3  1  0  0  0
  3  4  2  0  0  0
  4  5  1  0  0  0
  5  6  2  0  0  0
  6  7  1  0  0  0
  7  8  2  0  0  0
  8 20  1  0  0  0
 20 22  1  0  0  0
 22 23  2  0  0  0
 23 24  1  0  0  0
 24 25  2  0  0  0
 25 26  1  0  0  0
 26 27  1  0  0  0
 26 28  2  0  0  0
  8  9  1  0  0  0
  9 10  2  0  0  0
 10  1  1  0  0  0
  9  4  1  0  0  0
 28 22  1  0  0  0
 15 16  1  0  0  0
 20 21  1  0  0  0
M  END
> <minimizedAffinity>
-7.42827

> <CNNscore>
0.2793389559

> <CNNaffinity>
6.5946106911

> <CNN_VS>
1.8421316147

> <CNNaffinity_variance>
0.0693941861

$$$$
[H]c1nc(N([H])c2c([H])c([H])c([H])c(Cl)c2[H])c2c([H])c(N([H])C(=O)N(C([H])([H])[H])C([H])([H])C([H])([H])Cl)c([H])c([H])c2n1


 28 30  0  0  0  0  0  0  0  0999 V2000
   -0.0992  -53.2750  -22.1015 C   0  0  0  0  0  0  0  0  0  0  0  0
   -0.8169  -54.3988  -22.3835 C   0  0  0  0  0  0  0  0  0  0  0  0
   -0.9689  -54.9042  -23.6767 C   0  0  0  0  0  0  0  0  0  0  0  0
   -0.3640  -54.2323  -24.7026 C   0  0  0  0  0  0  0  0  0  0  0  0
   -0.4606  -54.6569  -25.9810 N   0  0  0  0  0  0  0  0  0  0  0  0
    0.1233  -54.0173  -26.9947 C   0  0  0  0  0  0  0  0  0  0  0  0
    0.8325  -52.9150  -26.7508 N   0  0  0  0  0  0  0  0  0  0  0  0
    1.0036  -52.3916  -25.5242 C   0  0  0  0  0  0  0  0  0  0  0  0
    0.3875  -53.0709  -24.4717 C   0  0  0  0  0  0  0  0  0  0  0  0
    0.5087  -52.6161  -23.2038 C   0  0  0  0  0  0  0  0  0  0  0  0
    0.6753  -51.3788  -18.3876 C   0  0  0  0  0  0  0  0  0  0  0  0
   -0.4315  -52.3175  -18.4256 N   0  0  0  0  0  0  0  0  0  0  0  0
   -0.7170  -52.9671  -19.6919 C   0  0  0  0  0  0  0  0  0  0  0  0
   -1.6787  -53.7668  -19.7544 O   0  0  0  0  0  0  0  0  0  0  0  0
    0.0690  -52.7049  -20.8245 N   0  0  0  0  0  0  0  0  0  0  0  0
    0.8641  -52.0120  -20.6920 H   0  0  0  0  0  0  0  0  0  0  0  0
   -1.2349  -52.6424  -17.2947 C   0  0  0  0  0  0  0  0  0  0  0  0
   -1.1050  -51.7531  -16.1099 C   0  0  0  0  0  0  0  0  0  0  0  0
   -2.6715  -51.1494  -15.5767 Cl  0  0  0  0  0  0  0  0  0  0  0  0
    1.7207  -51.2072  -25.2847 N   0  0  0  0  0  0  0  0  0  0  0  0
    1.3671  -50.2531  -25.5704 H   0  0  0  0  0  0  0  0  0  0  0  0
    2.9850  -51.2657  -24.6334 C   0  0  0  0  0  0  0  0  0  0  0  0
    3.8545  -52.2970  -25.0246 C   0  0  0  0  0  0  0  0  0  0  0  0
    5.1128  -52.4422  -24.4966 C   0  0  0  0  0  0  0  0  0  0  0  0
    5.5868  -51.5686  -23.5440 C   0  0  0  0  0  0  0  0  0  0  0  0
    4.7573  -50.5578  -23.1499 C   0  0  0  0  0  0  0  0  0  0  0  0
    5.2968  -49.4219  -21.9509 Cl  0  0  0  0  0  0  0  0  0  0  0  0
    3.4738  -50.4121  -23.6910 C   0  0  0  0  0  0  0  0  0  0  0  0
 11 12  1  0  0  0
 12 17  1  0  0  0
 17 18  1  0  0  0
 18 19  1  0  0  0
 12 13  1  0  0  0
 13 14  2  0  0  0
 13 15  1  0  0  0
 15  1  1  0  0  0
  1  2  2  0  0  0
  2  3  1  0  0  0
  3  4  2  0  0  0
  4  5  1  0  0  0
  5  6  2  0  0  0
  6  7  1  0  0  0
  7  8  2  0  0  0
  8 20  1  0  0  0
 20 22  1  0  0  0
 22 23  2  0  0  0
 23 24  1  0  0  0
 24 25  2  0  0  0
 25 26  1  0  0  0
 26 27  1  0  0  0
 26 28  2  0  0  0
  8  9  1  0  0  0
  9 10  2  0  0  0
 10  1  1  0  0  0
  9  4  1  0  0  0
 28 22  1  0  0  0
 15 16  1  0  0  0
 20 21  1  0  0  0
M  END
> <minimizedAffinity>
-7.51513

> <CNNscore>
0.2768797874

> <CNNaffinity>
6.4835577011

> <CNN_VS>
1.7951661348

> <CNNaffinity_variance>
0.0689617023

$$$$
[H]c1nc(N([H])c2c([H])c([H])c(N([H])C(=O)C34C([H])([H])C5([H])C([H])([H])C([H])(C([H])([H])C([H])(C5([H])[H])C3([H])[H])C4([H])[H])c(OC([H])([H])[H])c2[H])c2c([H])c(OC([H])([H])C([H])([H])OC([H])([H])[H])c(OC([H])([H])C([H])([H])OC([H])([H])[H])c([H])c2n1


 44 49  0  0  0  0  0  0  0  0999 V2000
   -0.3091  -52.4523  -25.1909 N   0  0  0  0  0  0  0  0  0  0  0  0
   -1.0517  -52.0972  -25.8408 H   0  0  0  0  0  0  0  0  0  0  0  0
   -0.3883  -52.6438  -20.1845 C   0  0  0  0  0  0  0  0  0  0  0  0
   -0.6661  -53.8935  -20.6186 C   0  0  0  0  0  0  0  0  0  0  0  0
   -0.7280  -54.1654  -21.9687 C   0  0  0  0  0  0  0  0  0  0  0  0
   -1.0051  -55.4047  -22.4190 N   0  0  0  0  0  0  0  0  0  0  0  0
   -1.0660  -55.6581  -23.7353 C   0  0  0  0  0  0  0  0  0  0  0  0
   -0.8629  -54.7317  -24.6612 N   0  0  0  0  0  0  0  0  0  0  0  0
   -0.5773  -53.4540  -24.2562 C   0  0  0  0  0  0  0  0  0  0  0  0
   -0.5091  -53.1661  -22.8940 C   0  0  0  0  0  0  0  0  0  0  0  0
   -0.2235  -51.8719  -22.4494 C   0  0  0  0  0  0  0  0  0  0  0  0
   -0.1574  -51.5894  -21.0961 C   0  0  0  0  0  0  0  0  0  0  0  0
   -0.3066  -52.3080  -18.8733 O   0  0  0  0  0  0  0  0  0  0  0  0
   -1.0855  -52.7548  -17.8208 C   0  0  0  0  0  0  0  0  0  0  0  0
   -1.0212  -51.8450  -16.6423 C   0  0  0  0  0  0  0  0  0  0  0  0
   -3.1842  -52.4956  -16.4328 C   0  0  0  0  0  0  0  0  0  0  0  0
   -2.2207  -51.6235  -16.0072 O   0  0  0  0  0  0  0  0  0  0  0  0
    0.1171  -50.3701  -20.5773 O   0  0  0  0  0  0  0  0  0  0  0  0
    1.1931  -49.5653  -20.8121 C   0  0  0  0  0  0  0  0  0  0  0  0
    2.5556  -50.1039  -20.5025 C   0  0  0  0  0  0  0  0  0  0  0  0
    3.3942  -48.9892  -20.3191 O   0  0  0  0  0  0  0  0  0  0  0  0
    2.6477  -47.8614  -19.9813 C   0  0  0  0  0  0  0  0  0  0  0  0
    1.0066  -51.8658  -25.2856 C   0  0  0  0  0  0  0  0  0  0  0  0
    1.1391  -50.6069  -25.8484 C   0  0  0  0  0  0  0  0  0  0  0  0
    2.3774  -49.9940  -26.0071 C   0  0  0  0  0  0  0  0  0  0  0  0
    3.5474  -50.5954  -25.6171 C   0  0  0  0  0  0  0  0  0  0  0  0
    3.3940  -51.8690  -25.0503 C   0  0  0  0  0  0  0  0  0  0  0  0
    2.1574  -52.4775  -24.8941 C   0  0  0  0  0  0  0  0  0  0  0  0
    4.8463  -50.0510  -25.7386 N   0  0  0  0  0  0  0  0  0  0  0  0
    5.3310  -48.8877  -25.1140 C   0  0  0  0  0  0  0  0  0  0  0  0
    4.6718  -48.1687  -24.3567 O   0  0  0  0  0  0  0  0  0  0  0  0
    5.5042  -50.6088  -26.3797 H   0  0  0  0  0  0  0  0  0  0  0  0
    6.7635  -48.5321  -25.4209 C   0  0  0  0  0  0  0  0  0  0  0  0
    6.9609  -48.3467  -26.9020 C   0  0  0  0  0  0  0  0  0  0  0  0
    8.4376  -48.0112  -27.0987 C   0  0  0  0  0  0  0  0  0  0  0  0
    8.8191  -46.7641  -26.3519 C   0  0  0  0  0  0  0  0  0  0  0  0
    8.5180  -46.9180  -24.8704 C   0  0  0  0  0  0  0  0  0  0  0  0
    9.3620  -48.0450  -24.3446 C   0  0  0  0  0  0  0  0  0  0  0  0
    9.0778  -49.3153  -25.1002 C   0  0  0  0  0  0  0  0  0  0  0  0
    9.2952  -49.1464  -26.5810 C   0  0  0  0  0  0  0  0  0  0  0  0
    7.6161  -49.6495  -24.8886 C   0  0  0  0  0  0  0  0  0  0  0  0
    7.0354  -47.2049  -24.7510 C   0  0  0  0  0  0  0  0  0  0  0  0
    4.5490  -52.5255  -24.6365 O   0  0  0  0  0  0  0  0  0  0  0  0
    4.9372  -52.4245  -23.2842 C   0  0  0  0  0  0  0  0  0  0  0  0
 16 17  1  0  0  0
 17 15  1  0  0  0
 15 14  1  0  0  0
 14 13  1  0  0  0
 13  3  1  0  0  0
  3  4  2  0  0  0
  4  5  1  0  0  0
  5  6  2  0  0  0
  6  7  1  0  0  0
  7  8  2  0  0  0
  8  9  1  0  0  0
  9  1  1  0  0  0
  1 23  1  0  0  0
 23 24  2  0  0  0
 24 25  1  0  0  0
 25 26  2  0  0  0
 26 29  1  0  0  0
 29 30  1  0  0  0
 30 31  2  0  0  0
 30 33  1  0  0  0
 33 34  1  0  0  0
 34 35  1  0  0  0
 35 36  1  0  0  0
 36 37  1  0  0  0
 37 38  1  0  0  0
 38 39  1  0  0  0
 39 40  1  0  0  0
 39 41  1  0  0  0
 37 42  1  0  0  0
 26 27  1  0  0  0
 27 43  1  0  0  0
 43 44  1  0  0  0
 27 28  2  0  0  0
  9 10  2  0  0  0
 10 11  1  0  0  0
 11 12  2  0  0  0
 12 18  1  0  0  0
 18 19  1  0  0  0
 19 20  1  0  0  0
 20 21  1  0  0  0
 21 22  1  0  0  0
 12  3  1  0  0  0
 10  5  1  0  0  0
 28 23  1  0  0  0
 41 33  1  0  0  0
 42 33  1  0  0  0
 40 35  1  0  0  0
  1  2  1  0  0  0
 29 32  1  0  0  0
M  END
> <minimizedAffinity>
-6.74498

> <CNNscore>
0.3709445596

> <CNNaffinity>
6.9454588890

> <CNN_VS>
2.5763802528

> <CNNaffinity_variance>
0.0958333015

$$$$
[H]c1nc(N([H])c2c([H])c([H])c(N([H])C(=O)C34C([H])([H])C5([H])C([H])([H])C([H])(C([H])([H])C([H])(C5([H])[H])C3([H])[H])C4([H])[H])c(OC([H])([H])[H])c2[H])c2c([H])c(OC([H])([H])C([H])([H])OC([H])([H])[H])c(OC([H])([H])C([H])([H])OC([H])([H])[H])c([H])c2n1


 44 49  0  0  0  0  0  0  0  0999 V2000
    0.5558  -51.9571  -24.3046 N   0  0  0  0  0  0  0  0  0  0  0  0
    0.2077  -51.5665  -25.2135 H   0  0  0  0  0  0  0  0  0  0  0  0
   -0.6346  -52.9899  -19.5482 C   0  0  0  0  0  0  0  0  0  0  0  0
   -1.0496  -54.0458  -20.2833 C   0  0  0  0  0  0  0  0  0  0  0  0
   -0.8712  -54.0574  -21.6502 C   0  0  0  0  0  0  0  0  0  0  0  0
   -1.2800  -55.1005  -22.3986 N   0  0  0  0  0  0  0  0  0  0  0  0
   -1.1042  -55.1006  -23.7288 C   0  0  0  0  0  0  0  0  0  0  0  0
   -0.5308  -54.1009  -24.3835 N   0  0  0  0  0  0  0  0  0  0  0  0
   -0.0965  -53.0151  -23.6690 C   0  0  0  0  0  0  0  0  0  0  0  0
   -0.2685  -52.9918  -22.2859 C   0  0  0  0  0  0  0  0  0  0  0  0
    0.1604  -51.8970  -21.5296 C   0  0  0  0  0  0  0  0  0  0  0  0
   -0.0127  -51.8768  -20.1566 C   0  0  0  0  0  0  0  0  0  0  0  0
   -0.7734  -52.9150  -18.2015 O   0  0  0  0  0  0  0  0  0  0  0  0
   -1.3942  -51.9299  -17.4541 C   0  0  0  0  0  0  0  0  0  0  0  0
   -2.2610  -52.4944  -16.3814 C   0  0  0  0  0  0  0  0  0  0  0  0
   -4.2723  -52.4025  -15.3363 C   0  0  0  0  0  0  0  0  0  0  0  0
   -3.6050  -52.2369  -16.5184 O   0  0  0  0  0  0  0  0  0  0  0  0
    0.3750  -50.8640  -19.3473 O   0  0  0  0  0  0  0  0  0  0  0  0
    1.2344  -49.8391  -19.6148 C   0  0  0  0  0  0  0  0  0  0  0  0
    2.5992  -49.8865  -19.0006 C   0  0  0  0  0  0  0  0  0  0  0  0
    2.4919  -49.2726  -17.7393 O   0  0  0  0  0  0  0  0  0  0  0  0
    3.6075  -48.4772  -17.4820 C   0  0  0  0  0  0  0  0  0  0  0  0
    1.7332  -51.3598  -23.7207 C   0  0  0  0  0  0  0  0  0  0  0  0
    2.8438  -52.1555  -23.4916 C   0  0  0  0  0  0  0  0  0  0  0  0
    3.9999  -51.6594  -22.8987 C   0  0  0  0  0  0  0  0  0  0  0  0
    4.1160  -50.3509  -22.5024 C   0  0  0  0  0  0  0  0  0  0  0  0
    2.9822  -49.5608  -22.7416 C   0  0  0  0  0  0  0  0  0  0  0  0
    1.8306  -50.0591  -23.3326 C   0  0  0  0  0  0  0  0  0  0  0  0
    5.2472  -49.7604  -21.8942 N   0  0  0  0  0  0  0  0  0  0  0  0
    6.3544  -49.1943  -22.5514 C   0  0  0  0  0  0  0  0  0  0  0  0
    6.4901  -49.1345  -23.7773 O   0  0  0  0  0  0  0  0  0  0  0  0
    5.2251  -49.7602  -20.8197 H   0  0  0  0  0  0  0  0  0  0  0  0
    7.4277  -48.6330  -21.6539 C   0  0  0  0  0  0  0  0  0  0  0  0
    8.7328  -48.5125  -22.3950 C   0  0  0  0  0  0  0  0  0  0  0  0
    9.7438  -47.9568  -21.3945 C   0  0  0  0  0  0  0  0  0  0  0  0
    9.3093  -46.6197  -20.8635 C   0  0  0  0  0  0  0  0  0  0  0  0
    7.9417  -46.7258  -20.2098 C   0  0  0  0  0  0  0  0  0  0  0  0
    8.0614  -47.6667  -19.0438 C   0  0  0  0  0  0  0  0  0  0  0  0
    8.5612  -49.0115  -19.4989 C   0  0  0  0  0  0  0  0  0  0  0  0
    9.8785  -48.9040  -20.2211 C   0  0  0  0  0  0  0  0  0  0  0  0
    7.5469  -49.5626  -20.4789 C   0  0  0  0  0  0  0  0  0  0  0  0
    6.9875  -47.2396  -21.2682 C   0  0  0  0  0  0  0  0  0  0  0  0
    3.0448  -48.2243  -22.3592 O   0  0  0  0  0  0  0  0  0  0  0  0
    3.0866  -47.2345  -23.3632 C   0  0  0  0  0  0  0  0  0  0  0  0
 16 17  1  0  0  0
 17 15  1  0  0  0
 15 14  1  0  0  0
 14 13  1  0  0  0
 13  3  1  0  0  0
  3  4  2  0  0  0
  4  5  1  0  0  0
  5  6  2  0  0  0
  6  7  1  0  0  0
  7  8  2  0  0  0
  8  9  1  0  0  0
  9  1  1  0  0  0
  1 23  1  0  0  0
 23 24  2  0  0  0
 24 25  1  0  0  0
 25 26  2  0  0  0
 26 29  1  0  0  0
 29 30  1  0  0  0
 30 31  2  0  0  0
 30 33  1  0  0  0
 33 34  1  0  0  0
 34 35  1  0  0  0
 35 36  1  0  0  0
 36 37  1  0  0  0
 37 38  1  0  0  0
 38 39  1  0  0  0
 39 40  1  0  0  0
 39 41  1  0  0  0
 37 42  1  0  0  0
 26 27  1  0  0  0
 27 43  1  0  0  0
 43 44  1  0  0  0
 27 28  2  0  0  0
  9 10  2  0  0  0
 10 11  1  0  0  0
 11 12  2  0  0  0
 12 18  1  0  0  0
 18 19  1  0  0  0
 19 20  1  0  0  0
 20 21  1  0  0  0
 21 22  1  0  0  0
 12  3  1  0  0  0
 10  5  1  0  0  0
 28 23  1  0  0  0
 41 33  1  0  0  0
 42 33  1  0  0  0
 40 35  1  0  0  0
  1  2  1  0  0  0
 29 32  1  0  0  0
M  END
> <minimizedAffinity>
-6.37314

> <CNNscore>
0.3561991453

> <CNNaffinity>
6.8405900002

> <CNN_VS>
2.4366123676

> <CNNaffinity_variance>
0.1006558985

$$$$
[H]c1nc(N([H])c2c([H])c([H])c(N([H])C(=O)C34C([H])([H])C5([H])C([H])([H])C([H])(C([H])([H])C([H])(C5([H])[H])C3([H])[H])C4([H])[H])c(OC([H])([H])[H])c2[H])c2c([H])c(OC([H])([H])C([H])([H])OC([H])([H])[H])c(OC([H])([H])C([H])([H])OC([H])([H])[H])c([H])c2n1


 44 49  0  0  0  0  0  0  0  0999 V2000
   -0.3634  -50.9317  -21.2937 N   0  0  0  0  0  0  0  0  0  0  0  0
   -1.1061  -50.1954  -21.2151 H   0  0  0  0  0  0  0  0  0  0  0  0
    0.3492  -53.8898  -25.2748 C   0  0  0  0  0  0  0  0  0  0  0  0
   -0.3383  -54.6243  -24.3718 C   0  0  0  0  0  0  0  0  0  0  0  0
   -0.6825  -54.0849  -23.1507 C   0  0  0  0  0  0  0  0  0  0  0  0
   -1.3661  -54.8029  -22.2383 N   0  0  0  0  0  0  0  0  0  0  0  0
   -1.6937  -54.2694  -21.0515 C   0  0  0  0  0  0  0  0  0  0  0  0
   -1.3765  -53.0308  -20.7021 N   0  0  0  0  0  0  0  0  0  0  0  0
   -0.6809  -52.2574  -21.5944 C   0  0  0  0  0  0  0  0  0  0  0  0
   -0.3289  -52.7899  -22.8336 C   0  0  0  0  0  0  0  0  0  0  0  0
    0.3838  -52.0275  -23.7638 C   0  0  0  0  0  0  0  0  0  0  0  0
    0.7325  -52.5595  -24.9930 C   0  0  0  0  0  0  0  0  0  0  0  0
    0.7150  -54.3549  -26.4948 O   0  0  0  0  0  0  0  0  0  0  0  0
    0.0523  -54.2183  -27.7016 C   0  0  0  0  0  0  0  0  0  0  0  0
    0.8494  -53.4542  -28.7023 C   0  0  0  0  0  0  0  0  0  0  0  0
   -1.1890  -52.5523  -29.1232 C   0  0  0  0  0  0  0  0  0  0  0  0
    0.1238  -52.6029  -29.5024 O   0  0  0  0  0  0  0  0  0  0  0  0
    1.4155  -51.8943  -25.9532 O   0  0  0  0  0  0  0  0  0  0  0  0
    2.6984  -51.4320  -25.9231 C   0  0  0  0  0  0  0  0  0  0  0  0
    3.7362  -52.2791  -25.2540 C   0  0  0  0  0  0  0  0  0  0  0  0
    4.3429  -51.4703  -24.2756 O   0  0  0  0  0  0  0  0  0  0  0  0
    4.9447  -52.2542  -23.2924 C   0  0  0  0  0  0  0  0  0  0  0  0
    1.0066  -50.5338  -21.0726 C   0  0  0  0  0  0  0  0  0  0  0  0
    1.5993  -49.6523  -21.9618 C   0  0  0  0  0  0  0  0  0  0  0  0
    2.9254  -49.2530  -21.8348 C   0  0  0  0  0  0  0  0  0  0  0  0
    3.7326  -49.7056  -20.8217 C   0  0  0  0  0  0  0  0  0  0  0  0
    3.1161  -50.5973  -19.9319 C   0  0  0  0  0  0  0  0  0  0  0  0
    1.7932  -50.9938  -20.0619 C   0  0  0  0  0  0  0  0  0  0  0  0
    5.0864  -49.3561  -20.6140 N   0  0  0  0  0  0  0  0  0  0  0  0
    5.5699  -48.1425  -20.0928 C   0  0  0  0  0  0  0  0  0  0  0  0
    4.8599  -47.1968  -19.7371 O   0  0  0  0  0  0  0  0  0  0  0  0
    5.7904  -50.1190  -20.8922 H   0  0  0  0  0  0  0  0  0  0  0  0
    7.0692  -48.0337  -19.9788 C   0  0  0  0  0  0  0  0  0  0  0  0
    7.7285  -49.3301  -20.3681 C   0  0  0  0  0  0  0  0  0  0  0  0
    9.2308  -49.1144  -20.1989 C   0  0  0  0  0  0  0  0  0  0  0  0
    9.7223  -47.9880  -21.0638 C   0  0  0  0  0  0  0  0  0  0  0  0
    8.9770  -46.7040  -20.7396 C   0  0  0  0  0  0  0  0  0  0  0  0
    9.2740  -46.3489  -19.3096 C   0  0  0  0  0  0  0  0  0  0  0  0
    8.8674  -47.4698  -18.3912 C   0  0  0  0  0  0  0  0  0  0  0  0
    9.5402  -48.7664  -18.7583 C   0  0  0  0  0  0  0  0  0  0  0  0
    7.3750  -47.6680  -18.5534 C   0  0  0  0  0  0  0  0  0  0  0  0
    7.5055  -46.9799  -20.9704 C   0  0  0  0  0  0  0  0  0  0  0  0
    3.8890  -51.0882  -18.8841 O   0  0  0  0  0  0  0  0  0  0  0  0
    3.5388  -50.7386  -17.5633 C   0  0  0  0  0  0  0  0  0  0  0  0
 16 17  1  0  0  0
 17 15  1  0  0  0
 15 14  1  0  0  0
 14 13  1  0  0  0
 13  3  1  0  0  0
  3  4  2  0  0  0
  4  5  1  0  0  0
  5  6  2  0  0  0
  6  7  1  0  0  0
  7  8  2  0  0  0
  8  9  1  0  0  0
  9  1  1  0  0  0
  1 23  1  0  0  0
 23 24  2  0  0  0
 24 25  1  0  0  0
 25 26  2  0  0  0
 26 29  1  0  0  0
 29 30  1  0  0  0
 30 31  2  0  0  0
 30 33  1  0  0  0
 33 34  1  0  0  0
 34 35  1  0  0  0
 35 36  1  0  0  0
 36 37  1  0  0  0
 37 38  1  0  0  0
 38 39  1  0  0  0
 39 40  1  0  0  0
 39 41  1  0  0  0
 37 42  1  0  0  0
 26 27  1  0  0  0
 27 43  1  0  0  0
 43 44  1  0  0  0
 27 28  2  0  0  0
  9 10  2  0  0  0
 10 11  1  0  0  0
 11 12  2  0  0  0
 12 18  1  0  0  0
 18 19  1  0  0  0
 19 20  1  0  0  0
 20 21  1  0  0  0
 21 22  1  0  0  0
 12  3  1  0  0  0
 10  5  1  0  0  0
 28 23  1  0  0  0
 41 33  1  0  0  0
 42 33  1  0  0  0
 40 35  1  0  0  0
  1  2  1  0  0  0
 29 32  1  0  0  0
M  END
> <minimizedAffinity>
-7.26895

> <CNNscore>
0.3295713067

> <CNNaffinity>
6.9924788475

> <CNN_VS>
2.3045203686

> <CNNaffinity_variance>
0.1859477460

$$$$
[H]c1nc(N([H])c2c([H])c([H])c(N([H])C(=O)C34C([H])([H])C5([H])C([H])([H])C([H])(C([H])([H])C([H])(C5([H])[H])C3([H])[H])C4([H])[H])c(OC([H])([H])[H])c2[H])c2c([H])c(OC([H])([H])C([H])([H])OC([H])([H])[H])c(OC([H])([H])C([H])([H])OC([H])([H])[H])c([H])c2n1


 44 49  0  0  0  0  0  0  0  0999 V2000
    2.0639  -52.2298  -20.4515 N   0  0  0  0  0  0  0  0  0  0  0  0
    2.7733  -52.4716  -19.7178 H   0  0  0  0  0  0  0  0  0  0  0  0
   -1.7611  -52.4030  -17.2195 C   0  0  0  0  0  0  0  0  0  0  0  0
   -2.1261  -53.1532  -18.2833 C   0  0  0  0  0  0  0  0  0  0  0  0
   -1.2780  -53.2949  -19.3608 C   0  0  0  0  0  0  0  0  0  0  0  0
   -1.6261  -54.0374  -20.4299 N   0  0  0  0  0  0  0  0  0  0  0  0
   -0.7944  -54.1666  -21.4749 C   0  0  0  0  0  0  0  0  0  0  0  0
    0.3971  -53.5883  -21.5279 N   0  0  0  0  0  0  0  0  0  0  0  0
    0.7998  -52.8219  -20.4656 C   0  0  0  0  0  0  0  0  0  0  0  0
   -0.0472  -52.6724  -19.3686 C   0  0  0  0  0  0  0  0  0  0  0  0
    0.3334  -51.8941  -18.2714 C   0  0  0  0  0  0  0  0  0  0  0  0
   -0.5103  -51.7472  -17.1841 C   0  0  0  0  0  0  0  0  0  0  0  0
   -2.5425  -52.2255  -16.1256 O   0  0  0  0  0  0  0  0  0  0  0  0
   -3.8831  -52.5288  -15.9677 C   0  0  0  0  0  0  0  0  0  0  0  0
   -4.5829  -51.5579  -15.0798 C   0  0  0  0  0  0  0  0  0  0  0  0
   -4.2095  -49.3481  -14.7289 C   0  0  0  0  0  0  0  0  0  0  0  0
   -4.7108  -50.2865  -15.5880 O   0  0  0  0  0  0  0  0  0  0  0  0
   -0.2228  -51.0192  -16.0803 O   0  0  0  0  0  0  0  0  0  0  0  0
    0.2367  -49.7374  -15.9991 C   0  0  0  0  0  0  0  0  0  0  0  0
    1.1994  -49.4031  -14.9021 C   0  0  0  0  0  0  0  0  0  0  0  0
    2.4850  -49.6884  -15.3972 O   0  0  0  0  0  0  0  0  0  0  0  0
    3.2780  -48.5419  -15.3987 C   0  0  0  0  0  0  0  0  0  0  0  0
    2.4377  -51.2659  -21.4591 C   0  0  0  0  0  0  0  0  0  0  0  0
    1.6550  -50.1352  -21.6265 C   0  0  0  0  0  0  0  0  0  0  0  0
    1.9310  -49.1819  -22.6007 C   0  0  0  0  0  0  0  0  0  0  0  0
    2.9952  -49.2988  -23.4589 C   0  0  0  0  0  0  0  0  0  0  0  0
    3.7756  -50.4495  -23.2752 C   0  0  0  0  0  0  0  0  0  0  0  0
    3.4971  -51.3985  -22.3028 C   0  0  0  0  0  0  0  0  0  0  0  0
    3.3517  -48.3837  -24.4757 N   0  0  0  0  0  0  0  0  0  0  0  0
    3.1625  -48.5505  -25.8595 C   0  0  0  0  0  0  0  0  0  0  0  0
    2.6465  -49.5417  -26.3848 O   0  0  0  0  0  0  0  0  0  0  0  0
    3.8101  -47.4794  -24.1194 H   0  0  0  0  0  0  0  0  0  0  0  0
    3.6398  -47.4115  -26.7241 C   0  0  0  0  0  0  0  0  0  0  0  0
    4.0036  -47.9032  -28.0999 C   0  0  0  0  0  0  0  0  0  0  0  0
    4.4872  -46.6812  -28.8776 C   0  0  0  0  0  0  0  0  0  0  0  0
    3.4204  -45.6256  -28.9558 C   0  0  0  0  0  0  0  0  0  0  0  0
    2.9807  -45.2092  -27.5621 C   0  0  0  0  0  0  0  0  0  0  0  0
    4.1698  -44.6103  -26.8648 C   0  0  0  0  0  0  0  0  0  0  0  0
    5.3050  -45.5972  -26.8134 C   0  0  0  0  0  0  0  0  0  0  0  0
    5.6920  -46.0774  -28.1875 C   0  0  0  0  0  0  0  0  0  0  0  0
    4.8233  -46.7994  -26.0286 C   0  0  0  0  0  0  0  0  0  0  0  0
    2.4761  -46.4582  -26.8692 C   0  0  0  0  0  0  0  0  0  0  0  0
    4.8690  -50.6191  -24.1190 O   0  0  0  0  0  0  0  0  0  0  0  0
    6.0749  -51.1074  -23.5741 C   0  0  0  0  0  0  0  0  0  0  0  0
 16 17  1  0  0  0
 17 15  1  0  0  0
 15 14  1  0  0  0
 14 13  1  0  0  0
 13  3  1  0  0  0
  3  4  2  0  0  0
  4  5  1  0  0  0
  5  6  2  0  0  0
  6  7  1  0  0  0
  7  8  2  0  0  0
  8  9  1  0  0  0
  9  1  1  0  0  0
  1 23  1  0  0  0
 23 24  2  0  0  0
 24 25  1  0  0  0
 25 26  2  0  0  0
 26 29  1  0  0  0
 29 30  1  0  0  0
 30 31  2  0  0  0
 30 33  1  0  0  0
 33 34  1  0  0  0
 34 35  1  0  0  0
 35 36  1  0  0  0
 36 37  1  0  0  0
 37 38  1  0  0  0
 38 39  1  0  0  0
 39 40  1  0  0  0
 39 41  1  0  0  0
 37 42  1  0  0  0
 26 27  1  0  0  0
 27 43  1  0  0  0
 43 44  1  0  0  0
 27 28  2  0  0  0
  9 10  2  0  0  0
 10 11  1  0  0  0
 11 12  2  0  0  0
 12 18  1  0  0  0
 18 19  1  0  0  0
 19 20  1  0  0  0
 20 21  1  0  0  0
 21 22  1  0  0  0
 12  3  1  0  0  0
 10  5  1  0  0  0
 28 23  1  0  0  0
 41 33  1  0  0  0
 42 33  1  0  0  0
 40 35  1  0  0  0
  1  2  1  0  0  0
 29 32  1  0  0  0
M  END
> <minimizedAffinity>
-6.18316

> <CNNscore>
0.3088849485

> <CNNaffinity>
6.8011207581

> <CNN_VS>
2.1007637978

> <CNNaffinity_variance>
0.1697567254

$$$$
[H]c1nc(N([H])c2c([H])c([H])c(N([H])C(=O)C34C([H])([H])C5([H])C([H])([H])C([H])(C([H])([H])C([H])(C5([H])[H])C3([H])[H])C4([H])[H])c(OC([H])([H])[H])c2[H])c2c([H])c(OC([H])([H])C([H])([H])OC([H])([H])[H])c(OC([H])([H])C([H])([H])OC([H])([H])[H])c([H])c2n1


 44 49  0  0  0  0  0  0  0  0999 V2000
    1.2430  -53.9122  -23.7317 N   0  0  0  0  0  0  0  0  0  0  0  0
    1.7707  -54.7839  -23.9799 H   0  0  0  0  0  0  0  0  0  0  0  0
    0.2865  -52.3961  -19.0526 C   0  0  0  0  0  0  0  0  0  0  0  0
   -0.8436  -52.9873  -19.5008 C   0  0  0  0  0  0  0  0  0  0  0  0
   -0.9011  -53.5053  -20.7770 C   0  0  0  0  0  0  0  0  0  0  0  0
   -2.0196  -54.0964  -21.2406 N   0  0  0  0  0  0  0  0  0  0  0  0
   -2.0660  -54.5948  -22.4855 C   0  0  0  0  0  0  0  0  0  0  0  0
   -1.0417  -54.5424  -23.3252 N   0  0  0  0  0  0  0  0  0  0  0  0
    0.1203  -53.9513  -22.9029 C   0  0  0  0  0  0  0  0  0  0  0  0
    0.1926  -53.4259  -21.6138 C   0  0  0  0  0  0  0  0  0  0  0  0
    1.3627  -52.8136  -21.1551 C   0  0  0  0  0  0  0  0  0  0  0  0
    1.4307  -52.2921  -19.8748 C   0  0  0  0  0  0  0  0  0  0  0  0
    0.4138  -51.8712  -17.8089 O   0  0  0  0  0  0  0  0  0  0  0  0
   -0.4654  -51.0477  -17.1286 C   0  0  0  0  0  0  0  0  0  0  0  0
   -1.2166  -51.7751  -16.0668 C   0  0  0  0  0  0  0  0  0  0  0  0
   -1.8026  -49.7888  -15.1409 C   0  0  0  0  0  0  0  0  0  0  0  0
   -2.2160  -51.0532  -15.4574 O   0  0  0  0  0  0  0  0  0  0  0  0
    2.5207  -51.6885  -19.3471 O   0  0  0  0  0  0  0  0  0  0  0  0
    2.9591  -50.4094  -19.5273 C   0  0  0  0  0  0  0  0  0  0  0  0
    4.1761  -50.1951  -20.3729 C   0  0  0  0  0  0  0  0  0  0  0  0
    3.9142  -49.0678  -21.1728 O   0  0  0  0  0  0  0  0  0  0  0  0
    2.6771  -49.1884  -21.8041 C   0  0  0  0  0  0  0  0  0  0  0  0
    1.7095  -52.6617  -24.2822 C   0  0  0  0  0  0  0  0  0  0  0  0
    0.8085  -51.8453  -24.9460 C   0  0  0  0  0  0  0  0  0  0  0  0
    1.1921  -50.6448  -25.5341 C   0  0  0  0  0  0  0  0  0  0  0  0
    2.4865  -50.1912  -25.4955 C   0  0  0  0  0  0  0  0  0  0  0  0
    3.3843  -51.0307  -24.8203 C   0  0  0  0  0  0  0  0  0  0  0  0
    2.9983  -52.2276  -24.2352 C   0  0  0  0  0  0  0  0  0  0  0  0
    2.9666  -48.9888  -26.0629 N   0  0  0  0  0  0  0  0  0  0  0  0
    3.6101  -48.8448  -27.3053 C   0  0  0  0  0  0  0  0  0  0  0  0
    3.8471  -49.7712  -28.0867 O   0  0  0  0  0  0  0  0  0  0  0  0
    2.8057  -48.1158  -25.4571 H   0  0  0  0  0  0  0  0  0  0  0  0
    4.0223  -47.4404  -27.6666 C   0  0  0  0  0  0  0  0  0  0  0  0
    5.3292  -47.0831  -27.0097 C   0  0  0  0  0  0  0  0  0  0  0  0
    5.6387  -45.6466  -27.4250 C   0  0  0  0  0  0  0  0  0  0  0  0
    5.7431  -45.5198  -28.9188 C   0  0  0  0  0  0  0  0  0  0  0  0
    4.4574  -45.9832  -29.5833 C   0  0  0  0  0  0  0  0  0  0  0  0
    3.3496  -45.0786  -29.1214 C   0  0  0  0  0  0  0  0  0  0  0  0
    3.2359  -45.1056  -27.6208 C   0  0  0  0  0  0  0  0  0  0  0  0
    4.5323  -44.7265  -26.9543 C   0  0  0  0  0  0  0  0  0  0  0  0
    2.9145  -46.5294  -27.2176 C   0  0  0  0  0  0  0  0  0  0  0  0
    4.2392  -47.4218  -29.1621 C   0  0  0  0  0  0  0  0  0  0  0  0
    4.7117  -50.6192  -24.7504 O   0  0  0  0  0  0  0  0  0  0  0  0
    5.5330  -51.1526  -23.7352 C   0  0  0  0  0  0  0  0  0  0  0  0
 16 17  1  0  0  0
 17 15  1  0  0  0
 15 14  1  0  0  0
 14 13  1  0  0  0
 13  3  1  0  0  0
  3  4  2  0  0  0
  4  5  1  0  0  0
  5  6  2  0  0  0
  6  7  1  0  0  0
  7  8  2  0  0  0
  8  9  1  0  0  0
  9  1  1  0  0  0
  1 23  1  0  0  0
 23 24  2  0  0  0
 24 25  1  0  0  0
 25 26  2  0  0  0
 26 29  1  0  0  0
 29 30  1  0  0  0
 30 31  2  0  0  0
 30 33  1  0  0  0
 33 34  1  0  0  0
 34 35  1  0  0  0
 35 36  1  0  0  0
 36 37  1  0  0  0
 37 38  1  0  0  0
 38 39  1  0  0  0
 39 40  1  0  0  0
 39 41  1  0  0  0
 37 42  1  0  0  0
 26 27  1  0  0  0
 27 43  1  0  0  0
 43 44  1  0  0  0
 27 28  2  0  0  0
  9 10  2  0  0  0
 10 11  1  0  0  0
 11 12  2  0  0  0
 12 18  1  0  0  0
 18 19  1  0  0  0
 19 20  1  0  0  0
 20 21  1  0  0  0
 21 22  1  0  0  0
 12  3  1  0  0  0
 10  5  1  0  0  0
 28 23  1  0  0  0
 41 33  1  0  0  0
 42 33  1  0  0  0
 40 35  1  0  0  0
  1  2  1  0  0  0
 29 32  1  0  0  0
M  END
> <minimizedAffinity>
-5.64817

> <CNNscore>
0.2941541374

> <CNNaffinity>
6.8454313278

> <CNN_VS>
2.0136120319

> <CNNaffinity_variance>
0.1742072403

$$$$
[H]c1nc(N([H])c2c([H])c([H])c(N([H])C(=O)C34C([H])([H])C5([H])C([H])([H])C([H])(C([H])([H])C([H])(C5([H])[H])C3([H])[H])C4([H])[H])c(OC([H])([H])[H])c2[H])c2c([H])c(OC([H])([H])C([H])([H])OC([H])([H])[H])c(OC([H])([H])C([H])([H])OC([H])([H])[H])c([H])c2n1


 44 49  0  0  0  0  0  0  0  0999 V2000
    2.0479  -52.0308  -20.2442 N   0  0  0  0  0  0  0  0  0  0  0  0
    2.7541  -52.1298  -19.4752 H   0  0  0  0  0  0  0  0  0  0  0  0
   -1.6442  -52.1652  -16.8592 C   0  0  0  0  0  0  0  0  0  0  0  0
   -2.0221  -52.9810  -17.8688 C   0  0  0  0  0  0  0  0  0  0  0  0
   -1.2107  -53.1497  -18.9704 C   0  0  0  0  0  0  0  0  0  0  0  0
   -1.5722  -53.9575  -19.9863 N   0  0  0  0  0  0  0  0  0  0  0  0
   -0.7764  -54.1125  -21.0555 C   0  0  0  0  0  0  0  0  0  0  0  0
    0.3910  -53.4981  -21.1844 N   0  0  0  0  0  0  0  0  0  0  0  0
    0.8059  -52.6648  -20.1787 C   0  0  0  0  0  0  0  0  0  0  0  0
   -0.0039  -52.4874  -19.0580 C   0  0  0  0  0  0  0  0  0  0  0  0
    0.3899  -51.6413  -18.0172 C   0  0  0  0  0  0  0  0  0  0  0  0
   -0.4170  -51.4668  -16.9062 C   0  0  0  0  0  0  0  0  0  0  0  0
   -2.3896  -51.9578  -15.7457 O   0  0  0  0  0  0  0  0  0  0  0  0
   -3.7625  -51.8206  -15.6428 C   0  0  0  0  0  0  0  0  0  0  0  0
   -4.1996  -51.5269  -14.2488 C   0  0  0  0  0  0  0  0  0  0  0  0
   -4.7941  -49.4590  -14.9674 C   0  0  0  0  0  0  0  0  0  0  0  0
   -4.2852  -50.1917  -13.9309 O   0  0  0  0  0  0  0  0  0  0  0  0
   -0.1141  -50.6736  -15.8526 O   0  0  0  0  0  0  0  0  0  0  0  0
    1.0800  -50.5277  -15.2096 C   0  0  0  0  0  0  0  0  0  0  0  0
    1.2379  -51.1671  -13.8648 C   0  0  0  0  0  0  0  0  0  0  0  0
    2.0510  -52.2996  -14.0532 O   0  0  0  0  0  0  0  0  0  0  0  0
    3.3251  -51.9261  -14.4780 C   0  0  0  0  0  0  0  0  0  0  0  0
    2.4025  -51.2203  -21.3851 C   0  0  0  0  0  0  0  0  0  0  0  0
    1.7706  -50.0002  -21.5615 C   0  0  0  0  0  0  0  0  0  0  0  0
    2.0328  -49.1826  -22.6555 C   0  0  0  0  0  0  0  0  0  0  0  0
    2.9333  -49.5305  -23.6306 C   0  0  0  0  0  0  0  0  0  0  0  0
    3.5625  -50.7686  -23.4357 C   0  0  0  0  0  0  0  0  0  0  0  0
    3.2982  -51.5818  -22.3436 C   0  0  0  0  0  0  0  0  0  0  0  0
    3.2627  -48.7663  -24.7733 N   0  0  0  0  0  0  0  0  0  0  0  0
    3.4142  -47.3693  -24.8341 C   0  0  0  0  0  0  0  0  0  0  0  0
    3.2775  -46.6041  -23.8746 O   0  0  0  0  0  0  0  0  0  0  0  0
    3.4061  -49.3438  -25.6682 H   0  0  0  0  0  0  0  0  0  0  0  0
    3.7687  -46.8109  -26.1888 C   0  0  0  0  0  0  0  0  0  0  0  0
    5.1849  -46.2997  -26.2004 C   0  0  0  0  0  0  0  0  0  0  0  0
    5.4286  -45.7449  -27.6021 C   0  0  0  0  0  0  0  0  0  0  0  0
    5.2380  -46.8046  -28.6504 C   0  0  0  0  0  0  0  0  0  0  0  0
    3.8394  -47.3927  -28.5644 C   0  0  0  0  0  0  0  0  0  0  0  0
    2.8587  -46.2885  -28.8434 C   0  0  0  0  0  0  0  0  0  0  0  0
    3.0431  -45.1583  -27.8666 C   0  0  0  0  0  0  0  0  0  0  0  0
    4.4512  -44.6243  -27.8876 C   0  0  0  0  0  0  0  0  0  0  0  0
    2.7855  -45.7123  -26.4810 C   0  0  0  0  0  0  0  0  0  0  0  0
    3.6863  -47.9593  -27.1679 C   0  0  0  0  0  0  0  0  0  0  0  0
    4.4863  -51.1718  -24.3951 O   0  0  0  0  0  0  0  0  0  0  0  0
    5.8395  -51.3019  -24.0189 C   0  0  0  0  0  0  0  0  0  0  0  0
 16 17  1  0  0  0
 17 15  1  0  0  0
 15 14  1  0  0  0
 14 13  1  0  0  0
 13  3  1  0  0  0
  3  4  2  0  0  0
  4  5  1  0  0  0
  5  6  2  0  0  0
  6  7  1  0  0  0
  7  8  2  0  0  0
  8  9  1  0  0  0
  9  1  1  0  0  0
  1 23  1  0  0  0
 23 24  2  0  0  0
 24 25  1  0  0  0
 25 26  2  0  0  0
 26 29  1  0  0  0
 29 30  1  0  0  0
 30 31  2  0  0  0
 30 33  1  0  0  0
 33 34  1  0  0  0
 34 35  1  0  0  0
 35 36  1  0  0  0
 36 37  1  0  0  0
 37 38  1  0  0  0
 38 39  1  0  0  0
 39 40  1  0  0  0
 39 41  1  0  0  0
 37 42  1  0  0  0
 26 27  1  0  0  0
 27 43  1  0  0  0
 43 44  1  0  0  0
 27 28  2  0  0  0
  9 10  2  0  0  0
 10 11  1  0  0  0
 11 12  2  0  0  0
 12 18  1  0  0  0
 18 19  1  0  0  0
 19 20  1  0  0  0
 20 21  1  0  0  0
 21 22  1  0  0  0
 12  3  1  0  0  0
 10  5  1  0  0  0
 28 23  1  0  0  0
 41 33  1  0  0  0
 42 33  1  0  0  0
 40 35  1  0  0  0
  1  2  1  0  0  0
 29 32  1  0  0  0
M  END
> <minimizedAffinity>
-6.42329

> <CNNscore>
0.2728571296

> <CNNaffinity>
6.9358940125

> <CNN_VS>
1.8925081491

> <CNNaffinity_variance>
0.2914460599

$$$$
[H]c1nc(N([H])c2c([H])c([H])c(N([H])C(=O)C34C([H])([H])C5([H])C([H])([H])C([H])(C([H])([H])C([H])(C5([H])[H])C3([H])[H])C4([H])[H])c(OC([H])([H])[H])c2[H])c2c([H])c(OC([H])([H])C([H])([H])OC([H])([H])[H])c(OC([H])([H])C([H])([H])OC([H])([H])[H])c([H])c2n1


 44 49  0  0  0  0  0  0  0  0999 V2000
    1.8288  -52.0063  -20.5200 N   0  0  0  0  0  0  0  0  0  0  0  0
    2.7355  -52.2598  -20.9821 H   0  0  0  0  0  0  0  0  0  0  0  0
   -0.1288  -54.1637  -24.5967 C   0  0  0  0  0  0  0  0  0  0  0  0
   -1.0306  -54.3346  -23.6043 C   0  0  0  0  0  0  0  0  0  0  0  0
   -0.7739  -53.8538  -22.3380 C   0  0  0  0  0  0  0  0  0  0  0  0
   -1.6606  -54.0164  -21.3367 N   0  0  0  0  0  0  0  0  0  0  0  0
   -1.3997  -53.5472  -20.1070 C   0  0  0  0  0  0  0  0  0  0  0  0
   -0.2808  -52.9071  -19.7985 N   0  0  0  0  0  0  0  0  0  0  0  0
    0.6548  -52.7150  -20.7812 C   0  0  0  0  0  0  0  0  0  0  0  0
    0.4066  -53.1938  -22.0666 C   0  0  0  0  0  0  0  0  0  0  0  0
    1.3428  -53.0168  -23.0896 C   0  0  0  0  0  0  0  0  0  0  0  0
    1.0934  -53.4943  -24.3645 C   0  0  0  0  0  0  0  0  0  0  0  0
   -0.3187  -54.6055  -25.8646 O   0  0  0  0  0  0  0  0  0  0  0  0
   -0.0162  -53.9650  -27.0531 C   0  0  0  0  0  0  0  0  0  0  0  0
   -0.9297  -52.8202  -27.3281 C   0  0  0  0  0  0  0  0  0  0  0  0
   -1.2204  -52.9249  -29.5754 C   0  0  0  0  0  0  0  0  0  0  0  0
   -0.7300  -52.1881  -28.5330 O   0  0  0  0  0  0  0  0  0  0  0  0
    1.9382  -53.3638  -25.4136 O   0  0  0  0  0  0  0  0  0  0  0  0
    3.0512  -52.5826  -25.5211 C   0  0  0  0  0  0  0  0  0  0  0  0
    2.8748  -51.1638  -25.9660 C   0  0  0  0  0  0  0  0  0  0  0  0
    3.8535  -50.4091  -25.2938 O   0  0  0  0  0  0  0  0  0  0  0  0
    3.2974  -49.2503  -24.7542 C   0  0  0  0  0  0  0  0  0  0  0  0
    1.8275  -50.8897  -19.6049 C   0  0  0  0  0  0  0  0  0  0  0  0
    2.8261  -49.9355  -19.7121 C   0  0  0  0  0  0  0  0  0  0  0  0
    2.9113  -48.8529  -18.8432 C   0  0  0  0  0  0  0  0  0  0  0  0
    2.0132  -48.6595  -17.8240 C   0  0  0  0  0  0  0  0  0  0  0  0
    1.0102  -49.6352  -17.7305 C   0  0  0  0  0  0  0  0  0  0  0  0
    0.9285  -50.7140  -18.5986 C   0  0  0  0  0  0  0  0  0  0  0  0
    2.0210  -47.5932  -16.8960 N   0  0  0  0  0  0  0  0  0  0  0  0
    2.9407  -47.3970  -15.8501 C   0  0  0  0  0  0  0  0  0  0  0  0
    3.8882  -48.1471  -15.5962 O   0  0  0  0  0  0  0  0  0  0  0  0
    1.2309  -46.8778  -17.0339 H   0  0  0  0  0  0  0  0  0  0  0  0
    2.7135  -46.1698  -15.0045 C   0  0  0  0  0  0  0  0  0  0  0  0
    3.3733  -46.3200  -13.6594 C   0  0  0  0  0  0  0  0  0  0  0  0
    3.0659  -45.0396  -12.8862 C   0  0  0  0  0  0  0  0  0  0  0  0
    3.5919  -43.8281  -13.6033 C   0  0  0  0  0  0  0  0  0  0  0  0
    3.0032  -43.7402  -15.0015 C   0  0  0  0  0  0  0  0  0  0  0  0
    1.5148  -43.5832  -14.8644 C   0  0  0  0  0  0  0  0  0  0  0  0
    0.9306  -44.7348  -14.0912 C   0  0  0  0  0  0  0  0  0  0  0  0
    1.5681  -44.8788  -12.7342 C   0  0  0  0  0  0  0  0  0  0  0  0
    1.2263  -45.9987  -14.8710 C   0  0  0  0  0  0  0  0  0  0  0  0
    3.3833  -45.0189  -15.7193 C   0  0  0  0  0  0  0  0  0  0  0  0
    0.0713  -49.4884  -16.7140 O   0  0  0  0  0  0  0  0  0  0  0  0
   -0.4731  -50.6477  -16.1230 C   0  0  0  0  0  0  0  0  0  0  0  0
 16 17  1  0  0  0
 17 15  1  0  0  0
 15 14  1  0  0  0
 14 13  1  0  0  0
 13  3  1  0  0  0
  3  4  2  0  0  0
  4  5  1  0  0  0
  5  6  2  0  0  0
  6  7  1  0  0  0
  7  8  2  0  0  0
  8  9  1  0  0  0
  9  1  1  0  0  0
  1 23  1  0  0  0
 23 24  2  0  0  0
 24 25  1  0  0  0
 25 26  2  0  0  0
 26 29  1  0  0  0
 29 30  1  0  0  0
 30 31  2  0  0  0
 30 33  1  0  0  0
 33 34  1  0  0  0
 34 35  1  0  0  0
 35 36  1  0  0  0
 36 37  1  0  0  0
 37 38  1  0  0  0
 38 39  1  0  0  0
 39 40  1  0  0  0
 39 41  1  0  0  0
 37 42  1  0  0  0
 26 27  1  0  0  0
 27 43  1  0  0  0
 43 44  1  0  0  0
 27 28  2  0  0  0
  9 10  2  0  0  0
 10 11  1  0  0  0
 11 12  2  0  0  0
 12 18  1  0  0  0
 18 19  1  0  0  0
 19 20  1  0  0  0
 20 21  1  0  0  0
 21 22  1  0  0  0
 12  3  1  0  0  0
 10  5  1  0  0  0
 28 23  1  0  0  0
 41 33  1  0  0  0
 42 33  1  0  0  0
 40 35  1  0  0  0
  1  2  1  0  0  0
 29 32  1  0  0  0
M  END
> <minimizedAffinity>
-6.12693

> <CNNscore>
0.2708785832

> <CNNaffinity>
6.7234582901

> <CNN_VS>
1.8212409019

> <CNNaffinity_variance>
0.1592982113

$$$$
[H]c1nc(N([H])c2c([H])c([H])c(N([H])C(=O)C34C([H])([H])C5([H])C([H])([H])C([H])(C([H])([H])C([H])(C5([H])[H])C3([H])[H])C4([H])[H])c(OC([H])([H])[H])c2[H])c2c([H])c(OC([H])([H])C([H])([H])OC([H])([H])[H])c(OC([H])([H])C([H])([H])OC([H])([H])[H])c([H])c2n1


 44 49  0  0  0  0  0  0  0  0999 V2000
   -0.2528  -50.8607  -21.1440 N   0  0  0  0  0  0  0  0  0  0  0  0
   -1.0231  -50.1632  -21.0025 H   0  0  0  0  0  0  0  0  0  0  0  0
    0.4963  -53.3705  -25.4156 C   0  0  0  0  0  0  0  0  0  0  0  0
   -0.1370  -54.2223  -24.5785 C   0  0  0  0  0  0  0  0  0  0  0  0
   -0.4761  -53.8240  -23.3031 C   0  0  0  0  0  0  0  0  0  0  0  0
   -1.1061  -54.6603  -22.4551 N   0  0  0  0  0  0  0  0  0  0  0  0
   -1.4291  -54.2636  -21.2146 C   0  0  0  0  0  0  0  0  0  0  0  0
   -1.1586  -53.0528  -20.7481 N   0  0  0  0  0  0  0  0  0  0  0  0
   -0.5186  -52.1630  -21.5707 C   0  0  0  0  0  0  0  0  0  0  0  0
   -0.1724  -52.5522  -22.8637 C   0  0  0  0  0  0  0  0  0  0  0  0
    0.4843  -51.6687  -23.7255 C   0  0  0  0  0  0  0  0  0  0  0  0
    0.8273  -52.0587  -25.0084 C   0  0  0  0  0  0  0  0  0  0  0  0
    0.8537  -53.6940  -26.6829 O   0  0  0  0  0  0  0  0  0  0  0  0
    0.0353  -53.9833  -27.7603 C   0  0  0  0  0  0  0  0  0  0  0  0
    0.2163  -53.0211  -28.8837 C   0  0  0  0  0  0  0  0  0  0  0  0
   -1.9709  -52.6210  -28.4339 C   0  0  0  0  0  0  0  0  0  0  0  0
   -0.9174  -52.3390  -29.2590 O   0  0  0  0  0  0  0  0  0  0  0  0
    1.4578  -51.2702  -25.9093 O   0  0  0  0  0  0  0  0  0  0  0  0
    2.7837  -50.9608  -25.9922 C   0  0  0  0  0  0  0  0  0  0  0  0
    3.1724  -49.7253  -26.7437 C   0  0  0  0  0  0  0  0  0  0  0  0
    3.0094  -48.6478  -25.8538 O   0  0  0  0  0  0  0  0  0  0  0  0
    3.4256  -47.4550  -26.4430 C   0  0  0  0  0  0  0  0  0  0  0  0
    1.1002  -50.4349  -20.8751 C   0  0  0  0  0  0  0  0  0  0  0  0
    1.3081  -49.1978  -20.2873 C   0  0  0  0  0  0  0  0  0  0  0  0
    2.5832  -48.7047  -20.0324 C   0  0  0  0  0  0  0  0  0  0  0  0
    3.7175  -49.4103  -20.3460 C   0  0  0  0  0  0  0  0  0  0  0  0
    3.4877  -50.6595  -20.9406 C   0  0  0  0  0  0  0  0  0  0  0  0
    2.2145  -51.1480  -21.1939 C   0  0  0  0  0  0  0  0  0  0  0  0
    5.0491  -48.9908  -20.1249 N   0  0  0  0  0  0  0  0  0  0  0  0
    5.8369  -48.2075  -20.9876 C   0  0  0  0  0  0  0  0  0  0  0  0
    5.4622  -47.7696  -22.0797 O   0  0  0  0  0  0  0  0  0  0  0  0
    5.4704  -49.3206  -19.1929 H   0  0  0  0  0  0  0  0  0  0  0  0
    7.2321  -47.9065  -20.5023 C   0  0  0  0  0  0  0  0  0  0  0  0
    7.4872  -46.4226  -20.5009 C   0  0  0  0  0  0  0  0  0  0  0  0
    8.9226  -46.2352  -20.0145 C   0  0  0  0  0  0  0  0  0  0  0  0
    9.1127  -46.8080  -18.6382 C   0  0  0  0  0  0  0  0  0  0  0  0
    8.7510  -48.2838  -18.6215 C   0  0  0  0  0  0  0  0  0  0  0  0
    9.6919  -48.9981  -19.5507 C   0  0  0  0  0  0  0  0  0  0  0  0
    9.6016  -48.4236  -20.9389 C   0  0  0  0  0  0  0  0  0  0  0  0
    9.8785  -46.9431  -20.9512 C   0  0  0  0  0  0  0  0  0  0  0  0
    8.1802  -48.6262  -21.4201 C   0  0  0  0  0  0  0  0  0  0  0  0
    7.3083  -48.3876  -19.0716 C   0  0  0  0  0  0  0  0  0  0  0  0
    4.6036  -51.4186  -21.2798 O   0  0  0  0  0  0  0  0  0  0  0  0
    4.6855  -51.9575  -22.5807 C   0  0  0  0  0  0  0  0  0  0  0  0
 16 17  1  0  0  0
 17 15  1  0  0  0
 15 14  1  0  0  0
 14 13  1  0  0  0
 13  3  1  0  0  0
  3  4  2  0  0  0
  4  5  1  0  0  0
  5  6  2  0  0  0
  6  7  1  0  0  0
  7  8  2  0  0  0
  8  9  1  0  0  0
  9  1  1  0  0  0
  1 23  1  0  0  0
 23 24  2  0  0  0
 24 25  1  0  0  0
 25 26  2  0  0  0
 26 29  1  0  0  0
 29 30  1  0  0  0
 30 31  2  0  0  0
 30 33  1  0  0  0
 33 34  1  0  0  0
 34 35  1  0  0  0
 35 36  1  0  0  0
 36 37  1  0  0  0
 37 38  1  0  0  0
 38 39  1  0  0  0
 39 40  1  0  0  0
 39 41  1  0  0  0
 37 42  1  0  0  0
 26 27  1  0  0  0
 27 43  1  0  0  0
 43 44  1  0  0  0
 27 28  2  0  0  0
  9 10  2  0  0  0
 10 11  1  0  0  0
 11 12  2  0  0  0
 12 18  1  0  0  0
 18 19  1  0  0  0
 19 20  1  0  0  0
 20 21  1  0  0  0
 21 22  1  0  0  0
 12  3  1  0  0  0
 10  5  1  0  0  0
 28 23  1  0  0  0
 41 33  1  0  0  0
 42 33  1  0  0  0
 40 35  1  0  0  0
  1  2  1  0  0  0
 29 32  1  0  0  0
M  END
> <minimizedAffinity>
-6.87714

> <CNNscore>
0.2260711640

> <CNNaffinity>
6.7581763268

> <CNN_VS>
1.5278288126

> <CNNaffinity_variance>
0.1831327826

$$$$
[H]c1nc(N([H])c2c([H])c([H])c(N([H])C(=O)C34C([H])([H])C5([H])C([H])([H])C([H])(C([H])([H])C([H])(C5([H])[H])C3([H])[H])C4([H])[H])c(OC([H])([H])[H])c2[H])c2c([H])c(OC([H])([H])C([H])([H])OC([H])([H])[H])c(OC([H])([H])C([H])([H])OC([H])([H])[H])c([H])c2n1


 44 49  0  0  0  0  0  0  0  0999 V2000
   -0.3343  -54.1272  -23.8763 N   0  0  0  0  0  0  0  0  0  0  0  0
   -0.6335  -55.1312  -23.9246 H   0  0  0  0  0  0  0  0  0  0  0  0
    3.5428  -51.2898  -25.2991 C   0  0  0  0  0  0  0  0  0  0  0  0
    2.6465  -51.2461  -26.3102 C   0  0  0  0  0  0  0  0  0  0  0  0
    1.4615  -51.9449  -26.2227 C   0  0  0  0  0  0  0  0  0  0  0  0
    0.5576  -51.9138  -27.2214 N   0  0  0  0  0  0  0  0  0  0  0  0
   -0.5916  -52.6000  -27.1274 C   0  0  0  0  0  0  0  0  0  0  0  0
   -0.9107  -53.3374  -26.0732 N   0  0  0  0  0  0  0  0  0  0  0  0
   -0.0256  -53.4028  -25.0290 C   0  0  0  0  0  0  0  0  0  0  0  0
    1.1753  -52.6989  -25.1036 C   0  0  0  0  0  0  0  0  0  0  0  0
    2.1003  -52.7485  -24.0566 C   0  0  0  0  0  0  0  0  0  0  0  0
    3.2920  -52.0490  -24.1343 C   0  0  0  0  0  0  0  0  0  0  0  0
    4.7237  -50.6237  -25.3166 O   0  0  0  0  0  0  0  0  0  0  0  0
    4.9405  -49.2587  -25.3810 C   0  0  0  0  0  0  0  0  0  0  0  0
    4.2622  -48.5246  -24.2757 C   0  0  0  0  0  0  0  0  0  0  0  0
    3.3462  -47.4279  -26.0376 C   0  0  0  0  0  0  0  0  0  0  0  0
    3.3792  -47.5492  -24.6760 O   0  0  0  0  0  0  0  0  0  0  0  0
    4.2403  -52.0356  -23.1692 O   0  0  0  0  0  0  0  0  0  0  0  0
    4.1846  -51.4778  -21.9256 C   0  0  0  0  0  0  0  0  0  0  0  0
    5.4054  -50.7787  -21.4125 C   0  0  0  0  0  0  0  0  0  0  0  0
    6.3421  -50.7870  -22.4622 O   0  0  0  0  0  0  0  0  0  0  0  0
    7.4838  -50.0692  -22.1094 C   0  0  0  0  0  0  0  0  0  0  0  0
   -0.2422  -53.5130  -22.5730 C   0  0  0  0  0  0  0  0  0  0  0  0
   -0.1936  -54.3256  -21.4522 C   0  0  0  0  0  0  0  0  0  0  0  0
   -0.1420  -53.8060  -20.1632 C   0  0  0  0  0  0  0  0  0  0  0  0
   -0.1360  -52.4560  -19.9176 C   0  0  0  0  0  0  0  0  0  0  0  0
   -0.1863  -51.6492  -21.0637 C   0  0  0  0  0  0  0  0  0  0  0  0
   -0.2382  -52.1710  -22.3478 C   0  0  0  0  0  0  0  0  0  0  0  0
   -0.0855  -51.8393  -18.6467 N   0  0  0  0  0  0  0  0  0  0  0  0
    1.0559  -51.3185  -18.0108 C   0  0  0  0  0  0  0  0  0  0  0  0
    2.1944  -51.3292  -18.4889 O   0  0  0  0  0  0  0  0  0  0  0  0
   -1.0335  -51.7778  -18.1442 H   0  0  0  0  0  0  0  0  0  0  0  0
    0.8243  -50.7140  -16.6493 C   0  0  0  0  0  0  0  0  0  0  0  0
    0.2640  -49.3219  -16.7728 C   0  0  0  0  0  0  0  0  0  0  0  0
    0.0879  -48.8030  -15.3474 C   0  0  0  0  0  0  0  0  0  0  0  0
   -0.8407  -49.6811  -14.5567 C   0  0  0  0  0  0  0  0  0  0  0  0
   -0.3241  -51.1098  -14.5254 C   0  0  0  0  0  0  0  0  0  0  0  0
    1.0069  -51.1021  -13.8274 C   0  0  0  0  0  0  0  0  0  0  0  0
    1.9682  -50.1831  -14.5322 C   0  0  0  0  0  0  0  0  0  0  0  0
    1.4263  -48.7820  -14.6399 C   0  0  0  0  0  0  0  0  0  0  0  0
    2.1492  -50.7120  -15.9396 C   0  0  0  0  0  0  0  0  0  0  0  0
   -0.2165  -51.5696  -15.9647 C   0  0  0  0  0  0  0  0  0  0  0  0
   -0.1826  -50.2708  -20.8731 O   0  0  0  0  0  0  0  0  0  0  0  0
    0.9436  -49.5327  -21.2932 C   0  0  0  0  0  0  0  0  0  0  0  0
 16 17  1  0  0  0
 17 15  1  0  0  0
 15 14  1  0  0  0
 14 13  1  0  0  0
 13  3  1  0  0  0
  3  4  2  0  0  0
  4  5  1  0  0  0
  5  6  2  0  0  0
  6  7  1  0  0  0
  7  8  2  0  0  0
  8  9  1  0  0  0
  9  1  1  0  0  0
  1 23  1  0  0  0
 23 24  2  0  0  0
 24 25  1  0  0  0
 25 26  2  0  0  0
 26 29  1  0  0  0
 29 30  1  0  0  0
 30 31  2  0  0  0
 30 33  1  0  0  0
 33 34  1  0  0  0
 34 35  1  0  0  0
 35 36  1  0  0  0
 36 37  1  0  0  0
 37 38  1  0  0  0
 38 39  1  0  0  0
 39 40  1  0  0  0
 39 41  1  0  0  0
 37 42  1  0  0  0
 26 27  1  0  0  0
 27 43  1  0  0  0
 43 44  1  0  0  0
 27 28  2  0  0  0
  9 10  2  0  0  0
 10 11  1  0  0  0
 11 12  2  0  0  0
 12 18  1  0  0  0
 18 19  1  0  0  0
 19 20  1  0  0  0
 20 21  1  0  0  0
 21 22  1  0  0  0
 12  3  1  0  0  0
 10  5  1  0  0  0
 28 23  1  0  0  0
 41 33  1  0  0  0
 42 33  1  0  0  0
 40 35  1  0  0  0
  1  2  1  0  0  0
 29 32  1  0  0  0
M  END
> <minimizedAffinity>
-7.18871

> <CNNscore>
0.1778168529

> <CNNaffinity>
6.5985946655

> <CNN_VS>
1.1733413935

> <CNNaffinity_variance>
0.7402797341

$$$$
[H]c1nc(N([H])c2c([H])c([H])c([H])c(Cl)c2[H])c2c(N([H])c3c([H])c([H])c(N([H])[H])c([H])c3[H])n([H])nc2n1


 30 33  0  0  0  0  0  0  0  0999 V2000
   -0.2042  -53.8489  -23.8019 C   0  0  0  0  0  0  0  0  0  0  0  0
   -0.9902  -54.9420  -24.0646 N   0  0  0  0  0  0  0  0  0  0  0  0
   -1.6744  -55.2808  -22.9929 N   0  0  0  0  0  0  0  0  0  0  0  0
   -1.3821  -54.4452  -21.9855 C   0  0  0  0  0  0  0  0  0  0  0  0
   -1.7751  -54.3470  -20.7134 N   0  0  0  0  0  0  0  0  0  0  0  0
   -1.3107  -53.3973  -19.8946 C   0  0  0  0  0  0  0  0  0  0  0  0
   -0.4276  -52.5165  -20.3608 N   0  0  0  0  0  0  0  0  0  0  0  0
    0.0341  -52.5349  -21.6483 C   0  0  0  0  0  0  0  0  0  0  0  0
   -0.4475  -53.5178  -22.4735 C   0  0  0  0  0  0  0  0  0  0  0  0
   -0.9907  -55.4094  -24.9943 H   0  0  0  0  0  0  0  0  0  0  0  0
    0.7622  -53.3005  -24.6773 N   0  0  0  0  0  0  0  0  0  0  0  0
    1.7100  -53.0029  -24.3922 H   0  0  0  0  0  0  0  0  0  0  0  0
   -0.2838  -52.7686  -30.2203 N   0  0  0  0  0  0  0  0  0  0  0  0
   -0.0110  -52.9229  -28.8444 C   0  0  0  0  0  0  0  0  0  0  0  0
    1.1794  -53.4538  -28.3726 C   0  0  0  0  0  0  0  0  0  0  0  0
    1.3961  -53.5836  -27.0174 C   0  0  0  0  0  0  0  0  0  0  0  0
    0.4453  -53.1936  -26.0837 C   0  0  0  0  0  0  0  0  0  0  0  0
   -0.7200  -52.6731  -26.5505 C   0  0  0  0  0  0  0  0  0  0  0  0
   -0.9621  -52.5323  -27.9182 C   0  0  0  0  0  0  0  0  0  0  0  0
    0.0827  -51.9543  -30.7341 H   0  0  0  0  0  0  0  0  0  0  0  0
   -0.8519  -53.4751  -30.7091 H   0  0  0  0  0  0  0  0  0  0  0  0
    0.8453  -51.4905  -22.1154 N   0  0  0  0  0  0  0  0  0  0  0  0
    1.1243  -51.2877  -23.0914 H   0  0  0  0  0  0  0  0  0  0  0  0
    1.3240  -50.5230  -21.1451 C   0  0  0  0  0  0  0  0  0  0  0  0
    1.0373  -49.1917  -21.1654 C   0  0  0  0  0  0  0  0  0  0  0  0
    1.5756  -48.3284  -20.2050 C   0  0  0  0  0  0  0  0  0  0  0  0
    2.3954  -48.7907  -19.2276 C   0  0  0  0  0  0  0  0  0  0  0  0
    2.7039  -50.1293  -19.1778 C   0  0  0  0  0  0  0  0  0  0  0  0
    3.7708  -50.7220  -17.9020 Cl  0  0  0  0  0  0  0  0  0  0  0  0
    2.1725  -50.9720  -20.1242 C   0  0  0  0  0  0  0  0  0  0  0  0
 13 14  1  0  0  0
 14 15  2  0  0  0
 15 16  1  0  0  0
 16 17  2  0  0  0
 17 11  1  0  0  0
 11  1  1  0  0  0
  1  2  1  0  0  0
  2  3  1  0  0  0
  3  4  2  0  0  0
  4  5  1  0  0  0
  5  6  2  0  0  0
  6  7  1  0  0  0
  7  8  2  0  0  0
  8 22  1  0  0  0
 22 24  1  0  0  0
 24 25  2  0  0  0
 25 26  1  0  0  0
 26 27  2  0  0  0
 27 28  1  0  0  0
 28 29  1  0  0  0
 28 30  2  0  0  0
  8  9  1  0  0  0
 17 18  1  0  0  0
 18 19  2  0  0  0
 19 14  1  0  0  0
  9  1  2  0  0  0
  9  4  1  0  0  0
 30 24  1  0  0  0
 13 20  1  0  0  0
 13 21  1  0  0  0
 11 12  1  0  0  0
  2 10  1  0  0  0
 22 23  1  0  0  0
M  END
> <minimizedAffinity>
-8.06645

> <CNNscore>
0.9321428537

> <CNNaffinity>
7.0515594482

> <CNN_VS>
6.5730605125

> <CNNaffinity_variance>
0.0946337730

$$$$
[H]c1nc(N([H])c2c([H])c([H])c([H])c(Cl)c2[H])c2c(N([H])c3c([H])c([H])c(N([H])[H])c([H])c3[H])n([H])nc2n1


 30 33  0  0  0  0  0  0  0  0999 V2000
   -0.2446  -53.7441  -23.7200 C   0  0  0  0  0  0  0  0  0  0  0  0
   -1.0186  -54.8602  -23.9117 N   0  0  0  0  0  0  0  0  0  0  0  0
   -1.6203  -55.1969  -22.7909 N   0  0  0  0  0  0  0  0  0  0  0  0
   -1.2820  -54.3371  -21.8188 C   0  0  0  0  0  0  0  0  0  0  0  0
   -1.5907  -54.2265  -20.5247 N   0  0  0  0  0  0  0  0  0  0  0  0
   -1.0963  -53.2518  -19.7542 C   0  0  0  0  0  0  0  0  0  0  0  0
   -0.2693  -52.3581  -20.2929 N   0  0  0  0  0  0  0  0  0  0  0  0
    0.1050  -52.3876  -21.6083 C   0  0  0  0  0  0  0  0  0  0  0  0
   -0.4061  -53.3960  -22.3835 C   0  0  0  0  0  0  0  0  0  0  0  0
   -1.0699  -55.3436  -24.8317 H   0  0  0  0  0  0  0  0  0  0  0  0
    0.6464  -53.1877  -24.6673 N   0  0  0  0  0  0  0  0  0  0  0  0
    1.5972  -52.8467  -24.4485 H   0  0  0  0  0  0  0  0  0  0  0  0
   -0.7366  -52.8823  -30.1533 N   0  0  0  0  0  0  0  0  0  0  0  0
   -0.3811  -52.9810  -28.7912 C   0  0  0  0  0  0  0  0  0  0  0  0
    0.8150  -53.5398  -28.3688 C   0  0  0  0  0  0  0  0  0  0  0  0
    1.1143  -53.6125  -27.0250 C   0  0  0  0  0  0  0  0  0  0  0  0
    0.2430  -53.1360  -26.0546 C   0  0  0  0  0  0  0  0  0  0  0  0
   -0.9282  -52.5884  -26.4731 C   0  0  0  0  0  0  0  0  0  0  0  0
   -1.2531  -52.5042  -27.8283 C   0  0  0  0  0  0  0  0  0  0  0  0
   -0.3717  -52.1110  -30.7306 H   0  0  0  0  0  0  0  0  0  0  0  0
   -1.3636  -53.5863  -30.5681 H   0  0  0  0  0  0  0  0  0  0  0  0
    0.8562  -51.3321  -22.1456 N   0  0  0  0  0  0  0  0  0  0  0  0
    0.5141  -50.5118  -22.6763 H   0  0  0  0  0  0  0  0  0  0  0  0
    2.2862  -51.3277  -21.8974 C   0  0  0  0  0  0  0  0  0  0  0  0
    2.8783  -50.8696  -20.7596 C   0  0  0  0  0  0  0  0  0  0  0  0
    4.2709  -50.8727  -20.6258 C   0  0  0  0  0  0  0  0  0  0  0  0
    5.0700  -51.3320  -21.6216 C   0  0  0  0  0  0  0  0  0  0  0  0
    4.5043  -51.8027  -22.7826 C   0  0  0  0  0  0  0  0  0  0  0  0
    5.5518  -52.3991  -24.0728 Cl  0  0  0  0  0  0  0  0  0  0  0  0
    3.1360  -51.7964  -22.9083 C   0  0  0  0  0  0  0  0  0  0  0  0
 13 14  1  0  0  0
 14 15  2  0  0  0
 15 16  1  0  0  0
 16 17  2  0  0  0
 17 11  1  0  0  0
 11  1  1  0  0  0
  1  2  1  0  0  0
  2  3  1  0  0  0
  3  4  2  0  0  0
  4  5  1  0  0  0
  5  6  2  0  0  0
  6  7  1  0  0  0
  7  8  2  0  0  0
  8 22  1  0  0  0
 22 24  1  0  0  0
 24 25  2  0  0  0
 25 26  1  0  0  0
 26 27  2  0  0  0
 27 28  1  0  0  0
 28 29  1  0  0  0
 28 30  2  0  0  0
  8  9  1  0  0  0
 17 18  1  0  0  0
 18 19  2  0  0  0
 19 14  1  0  0  0
  9  1  2  0  0  0
  9  4  1  0  0  0
 30 24  1  0  0  0
 13 20  1  0  0  0
 13 21  1  0  0  0
 11 12  1  0  0  0
  2 10  1  0  0  0
 22 23  1  0  0  0
M  END
> <minimizedAffinity>
-8.31237

> <CNNscore>
0.8985524774

> <CNNaffinity>
7.0921888351

> <CNN_VS>
6.3727040291

> <CNNaffinity_variance>
0.0509127863

$$$$
[H]c1nc(N([H])c2c([H])c([H])c([H])c(Cl)c2[H])c2c(N([H])c3c([H])c([H])c(N([H])[H])c([H])c3[H])n([H])nc2n1


 30 33  0  0  0  0  0  0  0  0999 V2000
   -0.1852  -53.7559  -22.7377 C   0  0  0  0  0  0  0  0  0  0  0  0
   -1.2455  -54.6260  -22.7226 N   0  0  0  0  0  0  0  0  0  0  0  0
   -1.8024  -54.6469  -21.5305 N   0  0  0  0  0  0  0  0  0  0  0  0
   -1.1518  -53.8075  -20.7114 C   0  0  0  0  0  0  0  0  0  0  0  0
   -1.2907  -53.4635  -19.4291 N   0  0  0  0  0  0  0  0  0  0  0  0
   -0.4795  -52.5819  -18.8351 C   0  0  0  0  0  0  0  0  0  0  0  0
    0.5001  -52.0246  -19.5440 N   0  0  0  0  0  0  0  0  0  0  0  0
    0.7216  -52.3120  -20.8629 C   0  0  0  0  0  0  0  0  0  0  0  0
   -0.1152  -53.2216  -21.4558 C   0  0  0  0  0  0  0  0  0  0  0  0
   -1.5149  -55.1806  -23.5607 H   0  0  0  0  0  0  0  0  0  0  0  0
    0.7249  -53.5859  -23.8071 N   0  0  0  0  0  0  0  0  0  0  0  0
    1.7514  -53.6719  -23.7228 H   0  0  0  0  0  0  0  0  0  0  0  0
   -1.5327  -52.5870  -28.9068 N   0  0  0  0  0  0  0  0  0  0  0  0
   -0.9689  -52.8106  -27.6326 C   0  0  0  0  0  0  0  0  0  0  0  0
   -1.2552  -52.0113  -26.5370 C   0  0  0  0  0  0  0  0  0  0  0  0
   -0.6769  -52.2727  -25.3132 C   0  0  0  0  0  0  0  0  0  0  0  0
    0.2026  -53.3315  -25.1309 C   0  0  0  0  0  0  0  0  0  0  0  0
    0.4801  -54.1131  -26.2074 C   0  0  0  0  0  0  0  0  0  0  0  0
   -0.0931  -53.8676  -27.4565 C   0  0  0  0  0  0  0  0  0  0  0  0
   -2.4803  -52.9289  -29.1226 H   0  0  0  0  0  0  0  0  0  0  0  0
   -0.9914  -52.0794  -29.6211 H   0  0  0  0  0  0  0  0  0  0  0  0
    1.6721  -51.5792  -21.5884 N   0  0  0  0  0  0  0  0  0  0  0  0
    2.1568  -51.8522  -22.4614 H   0  0  0  0  0  0  0  0  0  0  0  0
    1.9986  -50.2458  -21.1171 C   0  0  0  0  0  0  0  0  0  0  0  0
    2.1938  -49.9064  -19.8126 C   0  0  0  0  0  0  0  0  0  0  0  0
    2.4702  -48.5837  -19.4503 C   0  0  0  0  0  0  0  0  0  0  0  0
    2.5530  -47.6034  -20.3848 C   0  0  0  0  0  0  0  0  0  0  0  0
    2.3625  -47.9125  -21.7106 C   0  0  0  0  0  0  0  0  0  0  0  0
    2.4728  -46.6307  -22.9199 Cl  0  0  0  0  0  0  0  0  0  0  0  0
    2.0907  -49.2133  -22.0601 C   0  0  0  0  0  0  0  0  0  0  0  0
 13 14  1  0  0  0
 14 15  2  0  0  0
 15 16  1  0  0  0
 16 17  2  0  0  0
 17 11  1  0  0  0
 11  1  1  0  0  0
  1  2  1  0  0  0
  2  3  1  0  0  0
  3  4  2  0  0  0
  4  5  1  0  0  0
  5  6  2  0  0  0
  6  7  1  0  0  0
  7  8  2  0  0  0
  8 22  1  0  0  0
 22 24  1  0  0  0
 24 25  2  0  0  0
 25 26  1  0  0  0
 26 27  2  0  0  0
 27 28  1  0  0  0
 28 29  1  0  0  0
 28 30  2  0  0  0
  8  9  1  0  0  0
 17 18  1  0  0  0
 18 19  2  0  0  0
 19 14  1  0  0  0
  9  1  2  0  0  0
  9  4  1  0  0  0
 30 24  1  0  0  0
 13 20  1  0  0  0
 13 21  1  0  0  0
 11 12  1  0  0  0
  2 10  1  0  0  0
 22 23  1  0  0  0
M  END
> <minimizedAffinity>
-7.67043

> <CNNscore>
0.8240959644

> <CNNaffinity>
6.9475808144

> <CNN_VS>
5.7254734039

> <CNNaffinity_variance>
0.1383054852

$$$$
[H]c1nc(N([H])c2c([H])c([H])c([H])c(Cl)c2[H])c2c(N([H])c3c([H])c([H])c(N([H])[H])c([H])c3[H])n([H])nc2n1


 30 33  0  0  0  0  0  0  0  0999 V2000
   -0.3752  -52.2685  -21.1744 C   0  0  0  0  0  0  0  0  0  0  0  0
   -0.9320  -52.8606  -20.0694 N   0  0  0  0  0  0  0  0  0  0  0  0
   -1.4443  -54.0303  -20.3873 N   0  0  0  0  0  0  0  0  0  0  0  0
   -1.2561  -54.2677  -21.6938 C   0  0  0  0  0  0  0  0  0  0  0  0
   -1.5782  -55.2707  -22.5137 N   0  0  0  0  0  0  0  0  0  0  0  0
   -1.2707  -55.2552  -23.8149 C   0  0  0  0  0  0  0  0  0  0  0  0
   -0.6193  -54.2063  -24.3132 N   0  0  0  0  0  0  0  0  0  0  0  0
   -0.2457  -53.1319  -23.5533 C   0  0  0  0  0  0  0  0  0  0  0  0
   -0.5730  -53.1606  -22.2225 C   0  0  0  0  0  0  0  0  0  0  0  0
   -0.9371  -52.3952  -19.1388 H   0  0  0  0  0  0  0  0  0  0  0  0
    0.1394  -50.9521  -21.2314 N   0  0  0  0  0  0  0  0  0  0  0  0
   -0.4388  -50.0995  -21.3148 H   0  0  0  0  0  0  0  0  0  0  0  0
    5.7508  -50.2128  -20.9720 N   0  0  0  0  0  0  0  0  0  0  0  0
    4.3503  -50.3718  -21.0398 C   0  0  0  0  0  0  0  0  0  0  0  0
    3.5513  -49.6150  -21.8826 C   0  0  0  0  0  0  0  0  0  0  0  0
    2.1868  -49.8097  -21.9104 C   0  0  0  0  0  0  0  0  0  0  0  0
    1.5665  -50.7575  -21.1074 C   0  0  0  0  0  0  0  0  0  0  0  0
    2.3535  -51.4977  -20.2831 C   0  0  0  0  0  0  0  0  0  0  0  0
    3.7373  -51.3181  -20.2375 C   0  0  0  0  0  0  0  0  0  0  0  0
    6.3590  -50.6638  -21.6706 H   0  0  0  0  0  0  0  0  0  0  0  0
    6.1627  -49.6427  -20.2195 H   0  0  0  0  0  0  0  0  0  0  0  0
    0.5681  -52.1328  -24.1069 N   0  0  0  0  0  0  0  0  0  0  0  0
    0.7991  -51.2056  -23.7089 H   0  0  0  0  0  0  0  0  0  0  0  0
    1.2295  -52.4228  -25.3659 C   0  0  0  0  0  0  0  0  0  0  0  0
    2.5690  -52.6189  -25.5155 C   0  0  0  0  0  0  0  0  0  0  0  0
    3.1212  -52.8582  -26.7784 C   0  0  0  0  0  0  0  0  0  0  0  0
    2.3411  -52.9031  -27.8877 C   0  0  0  0  0  0  0  0  0  0  0  0
    0.9850  -52.7105  -27.7714 C   0  0  0  0  0  0  0  0  0  0  0  0
   -0.0225  -52.7714  -29.2201 Cl  0  0  0  0  0  0  0  0  0  0  0  0
    0.4487  -52.4754  -26.5284 C   0  0  0  0  0  0  0  0  0  0  0  0
 13 14  1  0  0  0
 14 15  2  0  0  0
 15 16  1  0  0  0
 16 17  2  0  0  0
 17 11  1  0  0  0
 11  1  1  0  0  0
  1  2  1  0  0  0
  2  3  1  0  0  0
  3  4  2  0  0  0
  4  5  1  0  0  0
  5  6  2  0  0  0
  6  7  1  0  0  0
  7  8  2  0  0  0
  8 22  1  0  0  0
 22 24  1  0  0  0
 24 25  2  0  0  0
 25 26  1  0  0  0
 26 27  2  0  0  0
 27 28  1  0  0  0
 28 29  1  0  0  0
 28 30  2  0  0  0
  8  9  1  0  0  0
 17 18  1  0  0  0
 18 19  2  0  0  0
 19 14  1  0  0  0
  9  1  2  0  0  0
  9  4  1  0  0  0
 30 24  1  0  0  0
 13 20  1  0  0  0
 13 21  1  0  0  0
 11 12  1  0  0  0
  2 10  1  0  0  0
 22 23  1  0  0  0
M  END
> <minimizedAffinity>
-8.03310

> <CNNscore>
0.7940521240

> <CNNaffinity>
6.7475609779

> <CNN_VS>
5.3579149246

> <CNNaffinity_variance>
0.1406536251

$$$$
[H]c1nc(N([H])c2c([H])c([H])c([H])c(Cl)c2[H])c2c(N([H])c3c([H])c([H])c(N([H])[H])c([H])c3[H])n([H])nc2n1


 30 33  0  0  0  0  0  0  0  0999 V2000
   -0.1968  -52.2391  -20.8944 C   0  0  0  0  0  0  0  0  0  0  0  0
   -0.6789  -52.9544  -19.8278 N   0  0  0  0  0  0  0  0  0  0  0  0
   -1.1807  -54.1004  -20.2357 N   0  0  0  0  0  0  0  0  0  0  0  0
   -1.0584  -54.2005  -21.5675 C   0  0  0  0  0  0  0  0  0  0  0  0
   -1.4015  -55.1252  -22.4671 N   0  0  0  0  0  0  0  0  0  0  0  0
   -1.1657  -54.9709  -23.7743 C   0  0  0  0  0  0  0  0  0  0  0  0
   -0.5667  -53.8594  -24.1966 N   0  0  0  0  0  0  0  0  0  0  0  0
   -0.1771  -52.8562  -23.3521 C   0  0  0  0  0  0  0  0  0  0  0  0
   -0.4307  -53.0272  -22.0159 C   0  0  0  0  0  0  0  0  0  0  0  0
   -0.6440  -52.5848  -18.8558 H   0  0  0  0  0  0  0  0  0  0  0  0
    0.2835  -50.9096  -20.8442 N   0  0  0  0  0  0  0  0  0  0  0  0
   -0.0041  -50.1573  -21.4918 H   0  0  0  0  0  0  0  0  0  0  0  0
    3.8488  -49.6734  -16.6178 N   0  0  0  0  0  0  0  0  0  0  0  0
    2.9807  -49.9883  -17.6849 C   0  0  0  0  0  0  0  0  0  0  0  0
    3.1982  -51.0616  -18.5345 C   0  0  0  0  0  0  0  0  0  0  0  0
    2.3190  -51.3259  -19.5630 C   0  0  0  0  0  0  0  0  0  0  0  0
    1.1966  -50.5396  -19.7862 C   0  0  0  0  0  0  0  0  0  0  0  0
    0.9867  -49.4888  -18.9505 C   0  0  0  0  0  0  0  0  0  0  0  0
    1.8633  -49.2014  -17.9026 C   0  0  0  0  0  0  0  0  0  0  0  0
    3.7735  -50.1759  -15.7216 H   0  0  0  0  0  0  0  0  0  0  0  0
    4.5591  -48.9376  -16.7395 H   0  0  0  0  0  0  0  0  0  0  0  0
    0.5822  -51.7841  -23.8430 N   0  0  0  0  0  0  0  0  0  0  0  0
    0.2681  -50.8174  -24.0389 H   0  0  0  0  0  0  0  0  0  0  0  0
    1.9999  -52.0061  -24.0612 C   0  0  0  0  0  0  0  0  0  0  0  0
    2.5377  -52.5681  -25.1792 C   0  0  0  0  0  0  0  0  0  0  0  0
    3.9174  -52.7749  -25.2840 C   0  0  0  0  0  0  0  0  0  0  0  0
    4.7577  -52.4216  -24.2789 C   0  0  0  0  0  0  0  0  0  0  0  0
    4.2474  -51.8508  -23.1373 C   0  0  0  0  0  0  0  0  0  0  0  0
    5.3484  -51.3936  -21.8349 Cl  0  0  0  0  0  0  0  0  0  0  0  0
    2.8915  -51.6508  -23.0401 C   0  0  0  0  0  0  0  0  0  0  0  0
 13 14  1  0  0  0
 14 15  2  0  0  0
 15 16  1  0  0  0
 16 17  2  0  0  0
 17 11  1  0  0  0
 11  1  1  0  0  0
  1  2  1  0  0  0
  2  3  1  0  0  0
  3  4  2  0  0  0
  4  5  1  0  0  0
  5  6  2  0  0  0
  6  7  1  0  0  0
  7  8  2  0  0  0
  8 22  1  0  0  0
 22 24  1  0  0  0
 24 25  2  0  0  0
 25 26  1  0  0  0
 26 27  2  0  0  0
 27 28  1  0  0  0
 28 29  1  0  0  0
 28 30  2  0  0  0
  8  9  1  0  0  0
 17 18  1  0  0  0
 18 19  2  0  0  0
 19 14  1  0  0  0
  9  1  2  0  0  0
  9  4  1  0  0  0
 30 24  1  0  0  0
 13 20  1  0  0  0
 13 21  1  0  0  0
 11 12  1  0  0  0
  2 10  1  0  0  0
 22 23  1  0  0  0
M  END
> <minimizedAffinity>
-7.48220

> <CNNscore>
0.7566806674

> <CNNaffinity>
6.6095185280

> <CNN_VS>
5.0012950897

> <CNNaffinity_variance>
0.0868157297

$$$$
[H]c1nc(N([H])c2c([H])c([H])c([H])c(Cl)c2[H])c2c(N([H])c3c([H])c([H])c(N([H])[H])c([H])c3[H])n([H])nc2n1


 30 33  0  0  0  0  0  0  0  0999 V2000
   -0.2228  -52.8759  -24.4042 C   0  0  0  0  0  0  0  0  0  0  0  0
   -0.6433  -54.0180  -25.0368 N   0  0  0  0  0  0  0  0  0  0  0  0
   -1.1362  -54.8693  -24.1628 N   0  0  0  0  0  0  0  0  0  0  0  0
   -1.0688  -54.3441  -22.9307 C   0  0  0  0  0  0  0  0  0  0  0  0
   -1.4109  -54.7757  -21.7146 N   0  0  0  0  0  0  0  0  0  0  0  0
   -1.2244  -54.0358  -20.6165 C   0  0  0  0  0  0  0  0  0  0  0  0
   -0.6813  -52.8260  -20.7362 N   0  0  0  0  0  0  0  0  0  0  0  0
   -0.2994  -52.2966  -21.9383 C   0  0  0  0  0  0  0  0  0  0  0  0
   -0.4921  -53.0697  -23.0538 C   0  0  0  0  0  0  0  0  0  0  0  0
   -0.5439  -54.1468  -26.0646 H   0  0  0  0  0  0  0  0  0  0  0  0
    0.4827  -51.8107  -25.0113 N   0  0  0  0  0  0  0  0  0  0  0  0
    0.0401  -51.0364  -25.5336 H   0  0  0  0  0  0  0  0  0  0  0  0
    6.1239  -51.4748  -24.6026 N   0  0  0  0  0  0  0  0  0  0  0  0
    4.7169  -51.5350  -24.6945 C   0  0  0  0  0  0  0  0  0  0  0  0
    3.9409  -50.4344  -25.0227 C   0  0  0  0  0  0  0  0  0  0  0  0
    2.5690  -50.5466  -25.0989 C   0  0  0  0  0  0  0  0  0  0  0  0
    1.9185  -51.7485  -24.8538 C   0  0  0  0  0  0  0  0  0  0  0  0
    2.6831  -52.8252  -24.5330 C   0  0  0  0  0  0  0  0  0  0  0  0
    4.0738  -52.7356  -24.4495 C   0  0  0  0  0  0  0  0  0  0  0  0
    6.7028  -51.5366  -25.4524 H   0  0  0  0  0  0  0  0  0  0  0  0
    6.5697  -51.3686  -23.6802 H   0  0  0  0  0  0  0  0  0  0  0  0
    0.1248  -50.9619  -22.0117 N   0  0  0  0  0  0  0  0  0  0  0  0
   -0.2501  -50.2058  -22.6112 H   0  0  0  0  0  0  0  0  0  0  0  0
    1.1801  -50.5393  -21.1093 C   0  0  0  0  0  0  0  0  0  0  0  0
    0.9875  -49.8297  -19.9628 C   0  0  0  0  0  0  0  0  0  0  0  0
    2.0732  -49.4355  -19.1735 C   0  0  0  0  0  0  0  0  0  0  0  0
    3.3458  -49.7486  -19.5249 C   0  0  0  0  0  0  0  0  0  0  0  0
    3.5750  -50.4651  -20.6753 C   0  0  0  0  0  0  0  0  0  0  0  0
    5.2342  -50.8687  -21.1244 Cl  0  0  0  0  0  0  0  0  0  0  0  0
    2.5046  -50.8488  -21.4467 C   0  0  0  0  0  0  0  0  0  0  0  0
 13 14  1  0  0  0
 14 15  2  0  0  0
 15 16  1  0  0  0
 16 17  2  0  0  0
 17 11  1  0  0  0
 11  1  1  0  0  0
  1  2  1  0  0  0
  2  3  1  0  0  0
  3  4  2  0  0  0
  4  5  1  0  0  0
  5  6  2  0  0  0
  6  7  1  0  0  0
  7  8  2  0  0  0
  8 22  1  0  0  0
 22 24  1  0  0  0
 24 25  2  0  0  0
 25 26  1  0  0  0
 26 27  2  0  0  0
 27 28  1  0  0  0
 28 29  1  0  0  0
 28 30  2  0  0  0
  8  9  1  0  0  0
 17 18  1  0  0  0
 18 19  2  0  0  0
 19 14  1  0  0  0
  9  1  2  0  0  0
  9  4  1  0  0  0
 30 24  1  0  0  0
 13 20  1  0  0  0
 13 21  1  0  0  0
 11 12  1  0  0  0
  2 10  1  0  0  0
 22 23  1  0  0  0
M  END
> <minimizedAffinity>
-7.45597

> <CNNscore>
0.7546631694

> <CNNaffinity>
6.7081136703

> <CNN_VS>
5.0623664856

> <CNNaffinity_variance>
0.0609513894

$$$$
[H]c1nc(N([H])c2c([H])c([H])c([H])c(Cl)c2[H])c2c(N([H])c3c([H])c([H])c(N([H])[H])c([H])c3[H])n([H])nc2n1


 30 33  0  0  0  0  0  0  0  0999 V2000
   -0.2399  -52.8344  -24.2961 C   0  0  0  0  0  0  0  0  0  0  0  0
   -0.6851  -53.9658  -24.9310 N   0  0  0  0  0  0  0  0  0  0  0  0
   -1.1859  -54.8128  -24.0573 N   0  0  0  0  0  0  0  0  0  0  0  0
   -1.0998  -54.2950  -22.8231 C   0  0  0  0  0  0  0  0  0  0  0  0
   -1.4397  -54.7267  -21.6065 N   0  0  0  0  0  0  0  0  0  0  0  0
   -1.2319  -53.9956  -20.5063 C   0  0  0  0  0  0  0  0  0  0  0  0
   -0.6688  -52.7948  -20.6245 N   0  0  0  0  0  0  0  0  0  0  0  0
   -0.2872  -52.2662  -21.8270 C   0  0  0  0  0  0  0  0  0  0  0  0
   -0.5021  -53.0302  -22.9446 C   0  0  0  0  0  0  0  0  0  0  0  0
   -0.5961  -54.0912  -25.9601 H   0  0  0  0  0  0  0  0  0  0  0  0
    0.4791  -51.7785  -24.9037 N   0  0  0  0  0  0  0  0  0  0  0  0
    0.0458  -50.9921  -25.4154 H   0  0  0  0  0  0  0  0  0  0  0  0
    6.1284  -51.5332  -24.5457 N   0  0  0  0  0  0  0  0  0  0  0  0
    4.7198  -51.5721  -24.6225 C   0  0  0  0  0  0  0  0  0  0  0  0
    3.9496  -50.4364  -24.8183 C   0  0  0  0  0  0  0  0  0  0  0  0
    2.5758  -50.5288  -24.8856 C   0  0  0  0  0  0  0  0  0  0  0  0
    1.9175  -51.7451  -24.7619 C   0  0  0  0  0  0  0  0  0  0  0  0
    2.6763  -52.8561  -24.5707 C   0  0  0  0  0  0  0  0  0  0  0  0
    4.0689  -52.7870  -24.4989 C   0  0  0  0  0  0  0  0  0  0  0  0
    6.6948  -51.5074  -25.4059 H   0  0  0  0  0  0  0  0  0  0  0  0
    6.5881  -51.5308  -23.6240 H   0  0  0  0  0  0  0  0  0  0  0  0
    0.1595  -50.9386  -21.8972 N   0  0  0  0  0  0  0  0  0  0  0  0
   -0.3804  -50.0977  -22.1675 H   0  0  0  0  0  0  0  0  0  0  0  0
    1.5266  -50.6651  -21.4939 C   0  0  0  0  0  0  0  0  0  0  0  0
    2.4392  -51.6123  -21.1404 C   0  0  0  0  0  0  0  0  0  0  0  0
    3.7264  -51.2489  -20.7301 C   0  0  0  0  0  0  0  0  0  0  0  0
    4.1028  -49.9464  -20.6738 C   0  0  0  0  0  0  0  0  0  0  0  0
    3.2063  -48.9655  -21.0252 C   0  0  0  0  0  0  0  0  0  0  0  0
    3.7050  -47.2735  -20.9495 Cl  0  0  0  0  0  0  0  0  0  0  0  0
    1.9434  -49.3288  -21.4266 C   0  0  0  0  0  0  0  0  0  0  0  0
 13 14  1  0  0  0
 14 15  2  0  0  0
 15 16  1  0  0  0
 16 17  2  0  0  0
 17 11  1  0  0  0
 11  1  1  0  0  0
  1  2  1  0  0  0
  2  3  1  0  0  0
  3  4  2  0  0  0
  4  5  1  0  0  0
  5  6  2  0  0  0
  6  7  1  0  0  0
  7  8  2  0  0  0
  8 22  1  0  0  0
 22 24  1  0  0  0
 24 25  2  0  0  0
 25 26  1  0  0  0
 26 27  2  0  0  0
 27 28  1  0  0  0
 28 29  1  0  0  0
 28 30  2  0  0  0
  8  9  1  0  0  0
 17 18  1  0  0  0
 18 19  2  0  0  0
 19 14  1  0  0  0
  9  1  2  0  0  0
  9  4  1  0  0  0
 30 24  1  0  0  0
 13 20  1  0  0  0
 13 21  1  0  0  0
 11 12  1  0  0  0
  2 10  1  0  0  0
 22 23  1  0  0  0
M  END
> <minimizedAffinity>
-7.42125

> <CNNscore>
0.7212431431

> <CNNaffinity>
6.5981569290

> <CNN_VS>
4.7588753700

> <CNNaffinity_variance>
0.0557362214

$$$$
[H]c1nc(N([H])c2c([H])c([H])c([H])c(Cl)c2[H])c2c(N([H])c3c([H])c([H])c(N([H])[H])c([H])c3[H])n([H])nc2n1


 30 33  0  0  0  0  0  0  0  0999 V2000
    0.4619  -52.9973  -20.4078 C   0  0  0  0  0  0  0  0  0  0  0  0
   -0.0485  -54.2462  -20.1599 N   0  0  0  0  0  0  0  0  0  0  0  0
   -0.5117  -54.7791  -21.2703 N   0  0  0  0  0  0  0  0  0  0  0  0
   -0.3347  -53.9267  -22.2904 C   0  0  0  0  0  0  0  0  0  0  0  0
   -0.6240  -53.9608  -23.5932 N   0  0  0  0  0  0  0  0  0  0  0  0
   -0.3394  -52.9443  -24.4140 C   0  0  0  0  0  0  0  0  0  0  0  0
    0.2545  -51.8602  -23.9193 N   0  0  0  0  0  0  0  0  0  0  0  0
    0.5910  -51.7321  -22.5996 C   0  0  0  0  0  0  0  0  0  0  0  0
    0.2878  -52.7805  -21.7702 C   0  0  0  0  0  0  0  0  0  0  0  0
   -0.0593  -54.6570  -19.2039 H   0  0  0  0  0  0  0  0  0  0  0  0
    0.9143  -52.0835  -19.4274 N   0  0  0  0  0  0  0  0  0  0  0  0
    1.8133  -51.5753  -19.4698 H   0  0  0  0  0  0  0  0  0  0  0  0
   -2.2860  -50.8546  -14.9163 N   0  0  0  0  0  0  0  0  0  0  0  0
   -1.4889  -51.1360  -16.0464 C   0  0  0  0  0  0  0  0  0  0  0  0
   -0.4970  -50.2779  -16.4946 C   0  0  0  0  0  0  0  0  0  0  0  0
    0.2539  -50.6000  -17.6050 C   0  0  0  0  0  0  0  0  0  0  0  0
    0.0503  -51.7794  -18.3089 C   0  0  0  0  0  0  0  0  0  0  0  0
   -0.9227  -52.6181  -17.8657 C   0  0  0  0  0  0  0  0  0  0  0  0
   -1.6960  -52.3131  -16.7440 C   0  0  0  0  0  0  0  0  0  0  0  0
   -1.9306  -51.0484  -13.9690 H   0  0  0  0  0  0  0  0  0  0  0  0
   -3.2263  -50.4539  -15.0435 H   0  0  0  0  0  0  0  0  0  0  0  0
    1.3486  -50.6309  -22.1748 N   0  0  0  0  0  0  0  0  0  0  0  0
    1.0099  -49.6926  -21.8984 H   0  0  0  0  0  0  0  0  0  0  0  0
    2.7825  -50.8107  -22.0401 C   0  0  0  0  0  0  0  0  0  0  0  0
    3.5335  -50.3382  -21.0067 C   0  0  0  0  0  0  0  0  0  0  0  0
    4.9190  -50.5308  -20.9816 C   0  0  0  0  0  0  0  0  0  0  0  0
    5.5531  -51.1929  -21.9819 C   0  0  0  0  0  0  0  0  0  0  0  0
    4.8244  -51.6837  -23.0390 C   0  0  0  0  0  0  0  0  0  0  0  0
    5.6578  -52.5446  -24.3358 Cl  0  0  0  0  0  0  0  0  0  0  0  0
    3.4641  -51.4908  -23.0583 C   0  0  0  0  0  0  0  0  0  0  0  0
 13 14  1  0  0  0
 14 15  2  0  0  0
 15 16  1  0  0  0
 16 17  2  0  0  0
 17 11  1  0  0  0
 11  1  1  0  0  0
  1  2  1  0  0  0
  2  3  1  0  0  0
  3  4  2  0  0  0
  4  5  1  0  0  0
  5  6  2  0  0  0
  6  7  1  0  0  0
  7  8  2  0  0  0
  8 22  1  0  0  0
 22 24  1  0  0  0
 24 25  2  0  0  0
 25 26  1  0  0  0
 26 27  2  0  0  0
 27 28  1  0  0  0
 28 29  1  0  0  0
 28 30  2  0  0  0
  8  9  1  0  0  0
 17 18  1  0  0  0
 18 19  2  0  0  0
 19 14  1  0  0  0
  9  1  2  0  0  0
  9  4  1  0  0  0
 30 24  1  0  0  0
 13 20  1  0  0  0
 13 21  1  0  0  0
 11 12  1  0  0  0
  2 10  1  0  0  0
 22 23  1  0  0  0
M  END
> <minimizedAffinity>
-7.41961

> <CNNscore>
0.6386236548

> <CNNaffinity>
6.4439826012

> <CNN_VS>
4.1152796745

> <CNNaffinity_variance>
0.0981103778

$$$$
[H]c1nc(N([H])c2c([H])c([H])c([H])c(Cl)c2[H])c2c(N([H])c3c([H])c([H])c(N([H])[H])c([H])c3[H])n([H])nc2n1


 30 33  0  0  0  0  0  0  0  0999 V2000
   -0.7072  -53.1697  -23.7019 C   0  0  0  0  0  0  0  0  0  0  0  0
   -1.3059  -54.4022  -23.7655 N   0  0  0  0  0  0  0  0  0  0  0  0
   -1.1733  -55.0342  -22.6189 N   0  0  0  0  0  0  0  0  0  0  0  0
   -0.4933  -54.2668  -21.7543 C   0  0  0  0  0  0  0  0  0  0  0  0
   -0.0843  -54.4229  -20.4932 N   0  0  0  0  0  0  0  0  0  0  0  0
    0.6045  -53.4780  -19.8445 C   0  0  0  0  0  0  0  0  0  0  0  0
    0.8925  -52.3405  -20.4739 N   0  0  0  0  0  0  0  0  0  0  0  0
    0.5162  -52.0874  -21.7645 C   0  0  0  0  0  0  0  0  0  0  0  0
   -0.1846  -53.0681  -22.4173 C   0  0  0  0  0  0  0  0  0  0  0  0
   -1.7688  -54.7457  -24.6317 H   0  0  0  0  0  0  0  0  0  0  0  0
   -0.5354  -52.2811  -24.7890 N   0  0  0  0  0  0  0  0  0  0  0  0
   -0.8807  -51.3072  -24.8105 H   0  0  0  0  0  0  0  0  0  0  0  0
    2.3938  -54.2367  -29.2271 N   0  0  0  0  0  0  0  0  0  0  0  0
    1.6431  -53.7496  -28.1360 C   0  0  0  0  0  0  0  0  0  0  0  0
    0.3393  -54.1491  -27.8871 C   0  0  0  0  0  0  0  0  0  0  0  0
   -0.3508  -53.6424  -26.8066 C   0  0  0  0  0  0  0  0  0  0  0  0
    0.2233  -52.7250  -25.9367 C   0  0  0  0  0  0  0  0  0  0  0  0
    1.5018  -52.3364  -26.1840 C   0  0  0  0  0  0  0  0  0  0  0  0
    2.2203  -52.8356  -27.2720 C   0  0  0  0  0  0  0  0  0  0  0  0
    2.8682  -55.1491  -29.1650 H   0  0  0  0  0  0  0  0  0  0  0  0
    2.4653  -53.6747  -30.0873 H   0  0  0  0  0  0  0  0  0  0  0  0
    0.7193  -50.8138  -22.3153 N   0  0  0  0  0  0  0  0  0  0  0  0
    0.0229  -50.0604  -22.4533 H   0  0  0  0  0  0  0  0  0  0  0  0
    2.0720  -50.4527  -22.6980 C   0  0  0  0  0  0  0  0  0  0  0  0
    2.5837  -49.1912  -22.6546 C   0  0  0  0  0  0  0  0  0  0  0  0
    3.8917  -48.9339  -23.0791 C   0  0  0  0  0  0  0  0  0  0  0  0
    4.6869  -49.9304  -23.5436 C   0  0  0  0  0  0  0  0  0  0  0  0
    4.2016  -51.2152  -23.5993 C   0  0  0  0  0  0  0  0  0  0  0  0
    5.2437  -52.5057  -24.2046 Cl  0  0  0  0  0  0  0  0  0  0  0  0
    2.9160  -51.4615  -23.1816 C   0  0  0  0  0  0  0  0  0  0  0  0
 13 14  1  0  0  0
 14 15  2  0  0  0
 15 16  1  0  0  0
 16 17  2  0  0  0
 17 11  1  0  0  0
 11  1  1  0  0  0
  1  2  1  0  0  0
  2  3  1  0  0  0
  3  4  2  0  0  0
  4  5  1  0  0  0
  5  6  2  0  0  0
  6  7  1  0  0  0
  7  8  2  0  0  0
  8 22  1  0  0  0
 22 24  1  0  0  0
 24 25  2  0  0  0
 25 26  1  0  0  0
 26 27  2  0  0  0
 27 28  1  0  0  0
 28 29  1  0  0  0
 28 30  2  0  0  0
  8  9  1  0  0  0
 17 18  1  0  0  0
 18 19  2  0  0  0
 19 14  1  0  0  0
  9  1  2  0  0  0
  9  4  1  0  0  0
 30 24  1  0  0  0
 13 20  1  0  0  0
 13 21  1  0  0  0
 11 12  1  0  0  0
  2 10  1  0  0  0
 22 23  1  0  0  0
M  END
> <minimizedAffinity>
-7.53270

> <CNNscore>
0.6232055426

> <CNNaffinity>
6.7646818161

> <CNN_VS>
4.2157874107

> <CNNaffinity_variance>
0.1580473632

$$$$
[H]C#Cc1c([H])c([H])c([H])c(N([H])c2nc([H])nc3c([H])c(OC([H])([H])C([H])([H])OC([H])([H])C([H])([H])n4c([N+](=O)[O-])nc([H])c4[H])c(OC([H])([H])[H])c([H])c23)c1[H]


 36 39  0  0  0  0  0  0  0  0999 V2000
    0.2485  -51.4355  -20.7277 C   0  0  0  0  0  0  0  0  0  0  0  0
    0.1013  -51.7430  -22.0952 C   0  0  0  0  0  0  0  0  0  0  0  0
   -0.4401  -52.9318  -22.5276 C   0  0  0  0  0  0  0  0  0  0  0  0
   -0.5831  -53.2341  -23.8652 C   0  0  0  0  0  0  0  0  0  0  0  0
   -1.1285  -54.4386  -24.1640 N   0  0  0  0  0  0  0  0  0  0  0  0
   -1.5325  -55.3420  -23.2729 C   0  0  0  0  0  0  0  0  0  0  0  0
   -1.3862  -55.0314  -21.9750 N   0  0  0  0  0  0  0  0  0  0  0  0
   -0.8576  -53.8655  -21.5644 C   0  0  0  0  0  0  0  0  0  0  0  0
   -0.7007  -53.5358  -20.2516 C   0  0  0  0  0  0  0  0  0  0  0  0
   -0.1620  -52.3529  -19.7909 C   0  0  0  0  0  0  0  0  0  0  0  0
    1.1595  -49.1948  -21.1772 C   0  0  0  0  0  0  0  0  0  0  0  0
    0.7945  -50.2359  -20.3250 O   0  0  0  0  0  0  0  0  0  0  0  0
   -0.2116  -52.3038  -24.8475 N   0  0  0  0  0  0  0  0  0  0  0  0
   -0.8178  -51.4675  -25.0549 H   0  0  0  0  0  0  0  0  0  0  0  0
    0.9905  -52.4631  -25.5962 C   0  0  0  0  0  0  0  0  0  0  0  0
    1.0488  -52.6623  -26.9344 C   0  0  0  0  0  0  0  0  0  0  0  0
    2.2711  -52.7809  -27.6194 C   0  0  0  0  0  0  0  0  0  0  0  0
    3.4447  -52.6943  -26.9191 C   0  0  0  0  0  0  0  0  0  0  0  0
    3.4300  -52.4934  -25.5577 C   0  0  0  0  0  0  0  0  0  0  0  0
    2.2277  -52.3838  -24.9341 C   0  0  0  0  0  0  0  0  0  0  0  0
    4.6701  -52.4008  -24.8051 C   0  0  0  0  0  0  0  0  0  0  0  0
    5.6990  -52.3174  -24.1828 C   0  0  0  0  0  0  0  0  0  0  0  0
   -0.0296  -52.0781  -18.4190 O   0  0  0  0  0  0  0  0  0  0  0  0
   -1.0580  -52.5314  -17.5656 C   0  0  0  0  0  0  0  0  0  0  0  0
   -1.0811  -51.6939  -16.3035 C   0  0  0  0  0  0  0  0  0  0  0  0
   -0.3520  -50.5419  -16.4112 O   0  0  0  0  0  0  0  0  0  0  0  0
    0.2418  -50.0776  -15.2712 C   0  0  0  0  0  0  0  0  0  0  0  0
    1.6196  -49.5245  -15.4066 C   0  0  0  0  0  0  0  0  0  0  0  0
    2.5942  -50.5694  -15.2280 N   0  0  0  0  0  0  0  0  0  0  0  0
    2.8407  -51.2742  -14.0954 C   0  0  0  0  0  0  0  0  0  0  0  0
    3.8398  -52.1700  -14.3432 C   0  0  0  0  0  0  0  0  0  0  0  0
    4.1888  -52.0005  -15.6183 N   0  0  0  0  0  0  0  0  0  0  0  0
    3.4249  -51.0163  -16.1662 C   0  0  0  0  0  0  0  0  0  0  0  0
    3.5836  -50.6128  -17.5163 N   0  0  0  0  0  0  0  0  0  0  0  0
    4.0415  -49.3564  -17.8702 O   0  0  0  0  0  0  0  0  0  0  0  0
    3.2967  -51.4291  -18.4351 O   0  0  0  0  0  0  0  0  0  0  0  0
 11 12  1  0  0  0
 12  1  1  0  0  0
  1  2  2  0  0  0
  2  3  1  0  0  0
  3  4  2  0  0  0
  4 13  1  0  0  0
 13 15  1  0  0  0
 15 16  2  0  0  0
 16 17  1  0  0  0
 17 18  2  0  0  0
 18 19  1  0  0  0
 19 20  2  0  0  0
 19 21  1  0  0  0
 21 22  3  0  0  0
  4  5  1  0  0  0
  5  6  2  0  0  0
  6  7  1  0  0  0
  7  8  2  0  0  0
  8  9  1  0  0  0
  9 10  2  0  0  0
 10 23  1  0  0  0
 23 24  1  0  0  0
 24 25  1  0  0  0
 25 26  1  0  0  0
 26 27  1  0  0  0
 27 28  1  0  0  0
 28 29  1  0  0  0
 29 30  1  0  0  0
 30 31  2  0  0  0
 31 32  1  0  0  0
 32 33  2  0  0  0
 33 34  1  0  0  0
 34 35  1  0  0  0
 34 36  2  0  0  0
 10  1  1  0  0  0
 33 29  1  0  0  0
  8  3  1  0  0  0
 20 15  1  0  0  0
 13 14  1  0  0  0
M  CHG 1  34   1
M  CHG 1  35  -1
M  END
> <minimizedAffinity>
-7.56109

> <CNNscore>
0.9185357094

> <CNNaffinity>
7.1843047142

> <CNN_VS>
6.5990405083

> <CNNaffinity_variance>
0.0916569084

$$$$
[H]C#Cc1c([H])c([H])c([H])c(N([H])c2nc([H])nc3c([H])c(OC([H])([H])C([H])([H])OC([H])([H])C([H])([H])n4c([N+](=O)[O-])nc([H])c4[H])c(OC([H])([H])[H])c([H])c23)c1[H]


 36 39  0  0  0  0  0  0  0  0999 V2000
    0.4276  -50.8474  -19.8417 C   0  0  0  0  0  0  0  0  0  0  0  0
    0.3636  -51.1505  -21.2166 C   0  0  0  0  0  0  0  0  0  0  0  0
   -0.1141  -52.3536  -21.6830 C   0  0  0  0  0  0  0  0  0  0  0  0
   -0.1756  -52.6516  -23.0278 C   0  0  0  0  0  0  0  0  0  0  0  0
   -0.6639  -53.8715  -23.3611 N   0  0  0  0  0  0  0  0  0  0  0  0
   -1.0843  -54.7937  -22.4972 C   0  0  0  0  0  0  0  0  0  0  0  0
   -1.0176  -54.4870  -21.1919 N   0  0  0  0  0  0  0  0  0  0  0  0
   -0.5508  -53.3071  -20.7480 C   0  0  0  0  0  0  0  0  0  0  0  0
   -0.4749  -52.9811  -19.4271 C   0  0  0  0  0  0  0  0  0  0  0  0
   -0.0012  -51.7841  -18.9326 C   0  0  0  0  0  0  0  0  0  0  0  0
    1.4915  -48.6613  -20.2183 C   0  0  0  0  0  0  0  0  0  0  0  0
    0.9111  -49.6331  -19.4046 O   0  0  0  0  0  0  0  0  0  0  0  0
    0.2162  -51.7030  -23.9843 N   0  0  0  0  0  0  0  0  0  0  0  0
   -0.0191  -50.6836  -23.8608 H   0  0  0  0  0  0  0  0  0  0  0  0
    0.9380  -52.0881  -25.1512 C   0  0  0  0  0  0  0  0  0  0  0  0
    2.2641  -52.3603  -25.1871 C   0  0  0  0  0  0  0  0  0  0  0  0
    2.9117  -52.7664  -26.3673 C   0  0  0  0  0  0  0  0  0  0  0  0
    2.1866  -52.8924  -27.5221 C   0  0  0  0  0  0  0  0  0  0  0  0
    0.8367  -52.6245  -27.5294 C   0  0  0  0  0  0  0  0  0  0  0  0
    0.2493  -52.2352  -26.3676 C   0  0  0  0  0  0  0  0  0  0  0  0
    0.0581  -52.7546  -28.7500 C   0  0  0  0  0  0  0  0  0  0  0  0
   -0.5929  -52.8594  -29.7589 C   0  0  0  0  0  0  0  0  0  0  0  0
    0.0489  -51.5143  -17.5543 O   0  0  0  0  0  0  0  0  0  0  0  0
   -0.9769  -52.0559  -16.7506 C   0  0  0  0  0  0  0  0  0  0  0  0
   -1.0822  -51.2715  -15.4589 C   0  0  0  0  0  0  0  0  0  0  0  0
   -0.5338  -50.0215  -15.5446 O   0  0  0  0  0  0  0  0  0  0  0  0
    0.4746  -49.7280  -14.6702 C   0  0  0  0  0  0  0  0  0  0  0  0
    1.8031  -49.3975  -15.2603 C   0  0  0  0  0  0  0  0  0  0  0  0
    2.7018  -50.5135  -15.1174 N   0  0  0  0  0  0  0  0  0  0  0  0
    2.9131  -51.2569  -14.0026 C   0  0  0  0  0  0  0  0  0  0  0  0
    3.8408  -52.2174  -14.2835 C   0  0  0  0  0  0  0  0  0  0  0  0
    4.1823  -52.0480  -15.5606 N   0  0  0  0  0  0  0  0  0  0  0  0
    3.4839  -51.0003  -16.0773 C   0  0  0  0  0  0  0  0  0  0  0  0
    3.6515  -50.5823  -17.4218 N   0  0  0  0  0  0  0  0  0  0  0  0
    4.0061  -49.2891  -17.7620 O   0  0  0  0  0  0  0  0  0  0  0  0
    3.4711  -51.4198  -18.3485 O   0  0  0  0  0  0  0  0  0  0  0  0
 11 12  1  0  0  0
 12  1  1  0  0  0
  1  2  2  0  0  0
  2  3  1  0  0  0
  3  4  2  0  0  0
  4 13  1  0  0  0
 13 15  1  0  0  0
 15 16  2  0  0  0
 16 17  1  0  0  0
 17 18  2  0  0  0
 18 19  1  0  0  0
 19 20  2  0  0  0
 19 21  1  0  0  0
 21 22  3  0  0  0
  4  5  1  0  0  0
  5  6  2  0  0  0
  6  7  1  0  0  0
  7  8  2  0  0  0
  8  9  1  0  0  0
  9 10  2  0  0  0
 10 23  1  0  0  0
 23 24  1  0  0  0
 24 25  1  0  0  0
 25 26  1  0  0  0
 26 27  1  0  0  0
 27 28  1  0  0  0
 28 29  1  0  0  0
 29 30  1  0  0  0
 30 31  2  0  0  0
 31 32  1  0  0  0
 32 33  2  0  0  0
 33 34  1  0  0  0
 34 35  1  0  0  0
 34 36  2  0  0  0
 10  1  1  0  0  0
 33 29  1  0  0  0
  8  3  1  0  0  0
 20 15  1  0  0  0
 13 14  1  0  0  0
M  CHG 1  34   1
M  CHG 1  35  -1
M  END
> <minimizedAffinity>
-7.78398

> <CNNscore>
0.8797481060

> <CNNaffinity>
7.1182680130

> <CNN_VS>
6.2622828484

> <CNNaffinity_variance>
0.0278325174

$$$$
[H]C#Cc1c([H])c([H])c([H])c(N([H])c2nc([H])nc3c([H])c(OC([H])([H])C([H])([H])OC([H])([H])C([H])([H])n4c([N+](=O)[O-])nc([H])c4[H])c(OC([H])([H])[H])c([H])c23)c1[H]


 36 39  0  0  0  0  0  0  0  0999 V2000
    0.3714  -50.9979  -20.1419 C   0  0  0  0  0  0  0  0  0  0  0  0
    0.1920  -51.3426  -21.4966 C   0  0  0  0  0  0  0  0  0  0  0  0
   -0.2909  -52.5709  -21.8853 C   0  0  0  0  0  0  0  0  0  0  0  0
   -0.4652  -52.9095  -23.2105 C   0  0  0  0  0  0  0  0  0  0  0  0
   -0.9463  -54.1510  -23.4652 N   0  0  0  0  0  0  0  0  0  0  0  0
   -1.2599  -55.0583  -22.5423 C   0  0  0  0  0  0  0  0  0  0  0  0
   -1.0843  -54.7121  -21.2572 N   0  0  0  0  0  0  0  0  0  0  0  0
   -0.6135  -53.5079  -20.8893 C   0  0  0  0  0  0  0  0  0  0  0  0
   -0.4279  -53.1416  -19.5900 C   0  0  0  0  0  0  0  0  0  0  0  0
    0.0538  -51.9187  -19.1729 C   0  0  0  0  0  0  0  0  0  0  0  0
    2.1413  -49.2911  -20.0582 C   0  0  0  0  0  0  0  0  0  0  0  0
    0.8572  -49.7591  -19.7832 O   0  0  0  0  0  0  0  0  0  0  0  0
   -0.1891  -51.9792  -24.2237 N   0  0  0  0  0  0  0  0  0  0  0  0
    0.2637  -51.0551  -23.9985 H   0  0  0  0  0  0  0  0  0  0  0  0
   -0.5157  -52.2523  -25.5837 C   0  0  0  0  0  0  0  0  0  0  0  0
   -1.6991  -51.9544  -26.1709 C   0  0  0  0  0  0  0  0  0  0  0  0
   -1.9477  -52.2224  -27.5287 C   0  0  0  0  0  0  0  0  0  0  0  0
   -0.9683  -52.8038  -28.2889 C   0  0  0  0  0  0  0  0  0  0  0  0
    0.2485  -53.1236  -27.7309 C   0  0  0  0  0  0  0  0  0  0  0  0
    0.4482  -52.8476  -26.4155 C   0  0  0  0  0  0  0  0  0  0  0  0
    1.2945  -53.7416  -28.5290 C   0  0  0  0  0  0  0  0  0  0  0  0
    2.1572  -54.2552  -29.1959 C   0  0  0  0  0  0  0  0  0  0  0  0
    0.2205  -51.6075  -17.8125 O   0  0  0  0  0  0  0  0  0  0  0  0
   -0.8054  -52.0020  -16.9274 C   0  0  0  0  0  0  0  0  0  0  0  0
   -0.6206  -51.3128  -15.5912 C   0  0  0  0  0  0  0  0  0  0  0  0
   -1.7981  -51.1068  -14.9268 O   0  0  0  0  0  0  0  0  0  0  0  0
   -1.7535  -51.1523  -13.5617 C   0  0  0  0  0  0  0  0  0  0  0  0
   -0.6824  -50.3574  -12.8958 C   0  0  0  0  0  0  0  0  0  0  0  0
   -0.9582  -48.9496  -13.0205 N   0  0  0  0  0  0  0  0  0  0  0  0
   -2.1225  -48.3149  -12.7345 C   0  0  0  0  0  0  0  0  0  0  0  0
   -1.9715  -46.9827  -12.9887 C   0  0  0  0  0  0  0  0  0  0  0  0
   -0.7224  -46.8226  -13.4251 N   0  0  0  0  0  0  0  0  0  0  0  0
   -0.0956  -48.0306  -13.4465 C   0  0  0  0  0  0  0  0  0  0  0  0
    1.2481  -48.1665  -13.8787 N   0  0  0  0  0  0  0  0  0  0  0  0
    1.5824  -48.5889  -15.1528 O   0  0  0  0  0  0  0  0  0  0  0  0
    2.1793  -47.8925  -13.0722 O   0  0  0  0  0  0  0  0  0  0  0  0
 11 12  1  0  0  0
 12  1  1  0  0  0
  1  2  2  0  0  0
  2  3  1  0  0  0
  3  4  2  0  0  0
  4 13  1  0  0  0
 13 15  1  0  0  0
 15 16  2  0  0  0
 16 17  1  0  0  0
 17 18  2  0  0  0
 18 19  1  0  0  0
 19 20  2  0  0  0
 19 21  1  0  0  0
 21 22  3  0  0  0
  4  5  1  0  0  0
  5  6  2  0  0  0
  6  7  1  0  0  0
  7  8  2  0  0  0
  8  9  1  0  0  0
  9 10  2  0  0  0
 10 23  1  0  0  0
 23 24  1  0  0  0
 24 25  1  0  0  0
 25 26  1  0  0  0
 26 27  1  0  0  0
 27 28  1  0  0  0
 28 29  1  0  0  0
 29 30  1  0  0  0
 30 31  2  0  0  0
 31 32  1  0  0  0
 32 33  2  0  0  0
 33 34  1  0  0  0
 34 35  1  0  0  0
 34 36  2  0  0  0
 10  1  1  0  0  0
 33 29  1  0  0  0
  8  3  1  0  0  0
 20 15  1  0  0  0
 13 14  1  0  0  0
M  CHG 1  34   1
M  CHG 1  35  -1
M  END
> <minimizedAffinity>
-6.29671

> <CNNscore>
0.7425983548

> <CNNaffinity>
6.9188032150

> <CNN_VS>
5.1378917694

> <CNNaffinity_variance>
0.1652752161

$$$$
[H]C#Cc1c([H])c([H])c([H])c(N([H])c2nc([H])nc3c([H])c(OC([H])([H])C([H])([H])OC([H])([H])C([H])([H])n4c([N+](=O)[O-])nc([H])c4[H])c(OC([H])([H])[H])c([H])c23)c1[H]


 36 39  0  0  0  0  0  0  0  0999 V2000
    0.5167  -50.8065  -19.6868 C   0  0  0  0  0  0  0  0  0  0  0  0
    0.4792  -51.1092  -21.0627 C   0  0  0  0  0  0  0  0  0  0  0  0
   -0.0141  -52.3017  -21.5403 C   0  0  0  0  0  0  0  0  0  0  0  0
   -0.0498  -52.5993  -22.8861 C   0  0  0  0  0  0  0  0  0  0  0  0
   -0.5573  -53.8081  -23.2307 N   0  0  0  0  0  0  0  0  0  0  0  0
   -1.0192  -54.7198  -22.3770 C   0  0  0  0  0  0  0  0  0  0  0  0
   -0.9772  -54.4137  -21.0705 N   0  0  0  0  0  0  0  0  0  0  0  0
   -0.4947  -53.2442  -20.6158 C   0  0  0  0  0  0  0  0  0  0  0  0
   -0.4435  -52.9189  -19.2936 C   0  0  0  0  0  0  0  0  0  0  0  0
    0.0451  -51.7325  -18.7881 C   0  0  0  0  0  0  0  0  0  0  0  0
    1.6104  -48.6317  -20.0432 C   0  0  0  0  0  0  0  0  0  0  0  0
    1.0169  -49.6031  -19.2385 O   0  0  0  0  0  0  0  0  0  0  0  0
    0.3864  -51.6606  -23.8331 N   0  0  0  0  0  0  0  0  0  0  0  0
    0.2281  -50.6299  -23.6833 H   0  0  0  0  0  0  0  0  0  0  0  0
    1.0505  -52.0708  -25.0254 C   0  0  0  0  0  0  0  0  0  0  0  0
    2.3625  -52.3961  -25.1084 C   0  0  0  0  0  0  0  0  0  0  0  0
    2.9513  -52.8243  -26.3114 C   0  0  0  0  0  0  0  0  0  0  0  0
    2.1815  -52.9176  -27.4401 C   0  0  0  0  0  0  0  0  0  0  0  0
    0.8441  -52.5955  -27.3993 C   0  0  0  0  0  0  0  0  0  0  0  0
    0.3141  -52.1864  -26.2169 C   0  0  0  0  0  0  0  0  0  0  0  0
    0.0185  -52.6905  -28.5919 C   0  0  0  0  0  0  0  0  0  0  0  0
   -0.6638  -52.7757  -29.5819 C   0  0  0  0  0  0  0  0  0  0  0  0
    0.0678  -51.4627  -17.4090 O   0  0  0  0  0  0  0  0  0  0  0  0
   -0.8337  -52.1797  -16.5938 C   0  0  0  0  0  0  0  0  0  0  0  0
   -0.6074  -51.8177  -15.1404 C   0  0  0  0  0  0  0  0  0  0  0  0
    0.4067  -52.5301  -14.5621 O   0  0  0  0  0  0  0  0  0  0  0  0
    1.5475  -51.8430  -14.2551 C   0  0  0  0  0  0  0  0  0  0  0  0
    1.3994  -50.3895  -13.9588 C   0  0  0  0  0  0  0  0  0  0  0  0
    2.0210  -49.6054  -14.9944 N   0  0  0  0  0  0  0  0  0  0  0  0
    3.2384  -49.8098  -15.5568 C   0  0  0  0  0  0  0  0  0  0  0  0
    3.4555  -48.8465  -16.4986 C   0  0  0  0  0  0  0  0  0  0  0  0
    2.3723  -48.0698  -16.4982 N   0  0  0  0  0  0  0  0  0  0  0  0
    1.4874  -48.5333  -15.5739 C   0  0  0  0  0  0  0  0  0  0  0  0
    0.2423  -47.8940  -15.3466 N   0  0  0  0  0  0  0  0  0  0  0  0
   -0.9543  -48.4023  -15.8194 O   0  0  0  0  0  0  0  0  0  0  0  0
    0.2199  -46.8180  -14.6873 O   0  0  0  0  0  0  0  0  0  0  0  0
 11 12  1  0  0  0
 12  1  1  0  0  0
  1  2  2  0  0  0
  2  3  1  0  0  0
  3  4  2  0  0  0
  4 13  1  0  0  0
 13 15  1  0  0  0
 15 16  2  0  0  0
 16 17  1  0  0  0
 17 18  2  0  0  0
 18 19  1  0  0  0
 19 20  2  0  0  0
 19 21  1  0  0  0
 21 22  3  0  0  0
  4  5  1  0  0  0
  5  6  2  0  0  0
  6  7  1  0  0  0
  7  8  2  0  0  0
  8  9  1  0  0  0
  9 10  2  0  0  0
 10 23  1  0  0  0
 23 24  1  0  0  0
 24 25  1  0  0  0
 25 26  1  0  0  0
 26 27  1  0  0  0
 27 28  1  0  0  0
 28 29  1  0  0  0
 29 30  1  0  0  0
 30 31  2  0  0  0
 31 32  1  0  0  0
 32 33  2  0  0  0
 33 34  1  0  0  0
 34 35  1  0  0  0
 34 36  2  0  0  0
 10  1  1  0  0  0
 33 29  1  0  0  0
  8  3  1  0  0  0
 20 15  1  0  0  0
 13 14  1  0  0  0
M  CHG 1  34   1
M  CHG 1  35  -1
M  END
> <minimizedAffinity>
-7.28197

> <CNNscore>
0.6978796721

> <CNNaffinity>
7.1182985306

> <CNN_VS>
4.9677157402

> <CNNaffinity_variance>
0.1008881703

$$$$
[H]C#Cc1c([H])c([H])c([H])c(N([H])c2nc([H])nc3c([H])c(OC([H])([H])C([H])([H])OC([H])([H])C([H])([H])n4c([N+](=O)[O-])nc([H])c4[H])c(OC([H])([H])[H])c([H])c23)c1[H]


 36 39  0  0  0  0  0  0  0  0999 V2000
    2.4557  -51.5089  -20.3328 C   0  0  0  0  0  0  0  0  0  0  0  0
    1.4170  -52.1165  -19.5991 C   0  0  0  0  0  0  0  0  0  0  0  0
    0.3327  -52.7048  -20.2086 C   0  0  0  0  0  0  0  0  0  0  0  0
   -0.6846  -53.2980  -19.4916 C   0  0  0  0  0  0  0  0  0  0  0  0
   -1.6996  -53.8414  -20.2074 N   0  0  0  0  0  0  0  0  0  0  0  0
   -1.7872  -53.8456  -21.5361 C   0  0  0  0  0  0  0  0  0  0  0  0
   -0.7881  -53.2639  -22.2186 N   0  0  0  0  0  0  0  0  0  0  0  0
    0.2676  -52.6939  -21.6120 C   0  0  0  0  0  0  0  0  0  0  0  0
    1.2886  -52.0981  -22.2897 C   0  0  0  0  0  0  0  0  0  0  0  0
    2.3859  -51.5019  -21.7049 C   0  0  0  0  0  0  0  0  0  0  0  0
    3.4469  -49.8769  -18.7814 C   0  0  0  0  0  0  0  0  0  0  0  0
    3.5296  -50.9275  -19.6940 O   0  0  0  0  0  0  0  0  0  0  0  0
   -0.6254  -53.3584  -18.0912 N   0  0  0  0  0  0  0  0  0  0  0  0
    0.1124  -53.9338  -17.6069 H   0  0  0  0  0  0  0  0  0  0  0  0
   -1.5608  -52.6496  -17.2829 C   0  0  0  0  0  0  0  0  0  0  0  0
   -2.8517  -53.0125  -17.0931 C   0  0  0  0  0  0  0  0  0  0  0  0
   -3.7167  -52.2856  -16.2561 C   0  0  0  0  0  0  0  0  0  0  0  0
   -3.2479  -51.1734  -15.6090 C   0  0  0  0  0  0  0  0  0  0  0  0
   -1.9428  -50.7695  -15.7752 C   0  0  0  0  0  0  0  0  0  0  0  0
   -1.1398  -51.5002  -16.5924 C   0  0  0  0  0  0  0  0  0  0  0  0
   -1.4356  -49.5902  -15.0935 C   0  0  0  0  0  0  0  0  0  0  0  0
   -1.0117  -48.6103  -14.5340 C   0  0  0  0  0  0  0  0  0  0  0  0
    3.4046  -50.9046  -22.4670 O   0  0  0  0  0  0  0  0  0  0  0  0
    4.5456  -51.6859  -22.7486 C   0  0  0  0  0  0  0  0  0  0  0  0
    4.4027  -52.3252  -24.1145 C   0  0  0  0  0  0  0  0  0  0  0  0
    3.8816  -51.4765  -25.0518 O   0  0  0  0  0  0  0  0  0  0  0  0
    3.0451  -52.0237  -25.9837 C   0  0  0  0  0  0  0  0  0  0  0  0
    2.1931  -53.1630  -25.5380 C   0  0  0  0  0  0  0  0  0  0  0  0
    0.8010  -52.8439  -25.7213 N   0  0  0  0  0  0  0  0  0  0  0  0
    0.2444  -51.6079  -25.7733 C   0  0  0  0  0  0  0  0  0  0  0  0
   -1.1012  -51.7386  -25.9584 C   0  0  0  0  0  0  0  0  0  0  0  0
   -1.3472  -53.0473  -26.0164 N   0  0  0  0  0  0  0  0  0  0  0  0
   -0.1793  -53.7308  -25.8706 C   0  0  0  0  0  0  0  0  0  0  0  0
   -0.1378  -55.1482  -25.8820 N   0  0  0  0  0  0  0  0  0  0  0  0
   -0.7548  -55.9201  -24.9140 O   0  0  0  0  0  0  0  0  0  0  0  0
    0.4858  -55.7331  -26.8104 O   0  0  0  0  0  0  0  0  0  0  0  0
 11 12  1  0  0  0
 12  1  1  0  0  0
  1  2  2  0  0  0
  2  3  1  0  0  0
  3  4  2  0  0  0
  4 13  1  0  0  0
 13 15  1  0  0  0
 15 16  2  0  0  0
 16 17  1  0  0  0
 17 18  2  0  0  0
 18 19  1  0  0  0
 19 20  2  0  0  0
 19 21  1  0  0  0
 21 22  3  0  0  0
  4  5  1  0  0  0
  5  6  2  0  0  0
  6  7  1  0  0  0
  7  8  2  0  0  0
  8  9  1  0  0  0
  9 10  2  0  0  0
 10 23  1  0  0  0
 23 24  1  0  0  0
 24 25  1  0  0  0
 25 26  1  0  0  0
 26 27  1  0  0  0
 27 28  1  0  0  0
 28 29  1  0  0  0
 29 30  1  0  0  0
 30 31  2  0  0  0
 31 32  1  0  0  0
 32 33  2  0  0  0
 33 34  1  0  0  0
 34 35  1  0  0  0
 34 36  2  0  0  0
 10  1  1  0  0  0
 33 29  1  0  0  0
  8  3  1  0  0  0
 20 15  1  0  0  0
 13 14  1  0  0  0
M  CHG 1  34   1
M  CHG 1  35  -1
M  END
> <minimizedAffinity>
-7.59686

> <CNNscore>
0.5261236429

> <CNNaffinity>
7.0814538002

> <CNN_VS>
3.7257201672

> <CNNaffinity_variance>
0.2261456698

$$$$
[H]C#Cc1c([H])c([H])c([H])c(N([H])c2nc([H])nc3c([H])c(OC([H])([H])C([H])([H])OC([H])([H])C([H])([H])n4c([N+](=O)[O-])nc([H])c4[H])c(OC([H])([H])[H])c([H])c23)c1[H]


 36 39  0  0  0  0  0  0  0  0999 V2000
    1.4553  -49.9346  -20.7563 C   0  0  0  0  0  0  0  0  0  0  0  0
    0.7812  -50.6926  -21.7347 C   0  0  0  0  0  0  0  0  0  0  0  0
    0.4375  -52.0101  -21.5366 C   0  0  0  0  0  0  0  0  0  0  0  0
   -0.2205  -52.7529  -22.4939 C   0  0  0  0  0  0  0  0  0  0  0  0
   -0.5018  -54.0413  -22.1801 N   0  0  0  0  0  0  0  0  0  0  0  0
   -0.1941  -54.6373  -21.0296 C   0  0  0  0  0  0  0  0  0  0  0  0
    0.4462  -53.8995  -20.1087 N   0  0  0  0  0  0  0  0  0  0  0  0
    0.7751  -52.6121  -20.3128 C   0  0  0  0  0  0  0  0  0  0  0  0
    1.4263  -51.8504  -19.3896 C   0  0  0  0  0  0  0  0  0  0  0  0
    1.7823  -50.5293  -19.5617 C   0  0  0  0  0  0  0  0  0  0  0  0
    2.6510  -48.1672  -21.9808 C   0  0  0  0  0  0  0  0  0  0  0  0
    1.7863  -48.6162  -20.9837 O   0  0  0  0  0  0  0  0  0  0  0  0
   -0.6049  -52.1656  -23.7086 N   0  0  0  0  0  0  0  0  0  0  0  0
   -1.5055  -51.6244  -23.7848 H   0  0  0  0  0  0  0  0  0  0  0  0
    0.2055  -52.2866  -24.8746 C   0  0  0  0  0  0  0  0  0  0  0  0
    0.1228  -53.2957  -25.7740 C   0  0  0  0  0  0  0  0  0  0  0  0
    0.9320  -53.3403  -26.9231 C   0  0  0  0  0  0  0  0  0  0  0  0
    1.8359  -52.3364  -27.1475 C   0  0  0  0  0  0  0  0  0  0  0  0
    1.9527  -51.2929  -26.2578 C   0  0  0  0  0  0  0  0  0  0  0  0
    1.1517  -51.2874  -25.1602 C   0  0  0  0  0  0  0  0  0  0  0  0
    2.9094  -50.2227  -26.4865 C   0  0  0  0  0  0  0  0  0  0  0  0
    3.7058  -49.3391  -26.6811 C   0  0  0  0  0  0  0  0  0  0  0  0
    2.4545  -49.8021  -18.5644 O   0  0  0  0  0  0  0  0  0  0  0  0
    1.7226  -48.8045  -17.8858 C   0  0  0  0  0  0  0  0  0  0  0  0
    1.1560  -49.3715  -16.6004 C   0  0  0  0  0  0  0  0  0  0  0  0
   -0.0862  -49.9213  -16.7587 O   0  0  0  0  0  0  0  0  0  0  0  0
   -0.3023  -51.1379  -16.1750 C   0  0  0  0  0  0  0  0  0  0  0  0
   -1.1763  -51.1600  -14.9674 C   0  0  0  0  0  0  0  0  0  0  0  0
   -2.5614  -51.2122  -15.3574 N   0  0  0  0  0  0  0  0  0  0  0  0
   -3.1963  -52.2311  -15.9889 C   0  0  0  0  0  0  0  0  0  0  0  0
   -4.5029  -51.8858  -16.1779 C   0  0  0  0  0  0  0  0  0  0  0  0
   -4.6475  -50.6655  -15.6618 N   0  0  0  0  0  0  0  0  0  0  0  0
   -3.4550  -50.2473  -15.1561 C   0  0  0  0  0  0  0  0  0  0  0  0
   -3.3071  -48.9744  -14.5492 N   0  0  0  0  0  0  0  0  0  0  0  0
   -2.8173  -47.8753  -15.2317 O   0  0  0  0  0  0  0  0  0  0  0  0
   -3.6339  -48.8338  -13.3384 O   0  0  0  0  0  0  0  0  0  0  0  0
 11 12  1  0  0  0
 12  1  1  0  0  0
  1  2  2  0  0  0
  2  3  1  0  0  0
  3  4  2  0  0  0
  4 13  1  0  0  0
 13 15  1  0  0  0
 15 16  2  0  0  0
 16 17  1  0  0  0
 17 18  2  0  0  0
 18 19  1  0  0  0
 19 20  2  0  0  0
 19 21  1  0  0  0
 21 22  3  0  0  0
  4  5  1  0  0  0
  5  6  2  0  0  0
  6  7  1  0  0  0
  7  8  2  0  0  0
  8  9  1  0  0  0
  9 10  2  0  0  0
 10 23  1  0  0  0
 23 24  1  0  0  0
 24 25  1  0  0  0
 25 26  1  0  0  0
 26 27  1  0  0  0
 27 28  1  0  0  0
 28 29  1  0  0  0
 29 30  1  0  0  0
 30 31  2  0  0  0
 31 32  1  0  0  0
 32 33  2  0  0  0
 33 34  1  0  0  0
 34 35  1  0  0  0
 34 36  2  0  0  0
 10  1  1  0  0  0
 33 29  1  0  0  0
  8  3  1  0  0  0
 20 15  1  0  0  0
 13 14  1  0  0  0
M  CHG 1  34   1
M  CHG 1  35  -1
M  END
> <minimizedAffinity>
-6.37967

> <CNNscore>
0.4861580431

> <CNNaffinity>
6.7435050011

> <CNN_VS>
3.2784092426

> <CNNaffinity_variance>
0.2746983171

$$$$
[H]C#Cc1c([H])c([H])c([H])c(N([H])c2nc([H])nc3c([H])c(OC([H])([H])C([H])([H])OC([H])([H])C([H])([H])n4c([N+](=O)[O-])nc([H])c4[H])c(OC([H])([H])[H])c([H])c23)c1[H]


 36 39  0  0  0  0  0  0  0  0999 V2000
    1.9316  -50.1859  -20.3578 C   0  0  0  0  0  0  0  0  0  0  0  0
    1.1688  -51.1263  -19.6366 C   0  0  0  0  0  0  0  0  0  0  0  0
    0.2585  -51.9583  -20.2469 C   0  0  0  0  0  0  0  0  0  0  0  0
   -0.4893  -52.8774  -19.5420 C   0  0  0  0  0  0  0  0  0  0  0  0
   -1.3540  -53.6381  -20.2570 N   0  0  0  0  0  0  0  0  0  0  0  0
   -1.5338  -53.5655  -21.5745 C   0  0  0  0  0  0  0  0  0  0  0  0
   -0.7975  -52.6654  -22.2453 N   0  0  0  0  0  0  0  0  0  0  0  0
    0.0905  -51.8591  -21.6383 C   0  0  0  0  0  0  0  0  0  0  0  0
    0.8439  -50.9394  -22.3042 C   0  0  0  0  0  0  0  0  0  0  0  0
    1.7625  -50.0941  -21.7182 C   0  0  0  0  0  0  0  0  0  0  0  0
    4.0162  -49.7931  -19.1117 C   0  0  0  0  0  0  0  0  0  0  0  0
    2.8360  -49.3659  -19.7184 O   0  0  0  0  0  0  0  0  0  0  0  0
   -0.3128  -53.0253  -18.1580 N   0  0  0  0  0  0  0  0  0  0  0  0
    0.4686  -53.6187  -17.7744 H   0  0  0  0  0  0  0  0  0  0  0  0
   -1.1848  -52.3837  -17.2313 C   0  0  0  0  0  0  0  0  0  0  0  0
   -0.9427  -51.1903  -16.6388 C   0  0  0  0  0  0  0  0  0  0  0  0
   -1.8605  -50.5951  -15.7552 C   0  0  0  0  0  0  0  0  0  0  0  0
   -3.0387  -51.2359  -15.4784 C   0  0  0  0  0  0  0  0  0  0  0  0
   -3.3235  -52.4509  -16.0586 C   0  0  0  0  0  0  0  0  0  0  0  0
   -2.4099  -52.9914  -16.9070 C   0  0  0  0  0  0  0  0  0  0  0  0
   -4.5708  -53.1396  -15.7710 C   0  0  0  0  0  0  0  0  0  0  0  0
   -5.6056  -53.7072  -15.5264 C   0  0  0  0  0  0  0  0  0  0  0  0
    2.5072  -49.1673  -22.4677 O   0  0  0  0  0  0  0  0  0  0  0  0
    3.7934  -49.5624  -22.8929 C   0  0  0  0  0  0  0  0  0  0  0  0
    3.7198  -50.1087  -24.3039 C   0  0  0  0  0  0  0  0  0  0  0  0
    3.6443  -51.4736  -24.3471 O   0  0  0  0  0  0  0  0  0  0  0  0
    3.1037  -52.0271  -25.4735 C   0  0  0  0  0  0  0  0  0  0  0  0
    2.1833  -53.1840  -25.2807 C   0  0  0  0  0  0  0  0  0  0  0  0
    0.8340  -52.8060  -25.6122 N   0  0  0  0  0  0  0  0  0  0  0  0
    0.3572  -51.5493  -25.7947 C   0  0  0  0  0  0  0  0  0  0  0  0
   -0.9720  -51.6221  -26.0949 C   0  0  0  0  0  0  0  0  0  0  0  0
   -1.2877  -52.9170  -26.0912 N   0  0  0  0  0  0  0  0  0  0  0  0
   -0.1792  -53.6489  -25.7944 C   0  0  0  0  0  0  0  0  0  0  0  0
   -0.2195  -55.0638  -25.7110 N   0  0  0  0  0  0  0  0  0  0  0  0
   -0.8061  -55.7319  -24.6511 O   0  0  0  0  0  0  0  0  0  0  0  0
    0.2993  -55.7450  -26.6381 O   0  0  0  0  0  0  0  0  0  0  0  0
 11 12  1  0  0  0
 12  1  1  0  0  0
  1  2  2  0  0  0
  2  3  1  0  0  0
  3  4  2  0  0  0
  4 13  1  0  0  0
 13 15  1  0  0  0
 15 16  2  0  0  0
 16 17  1  0  0  0
 17 18  2  0  0  0
 18 19  1  0  0  0
 19 20  2  0  0  0
 19 21  1  0  0  0
 21 22  3  0  0  0
  4  5  1  0  0  0
  5  6  2  0  0  0
  6  7  1  0  0  0
  7  8  2  0  0  0
  8  9  1  0  0  0
  9 10  2  0  0  0
 10 23  1  0  0  0
 23 24  1  0  0  0
 24 25  1  0  0  0
 25 26  1  0  0  0
 26 27  1  0  0  0
 27 28  1  0  0  0
 28 29  1  0  0  0
 29 30  1  0  0  0
 30 31  2  0  0  0
 31 32  1  0  0  0
 32 33  2  0  0  0
 33 34  1  0  0  0
 34 35  1  0  0  0
 34 36  2  0  0  0
 10  1  1  0  0  0
 33 29  1  0  0  0
  8  3  1  0  0  0
 20 15  1  0  0  0
 13 14  1  0  0  0
M  CHG 1  34   1
M  CHG 1  35  -1
M  END
> <minimizedAffinity>
-7.48200

> <CNNscore>
0.4458513856

> <CNNaffinity>
7.0359153748

> <CNN_VS>
3.1369726658

> <CNNaffinity_variance>
0.3006995022

$$$$
[H]C#Cc1c([H])c([H])c([H])c(N([H])c2nc([H])nc3c([H])c(OC([H])([H])C([H])([H])OC([H])([H])C([H])([H])n4c([N+](=O)[O-])nc([H])c4[H])c(OC([H])([H])[H])c([H])c23)c1[H]


 36 39  0  0  0  0  0  0  0  0999 V2000
    2.4931  -50.5508  -21.9755 C   0  0  0  0  0  0  0  0  0  0  0  0
    1.7997  -50.5410  -20.7486 C   0  0  0  0  0  0  0  0  0  0  0  0
    0.8778  -51.5071  -20.4170 C   0  0  0  0  0  0  0  0  0  0  0  0
    0.1978  -51.4974  -19.2176 C   0  0  0  0  0  0  0  0  0  0  0  0
   -0.6868  -52.5032  -19.0092 N   0  0  0  0  0  0  0  0  0  0  0  0
   -0.9458  -53.4892  -19.8659 C   0  0  0  0  0  0  0  0  0  0  0  0
   -0.2748  -53.4835  -21.0287 N   0  0  0  0  0  0  0  0  0  0  0  0
    0.6254  -52.5351  -21.3408 C   0  0  0  0  0  0  0  0  0  0  0  0
    1.3133  -52.5140  -22.5169 C   0  0  0  0  0  0  0  0  0  0  0  0
    2.2418  -51.5591  -22.8744 C   0  0  0  0  0  0  0  0  0  0  0  0
    4.3866  -49.0859  -21.4084 C   0  0  0  0  0  0  0  0  0  0  0  0
    3.4113  -49.5690  -22.2795 O   0  0  0  0  0  0  0  0  0  0  0  0
    0.4595  -50.5054  -18.2606 N   0  0  0  0  0  0  0  0  0  0  0  0
    0.0548  -49.5381  -18.3620 H   0  0  0  0  0  0  0  0  0  0  0  0
    1.2819  -50.7730  -17.1280 C   0  0  0  0  0  0  0  0  0  0  0  0
    2.6042  -50.4918  -17.0472 C   0  0  0  0  0  0  0  0  0  0  0  0
    3.3539  -50.7529  -15.8866 C   0  0  0  0  0  0  0  0  0  0  0  0
    2.7359  -51.3099  -14.7989 C   0  0  0  0  0  0  0  0  0  0  0  0
    1.3939  -51.6121  -14.8395 C   0  0  0  0  0  0  0  0  0  0  0  0
    0.7057  -51.3436  -15.9800 C   0  0  0  0  0  0  0  0  0  0  0  0
    0.7286  -52.2042  -13.6907 C   0  0  0  0  0  0  0  0  0  0  0  0
    0.1770  -52.6890  -12.7349 C   0  0  0  0  0  0  0  0  0  0  0  0
    2.9157  -51.5989  -24.1070 O   0  0  0  0  0  0  0  0  0  0  0  0
    2.7146  -52.7356  -24.9187 C   0  0  0  0  0  0  0  0  0  0  0  0
    3.7897  -52.7997  -25.9839 C   0  0  0  0  0  0  0  0  0  0  0  0
    3.3057  -53.1515  -27.2137 O   0  0  0  0  0  0  0  0  0  0  0  0
    2.0299  -52.7617  -27.5101 C   0  0  0  0  0  0  0  0  0  0  0  0
    1.1043  -53.8148  -28.0168 C   0  0  0  0  0  0  0  0  0  0  0  0
   -0.2348  -53.2944  -28.1142 N   0  0  0  0  0  0  0  0  0  0  0  0
   -0.9093  -52.9767  -29.2474 C   0  0  0  0  0  0  0  0  0  0  0  0
   -2.1483  -52.5166  -28.9078 C   0  0  0  0  0  0  0  0  0  0  0  0
   -2.2132  -52.5589  -27.5772 N   0  0  0  0  0  0  0  0  0  0  0  0
   -1.0377  -53.0367  -27.0850 C   0  0  0  0  0  0  0  0  0  0  0  0
   -0.8162  -53.1825  -25.6921 N   0  0  0  0  0  0  0  0  0  0  0  0
   -0.6571  -54.4165  -25.0874 O   0  0  0  0  0  0  0  0  0  0  0  0
   -0.7614  -52.1481  -24.9712 O   0  0  0  0  0  0  0  0  0  0  0  0
 11 12  1  0  0  0
 12  1  1  0  0  0
  1  2  2  0  0  0
  2  3  1  0  0  0
  3  4  2  0  0  0
  4 13  1  0  0  0
 13 15  1  0  0  0
 15 16  2  0  0  0
 16 17  1  0  0  0
 17 18  2  0  0  0
 18 19  1  0  0  0
 19 20  2  0  0  0
 19 21  1  0  0  0
 21 22  3  0  0  0
  4  5  1  0  0  0
  5  6  2  0  0  0
  6  7  1  0  0  0
  7  8  2  0  0  0
  8  9  1  0  0  0
  9 10  2  0  0  0
 10 23  1  0  0  0
 23 24  1  0  0  0
 24 25  1  0  0  0
 25 26  1  0  0  0
 26 27  1  0  0  0
 27 28  1  0  0  0
 28 29  1  0  0  0
 29 30  1  0  0  0
 30 31  2  0  0  0
 31 32  1  0  0  0
 32 33  2  0  0  0
 33 34  1  0  0  0
 34 35  1  0  0  0
 34 36  2  0  0  0
 10  1  1  0  0  0
 33 29  1  0  0  0
  8  3  1  0  0  0
 20 15  1  0  0  0
 13 14  1  0  0  0
M  CHG 1  34   1
M  CHG 1  35  -1
M  END
> <minimizedAffinity>
-6.77765

> <CNNscore>
0.4321136475

> <CNNaffinity>
6.9963722229

> <CNN_VS>
3.0232279301

> <CNNaffinity_variance>
0.2451450080

$$$$
[H]C#Cc1c([H])c([H])c([H])c(N([H])c2nc([H])nc3c([H])c(OC([H])([H])C([H])([H])OC([H])([H])C([H])([H])n4c([N+](=O)[O-])nc([H])c4[H])c(OC([H])([H])[H])c([H])c23)c1[H]


 36 39  0  0  0  0  0  0  0  0999 V2000
    0.4141  -51.7078  -25.3723 C   0  0  0  0  0  0  0  0  0  0  0  0
    1.5770  -51.0752  -25.8559 C   0  0  0  0  0  0  0  0  0  0  0  0
    2.7097  -50.9320  -25.0881 C   0  0  0  0  0  0  0  0  0  0  0  0
    3.8473  -50.3120  -25.5598 C   0  0  0  0  0  0  0  0  0  0  0  0
    4.8972  -50.2311  -24.7061 N   0  0  0  0  0  0  0  0  0  0  0  0
    4.9128  -50.7002  -23.4599 C   0  0  0  0  0  0  0  0  0  0  0  0
    3.7971  -51.3012  -23.0168 N   0  0  0  0  0  0  0  0  0  0  0  0
    2.6967  -51.4371  -23.7771 C   0  0  0  0  0  0  0  0  0  0  0  0
    1.5562  -52.0425  -23.3419 C   0  0  0  0  0  0  0  0  0  0  0  0
    0.4081  -52.1996  -24.0894 C   0  0  0  0  0  0  0  0  0  0  0  0
   -0.8589  -52.7678  -27.1912 C   0  0  0  0  0  0  0  0  0  0  0  0
   -0.7057  -51.8364  -26.1653 O   0  0  0  0  0  0  0  0  0  0  0  0
    3.9014  -49.8343  -26.8779 N   0  0  0  0  0  0  0  0  0  0  0  0
    4.0917  -50.4887  -27.6812 H   0  0  0  0  0  0  0  0  0  0  0  0
    3.7063  -48.4531  -27.1696 C   0  0  0  0  0  0  0  0  0  0  0  0
    3.9660  -47.8696  -28.3638 C   0  0  0  0  0  0  0  0  0  0  0  0
    3.7216  -46.5046  -28.5971 C   0  0  0  0  0  0  0  0  0  0  0  0
    3.2055  -45.7330  -27.5904 C   0  0  0  0  0  0  0  0  0  0  0  0
    2.9282  -46.2864  -26.3612 C   0  0  0  0  0  0  0  0  0  0  0  0
    3.1787  -47.6093  -26.1773 C   0  0  0  0  0  0  0  0  0  0  0  0
    2.3809  -45.4759  -25.2858 C   0  0  0  0  0  0  0  0  0  0  0  0
    1.9334  -44.8038  -24.3910 C   0  0  0  0  0  0  0  0  0  0  0  0
   -0.7349  -52.8360  -23.5758 O   0  0  0  0  0  0  0  0  0  0  0  0
   -0.7704  -54.2457  -23.6291 C   0  0  0  0  0  0  0  0  0  0  0  0
   -0.8342  -54.8089  -22.2243 C   0  0  0  0  0  0  0  0  0  0  0  0
   -1.8613  -54.2903  -21.4850 O   0  0  0  0  0  0  0  0  0  0  0  0
   -1.5357  -53.7334  -20.2803 C   0  0  0  0  0  0  0  0  0  0  0  0
   -0.1115  -53.3393  -20.0832 C   0  0  0  0  0  0  0  0  0  0  0  0
    0.0075  -52.4550  -18.9530 N   0  0  0  0  0  0  0  0  0  0  0  0
   -0.8216  -52.3790  -17.8821 C   0  0  0  0  0  0  0  0  0  0  0  0
   -0.3595  -51.4140  -17.0352 C   0  0  0  0  0  0  0  0  0  0  0  0
    0.7409  -50.9154  -17.5984 N   0  0  0  0  0  0  0  0  0  0  0  0
    0.9700  -51.5532  -18.7787 C   0  0  0  0  0  0  0  0  0  0  0  0
    2.0740  -51.2210  -19.6043 N   0  0  0  0  0  0  0  0  0  0  0  0
    3.2205  -51.9929  -19.6626 O   0  0  0  0  0  0  0  0  0  0  0  0
    2.0127  -50.1806  -20.3161 O   0  0  0  0  0  0  0  0  0  0  0  0
 11 12  1  0  0  0
 12  1  1  0  0  0
  1  2  2  0  0  0
  2  3  1  0  0  0
  3  4  2  0  0  0
  4 13  1  0  0  0
 13 15  1  0  0  0
 15 16  2  0  0  0
 16 17  1  0  0  0
 17 18  2  0  0  0
 18 19  1  0  0  0
 19 20  2  0  0  0
 19 21  1  0  0  0
 21 22  3  0  0  0
  4  5  1  0  0  0
  5  6  2  0  0  0
  6  7  1  0  0  0
  7  8  2  0  0  0
  8  9  1  0  0  0
  9 10  2  0  0  0
 10 23  1  0  0  0
 23 24  1  0  0  0
 24 25  1  0  0  0
 25 26  1  0  0  0
 26 27  1  0  0  0
 27 28  1  0  0  0
 28 29  1  0  0  0
 29 30  1  0  0  0
 30 31  2  0  0  0
 31 32  1  0  0  0
 32 33  2  0  0  0
 33 34  1  0  0  0
 34 35  1  0  0  0
 34 36  2  0  0  0
 10  1  1  0  0  0
 33 29  1  0  0  0
  8  3  1  0  0  0
 20 15  1  0  0  0
 13 14  1  0  0  0
M  CHG 1  34   1
M  CHG 1  35  -1
M  END
> <minimizedAffinity>
-7.08592

> <CNNscore>
0.2751892209

> <CNNaffinity>
6.5054054260

> <CNN_VS>
1.7902173996

> <CNNaffinity_variance>
0.2946368158

$$$$
[H]c1nc(N([H])c2c([H])c([H])c(F)c(Cl)c2[H])c2c([H])c(OC([H])([H])C([H])([H])C([H])([H])N(C([H])([H])C([H])([H])[H])C([H])([H])C([H])([H])[H])c(OC([H])([H])[H])c([H])c2n1


 31 33  0  0  0  0  0  0  0  0999 V2000
    0.5695  -51.3682  -20.3373 C   0  0  0  0  0  0  0  0  0  0  0  0
    0.5596  -51.7528  -21.6610 C   0  0  0  0  0  0  0  0  0  0  0  0
   -0.0990  -52.8785  -22.1396 C   0  0  0  0  0  0  0  0  0  0  0  0
   -0.0980  -53.2407  -23.4627 C   0  0  0  0  0  0  0  0  0  0  0  0
   -0.7863  -54.3635  -23.8115 N   0  0  0  0  0  0  0  0  0  0  0  0
   -1.4489  -55.1131  -22.9364 C   0  0  0  0  0  0  0  0  0  0  0  0
   -1.4514  -54.7642  -21.6462 N   0  0  0  0  0  0  0  0  0  0  0  0
   -0.7897  -53.6607  -21.2234 C   0  0  0  0  0  0  0  0  0  0  0  0
   -0.8029  -53.3081  -19.8924 C   0  0  0  0  0  0  0  0  0  0  0  0
   -0.1448  -52.1951  -19.4513 C   0  0  0  0  0  0  0  0  0  0  0  0
    0.6300  -52.5182  -24.4220 N   0  0  0  0  0  0  0  0  0  0  0  0
    1.4318  -51.8673  -24.1720 H   0  0  0  0  0  0  0  0  0  0  0  0
    0.3369  -52.6209  -25.8114 C   0  0  0  0  0  0  0  0  0  0  0  0
    1.4058  -52.7640  -26.6999 C   0  0  0  0  0  0  0  0  0  0  0  0
    1.1753  -52.8275  -28.0357 C   0  0  0  0  0  0  0  0  0  0  0  0
   -0.1088  -52.7536  -28.5583 C   0  0  0  0  0  0  0  0  0  0  0  0
   -0.2505  -52.8268  -29.9103 F   0  0  0  0  0  0  0  0  0  0  0  0
   -1.1681  -52.6131  -27.7064 C   0  0  0  0  0  0  0  0  0  0  0  0
   -2.7863  -52.5153  -28.3448 Cl  0  0  0  0  0  0  0  0  0  0  0  0
   -0.9153  -52.5490  -26.3343 C   0  0  0  0  0  0  0  0  0  0  0  0
   -0.1521  -51.8335  -18.1112 O   0  0  0  0  0  0  0  0  0  0  0  0
   -1.0080  -52.4221  -17.1820 C   0  0  0  0  0  0  0  0  0  0  0  0
    1.2177  -50.2778  -19.9209 O   0  0  0  0  0  0  0  0  0  0  0  0
    2.4589  -49.9403  -19.4812 C   0  0  0  0  0  0  0  0  0  0  0  0
    3.6294  -50.7109  -19.9781 C   0  0  0  0  0  0  0  0  0  0  0  0
    4.3399  -50.1341  -21.1568 C   0  0  0  0  0  0  0  0  0  0  0  0
    4.0339  -50.6361  -22.4066 N   0  0  0  0  0  0  0  0  0  0  0  0
    2.8643  -48.6179  -22.9048 C   0  0  0  0  0  0  0  0  0  0  0  0
    3.3472  -49.9892  -23.4164 C   0  0  0  0  0  0  0  0  0  0  0  0
    4.8232  -51.7823  -22.8232 C   0  0  0  0  0  0  0  0  0  0  0  0
    4.1543  -52.5635  -23.9213 C   0  0  0  0  0  0  0  0  0  0  0  0
 28 29  1  0  0  0
 29 27  1  0  0  0
 27 30  1  0  0  0
 30 31  1  0  0  0
 27 26  1  0  0  0
 26 25  1  0  0  0
 25 24  1  0  0  0
 24 23  1  0  0  0
 23  1  1  0  0  0
  1  2  2  0  0  0
  2  3  1  0  0  0
  3  4  2  0  0  0
  4 11  1  0  0  0
 11 13  1  0  0  0
 13 14  2  0  0  0
 14 15  1  0  0  0
 15 16  2  0  0  0
 16 17  1  0  0  0
 16 18  1  0  0  0
 18 19  1  0  0  0
 18 20  2  0  0  0
  4  5  1  0  0  0
  5  6  2  0  0  0
  6  7  1  0  0  0
  7  8  2  0  0  0
  8  9  1  0  0  0
  9 10  2  0  0  0
 10 21  1  0  0  0
 21 22  1  0  0  0
 10  1  1  0  0  0
  8  3  1  0  0  0
 20 13  1  0  0  0
 11 12  1  0  0  0
M  END
> <minimizedAffinity>
-7.69595

> <CNNscore>
0.9837495685

> <CNNaffinity>
7.7919349670

> <CNN_VS>
7.6653127670

> <CNNaffinity_variance>
0.1056862921

$$$$
[H]c1nc(N([H])c2c([H])c([H])c(F)c(Cl)c2[H])c2c([H])c(OC([H])([H])C([H])([H])C([H])([H])N(C([H])([H])C([H])([H])[H])C([H])([H])C([H])([H])[H])c(OC([H])([H])[H])c([H])c2n1


 31 33  0  0  0  0  0  0  0  0999 V2000
    0.5439  -51.2498  -20.4302 C   0  0  0  0  0  0  0  0  0  0  0  0
    0.5200  -51.6435  -21.7511 C   0  0  0  0  0  0  0  0  0  0  0  0
   -0.0961  -52.8021  -22.2069 C   0  0  0  0  0  0  0  0  0  0  0  0
   -0.1102  -53.1729  -23.5276 C   0  0  0  0  0  0  0  0  0  0  0  0
   -0.7530  -54.3292  -23.8531 N   0  0  0  0  0  0  0  0  0  0  0  0
   -1.3580  -55.1032  -22.9578 C   0  0  0  0  0  0  0  0  0  0  0  0
   -1.3456  -54.7460  -21.6699 N   0  0  0  0  0  0  0  0  0  0  0  0
   -0.7267  -53.6098  -21.2697 C   0  0  0  0  0  0  0  0  0  0  0  0
   -0.7242  -53.2492  -19.9407 C   0  0  0  0  0  0  0  0  0  0  0  0
   -0.1089  -52.1035  -19.5222 C   0  0  0  0  0  0  0  0  0  0  0  0
    0.5594  -52.4234  -24.5086 N   0  0  0  0  0  0  0  0  0  0  0  0
    1.3046  -51.7018  -24.2786 H   0  0  0  0  0  0  0  0  0  0  0  0
    0.2799  -52.5928  -25.8943 C   0  0  0  0  0  0  0  0  0  0  0  0
    1.3542  -52.8194  -26.7586 C   0  0  0  0  0  0  0  0  0  0  0  0
    1.1379  -52.9488  -28.0921 C   0  0  0  0  0  0  0  0  0  0  0  0
   -0.1364  -52.8618  -28.6358 C   0  0  0  0  0  0  0  0  0  0  0  0
   -0.2641  -53.0047  -29.9837 F   0  0  0  0  0  0  0  0  0  0  0  0
   -1.2009  -52.6402  -27.8078 C   0  0  0  0  0  0  0  0  0  0  0  0
   -2.8070  -52.5248  -28.4732 Cl  0  0  0  0  0  0  0  0  0  0  0  0
   -0.9627  -52.5090  -26.4378 C   0  0  0  0  0  0  0  0  0  0  0  0
   -0.1007  -51.7335  -18.1845 O   0  0  0  0  0  0  0  0  0  0  0  0
   -0.8447  -52.4070  -17.2174 C   0  0  0  0  0  0  0  0  0  0  0  0
    1.1498  -50.1274  -20.0360 O   0  0  0  0  0  0  0  0  0  0  0  0
    2.3963  -49.7170  -19.6816 C   0  0  0  0  0  0  0  0  0  0  0  0
    3.5674  -50.5213  -20.1203 C   0  0  0  0  0  0  0  0  0  0  0  0
    4.3678  -49.9525  -21.2440 C   0  0  0  0  0  0  0  0  0  0  0  0
    4.3264  -50.6022  -22.4622 N   0  0  0  0  0  0  0  0  0  0  0  0
    4.0606  -52.4666  -23.9260 C   0  0  0  0  0  0  0  0  0  0  0  0
    4.8528  -51.8448  -22.7593 C   0  0  0  0  0  0  0  0  0  0  0  0
    3.3251  -50.1096  -23.3923 C   0  0  0  0  0  0  0  0  0  0  0  0
    3.1273  -48.6225  -23.2789 C   0  0  0  0  0  0  0  0  0  0  0  0
 28 29  1  0  0  0
 29 27  1  0  0  0
 27 30  1  0  0  0
 30 31  1  0  0  0
 27 26  1  0  0  0
 26 25  1  0  0  0
 25 24  1  0  0  0
 24 23  1  0  0  0
 23  1  1  0  0  0
  1  2  2  0  0  0
  2  3  1  0  0  0
  3  4  2  0  0  0
  4 11  1  0  0  0
 11 13  1  0  0  0
 13 14  2  0  0  0
 14 15  1  0  0  0
 15 16  2  0  0  0
 16 17  1  0  0  0
 16 18  1  0  0  0
 18 19  1  0  0  0
 18 20  2  0  0  0
  4  5  1  0  0  0
  5  6  2  0  0  0
  6  7  1  0  0  0
  7  8  2  0  0  0
  8  9  1  0  0  0
  9 10  2  0  0  0
 10 21  1  0  0  0
 21 22  1  0  0  0
 10  1  1  0  0  0
  8  3  1  0  0  0
 20 13  1  0  0  0
 11 12  1  0  0  0
M  END
> <minimizedAffinity>
-7.61386

> <CNNscore>
0.9809693694

> <CNNaffinity>
7.7630996704

> <CNN_VS>
7.6153631210

> <CNNaffinity_variance>
0.1040822268

$$$$
[H]c1nc(N([H])c2c([H])c([H])c(F)c(Cl)c2[H])c2c([H])c(OC([H])([H])C([H])([H])C([H])([H])N(C([H])([H])C([H])([H])[H])C([H])([H])C([H])([H])[H])c(OC([H])([H])[H])c([H])c2n1


 31 33  0  0  0  0  0  0  0  0999 V2000
    0.6129  -51.6146  -20.4144 C   0  0  0  0  0  0  0  0  0  0  0  0
    0.6106  -51.9900  -21.7408 C   0  0  0  0  0  0  0  0  0  0  0  0
   -0.1003  -53.0733  -22.2419 C   0  0  0  0  0  0  0  0  0  0  0  0
   -0.0906  -53.4270  -23.5672 C   0  0  0  0  0  0  0  0  0  0  0  0
   -0.8339  -54.5064  -23.9393 N   0  0  0  0  0  0  0  0  0  0  0  0
   -1.5576  -55.2221  -23.0844 C   0  0  0  0  0  0  0  0  0  0  0  0
   -1.5689  -54.8814  -21.7920 N   0  0  0  0  0  0  0  0  0  0  0  0
   -0.8549  -53.8202  -21.3468 C   0  0  0  0  0  0  0  0  0  0  0  0
   -0.8777  -53.4754  -20.0139 C   0  0  0  0  0  0  0  0  0  0  0  0
   -0.1671  -52.4046  -19.5503 C   0  0  0  0  0  0  0  0  0  0  0  0
    0.6988  -52.7416  -24.5051 N   0  0  0  0  0  0  0  0  0  0  0  0
    1.5500  -52.1655  -24.2357 H   0  0  0  0  0  0  0  0  0  0  0  0
    0.4049  -52.7832  -25.8975 C   0  0  0  0  0  0  0  0  0  0  0  0
    1.4717  -52.9107  -26.7910 C   0  0  0  0  0  0  0  0  0  0  0  0
    1.2410  -52.9165  -28.1282 C   0  0  0  0  0  0  0  0  0  0  0  0
   -0.0410  -52.7978  -28.6475 C   0  0  0  0  0  0  0  0  0  0  0  0
   -0.1831  -52.8143  -30.0014 F   0  0  0  0  0  0  0  0  0  0  0  0
   -1.0983  -52.6717  -27.7907 C   0  0  0  0  0  0  0  0  0  0  0  0
   -2.7138  -52.5183  -28.4248 Cl  0  0  0  0  0  0  0  0  0  0  0  0
   -0.8453  -52.6672  -26.4171 C   0  0  0  0  0  0  0  0  0  0  0  0
   -0.1836  -52.0513  -18.2082 O   0  0  0  0  0  0  0  0  0  0  0  0
   -1.0761  -52.6137  -17.2973 C   0  0  0  0  0  0  0  0  0  0  0  0
    1.3128  -50.5657  -19.9759 O   0  0  0  0  0  0  0  0  0  0  0  0
    2.6051  -50.2546  -19.6912 C   0  0  0  0  0  0  0  0  0  0  0  0
    2.8823  -49.1945  -18.6861 C   0  0  0  0  0  0  0  0  0  0  0  0
    1.7809  -48.9023  -17.7225 C   0  0  0  0  0  0  0  0  0  0  0  0
    1.9158  -49.3609  -16.4267 N   0  0  0  0  0  0  0  0  0  0  0  0
   -0.4220  -49.1723  -15.9924 C   0  0  0  0  0  0  0  0  0  0  0  0
    0.9123  -49.8403  -15.6065 C   0  0  0  0  0  0  0  0  0  0  0  0
    3.2676  -49.7213  -16.0354 C   0  0  0  0  0  0  0  0  0  0  0  0
    3.3538  -51.1346  -15.5268 C   0  0  0  0  0  0  0  0  0  0  0  0
 28 29  1  0  0  0
 29 27  1  0  0  0
 27 30  1  0  0  0
 30 31  1  0  0  0
 27 26  1  0  0  0
 26 25  1  0  0  0
 25 24  1  0  0  0
 24 23  1  0  0  0
 23  1  1  0  0  0
  1  2  2  0  0  0
  2  3  1  0  0  0
  3  4  2  0  0  0
  4 11  1  0  0  0
 11 13  1  0  0  0
 13 14  2  0  0  0
 14 15  1  0  0  0
 15 16  2  0  0  0
 16 17  1  0  0  0
 16 18  1  0  0  0
 18 19  1  0  0  0
 18 20  2  0  0  0
  4  5  1  0  0  0
  5  6  2  0  0  0
  6  7  1  0  0  0
  7  8  2  0  0  0
  8  9  1  0  0  0
  9 10  2  0  0  0
 10 21  1  0  0  0
 21 22  1  0  0  0
 10  1  1  0  0  0
  8  3  1  0  0  0
 20 13  1  0  0  0
 11 12  1  0  0  0
M  END
> <minimizedAffinity>
-7.38755

> <CNNscore>
0.9781850576

> <CNNaffinity>
7.6050314903

> <CNN_VS>
7.4391283989

> <CNNaffinity_variance>
0.0201905183

$$$$
[H]c1nc(N([H])c2c([H])c([H])c(F)c(Cl)c2[H])c2c([H])c(OC([H])([H])C([H])([H])C([H])([H])N(C([H])([H])C([H])([H])[H])C([H])([H])C([H])([H])[H])c(OC([H])([H])[H])c([H])c2n1


 31 33  0  0  0  0  0  0  0  0999 V2000
    0.3095  -51.0046  -20.3054 C   0  0  0  0  0  0  0  0  0  0  0  0
    0.1697  -51.3517  -21.6322 C   0  0  0  0  0  0  0  0  0  0  0  0
   -0.2880  -52.5885  -22.0690 C   0  0  0  0  0  0  0  0  0  0  0  0
   -0.4223  -52.9113  -23.3955 C   0  0  0  0  0  0  0  0  0  0  0  0
   -0.8879  -54.1551  -23.6997 N   0  0  0  0  0  0  0  0  0  0  0  0
   -1.2123  -55.0569  -22.7787 C   0  0  0  0  0  0  0  0  0  0  0  0
   -1.0818  -54.7466  -21.4852 N   0  0  0  0  0  0  0  0  0  0  0  0
   -0.6253  -53.5295  -21.1051 C   0  0  0  0  0  0  0  0  0  0  0  0
   -0.4993  -53.2190  -19.7695 C   0  0  0  0  0  0  0  0  0  0  0  0
   -0.0454  -51.9938  -19.3702 C   0  0  0  0  0  0  0  0  0  0  0  0
   -0.0427  -52.0189  -24.4113 N   0  0  0  0  0  0  0  0  0  0  0  0
    0.3711  -51.0600  -24.2157 H   0  0  0  0  0  0  0  0  0  0  0  0
   -0.1862  -52.3533  -25.7877 C   0  0  0  0  0  0  0  0  0  0  0  0
   -1.4165  -52.1018  -26.4005 C   0  0  0  0  0  0  0  0  0  0  0  0
   -1.6098  -52.4395  -27.7006 C   0  0  0  0  0  0  0  0  0  0  0  0
   -0.6094  -53.0370  -28.4551 C   0  0  0  0  0  0  0  0  0  0  0  0
   -0.8872  -53.3419  -29.7525 F   0  0  0  0  0  0  0  0  0  0  0  0
    0.6013  -53.2919  -27.8746 C   0  0  0  0  0  0  0  0  0  0  0  0
    1.8674  -54.0443  -28.8055 Cl  0  0  0  0  0  0  0  0  0  0  0  0
    0.7853  -52.9389  -26.5358 C   0  0  0  0  0  0  0  0  0  0  0  0
    0.0858  -51.6734  -18.0261 O   0  0  0  0  0  0  0  0  0  0  0  0
   -0.8349  -52.0871  -17.0650 C   0  0  0  0  0  0  0  0  0  0  0  0
    0.7549  -49.8032  -19.9303 O   0  0  0  0  0  0  0  0  0  0  0  0
    1.8802  -49.0517  -20.0594 C   0  0  0  0  0  0  0  0  0  0  0  0
    2.2530  -48.5449  -21.4067 C   0  0  0  0  0  0  0  0  0  0  0  0
    3.6405  -48.8536  -21.8610 C   0  0  0  0  0  0  0  0  0  0  0  0
    3.9134  -50.1411  -22.2798 N   0  0  0  0  0  0  0  0  0  0  0  0
    6.0612  -50.6810  -21.3938 C   0  0  0  0  0  0  0  0  0  0  0  0
    4.5941  -51.1167  -21.5765 C   0  0  0  0  0  0  0  0  0  0  0  0
    3.0939  -50.6210  -23.3791 C   0  0  0  0  0  0  0  0  0  0  0  0
    3.5237  -51.9817  -23.8560 C   0  0  0  0  0  0  0  0  0  0  0  0
 28 29  1  0  0  0
 29 27  1  0  0  0
 27 30  1  0  0  0
 30 31  1  0  0  0
 27 26  1  0  0  0
 26 25  1  0  0  0
 25 24  1  0  0  0
 24 23  1  0  0  0
 23  1  1  0  0  0
  1  2  2  0  0  0
  2  3  1  0  0  0
  3  4  2  0  0  0
  4 11  1  0  0  0
 11 13  1  0  0  0
 13 14  2  0  0  0
 14 15  1  0  0  0
 15 16  2  0  0  0
 16 17  1  0  0  0
 16 18  1  0  0  0
 18 19  1  0  0  0
 18 20  2  0  0  0
  4  5  1  0  0  0
  5  6  2  0  0  0
  6  7  1  0  0  0
  7  8  2  0  0  0
  8  9  1  0  0  0
  9 10  2  0  0  0
 10 21  1  0  0  0
 21 22  1  0  0  0
 10  1  1  0  0  0
  8  3  1  0  0  0
 20 13  1  0  0  0
 11 12  1  0  0  0
M  END
> <minimizedAffinity>
-7.38202

> <CNNscore>
0.9261989594

> <CNNaffinity>
7.5233268738

> <CNN_VS>
6.9680976868

> <CNNaffinity_variance>
0.0646495670

$$$$
[H]c1nc(N([H])c2c([H])c([H])c(F)c(Cl)c2[H])c2c([H])c(OC([H])([H])C([H])([H])C([H])([H])N(C([H])([H])C([H])([H])[H])C([H])([H])C([H])([H])[H])c(OC([H])([H])[H])c([H])c2n1


 31 33  0  0  0  0  0  0  0  0999 V2000
    1.0031  -51.5950  -19.6722 C   0  0  0  0  0  0  0  0  0  0  0  0
    0.9762  -52.0434  -20.9755 C   0  0  0  0  0  0  0  0  0  0  0  0
    0.0887  -53.0005  -21.4512 C   0  0  0  0  0  0  0  0  0  0  0  0
    0.0778  -53.4298  -22.7541 C   0  0  0  0  0  0  0  0  0  0  0  0
   -0.8453  -54.3691  -23.1027 N   0  0  0  0  0  0  0  0  0  0  0  0
   -1.7233  -54.8809  -22.2460 C   0  0  0  0  0  0  0  0  0  0  0  0
   -1.7152  -54.4661  -20.9755 N   0  0  0  0  0  0  0  0  0  0  0  0
   -0.8269  -53.5345  -20.5542 C   0  0  0  0  0  0  0  0  0  0  0  0
   -0.8308  -53.1111  -19.2439 C   0  0  0  0  0  0  0  0  0  0  0  0
    0.0553  -52.1684  -18.8050 C   0  0  0  0  0  0  0  0  0  0  0  0
    1.0173  -52.9652  -23.6889 N   0  0  0  0  0  0  0  0  0  0  0  0
    2.0185  -52.7194  -23.4315 H   0  0  0  0  0  0  0  0  0  0  0  0
    0.6811  -52.7988  -25.0623 C   0  0  0  0  0  0  0  0  0  0  0  0
   -0.4479  -52.0371  -25.3749 C   0  0  0  0  0  0  0  0  0  0  0  0
   -0.8271  -51.8837  -26.6689 C   0  0  0  0  0  0  0  0  0  0  0  0
   -0.1193  -52.4683  -27.7102 C   0  0  0  0  0  0  0  0  0  0  0  0
   -0.5681  -52.2624  -28.9790 F   0  0  0  0  0  0  0  0  0  0  0  0
    0.9877  -53.2176  -27.4259 C   0  0  0  0  0  0  0  0  0  0  0  0
    1.8863  -53.9615  -28.7200 Cl  0  0  0  0  0  0  0  0  0  0  0  0
    1.3657  -53.3666  -26.0896 C   0  0  0  0  0  0  0  0  0  0  0  0
    0.0589  -51.7371  -17.4857 O   0  0  0  0  0  0  0  0  0  0  0  0
   -1.0358  -51.9072  -16.6400 C   0  0  0  0  0  0  0  0  0  0  0  0
    1.8754  -50.6733  -19.2577 O   0  0  0  0  0  0  0  0  0  0  0  0
    1.9450  -49.3208  -19.1413 C   0  0  0  0  0  0  0  0  0  0  0  0
    1.7715  -48.7071  -17.7981 C   0  0  0  0  0  0  0  0  0  0  0  0
    2.5140  -49.3592  -16.6799 C   0  0  0  0  0  0  0  0  0  0  0  0
    1.9837  -49.2642  -15.4082 N   0  0  0  0  0  0  0  0  0  0  0  0
    3.8044  -50.2825  -14.2518 C   0  0  0  0  0  0  0  0  0  0  0  0
    2.6834  -49.2254  -14.2171 C   0  0  0  0  0  0  0  0  0  0  0  0
    0.6136  -48.7858  -15.3433 C   0  0  0  0  0  0  0  0  0  0  0  0
    0.4494  -47.6657  -14.3523 C   0  0  0  0  0  0  0  0  0  0  0  0
 28 29  1  0  0  0
 29 27  1  0  0  0
 27 30  1  0  0  0
 30 31  1  0  0  0
 27 26  1  0  0  0
 26 25  1  0  0  0
 25 24  1  0  0  0
 24 23  1  0  0  0
 23  1  1  0  0  0
  1  2  2  0  0  0
  2  3  1  0  0  0
  3  4  2  0  0  0
  4 11  1  0  0  0
 11 13  1  0  0  0
 13 14  2  0  0  0
 14 15  1  0  0  0
 15 16  2  0  0  0
 16 17  1  0  0  0
 16 18  1  0  0  0
 18 19  1  0  0  0
 18 20  2  0  0  0
  4  5  1  0  0  0
  5  6  2  0  0  0
  6  7  1  0  0  0
  7  8  2  0  0  0
  8  9  1  0  0  0
  9 10  2  0  0  0
 10 21  1  0  0  0
 21 22  1  0  0  0
 10  1  1  0  0  0
  8  3  1  0  0  0
 20 13  1  0  0  0
 11 12  1  0  0  0
M  END
> <minimizedAffinity>
-6.49704

> <CNNscore>
0.8331623077

> <CNNaffinity>
7.1023612022

> <CNN_VS>
5.9174194336

> <CNNaffinity_variance>
0.0639110133

$$$$
[H]c1nc(N([H])c2c([H])c([H])c(F)c(Cl)c2[H])c2c([H])c(OC([H])([H])C([H])([H])C([H])([H])N(C([H])([H])C([H])([H])[H])C([H])([H])C([H])([H])[H])c(OC([H])([H])[H])c([H])c2n1


 31 33  0  0  0  0  0  0  0  0999 V2000
    0.3210  -51.1140  -19.0743 C   0  0  0  0  0  0  0  0  0  0  0  0
    0.4081  -51.3062  -20.4366 C   0  0  0  0  0  0  0  0  0  0  0  0
   -0.1296  -52.3992  -21.1044 C   0  0  0  0  0  0  0  0  0  0  0  0
   -0.0337  -52.5684  -22.4624 C   0  0  0  0  0  0  0  0  0  0  0  0
   -0.6076  -53.6793  -23.0033 N   0  0  0  0  0  0  0  0  0  0  0  0
   -1.2470  -54.5940  -22.2814 C   0  0  0  0  0  0  0  0  0  0  0  0
   -1.3417  -54.4333  -20.9579 N   0  0  0  0  0  0  0  0  0  0  0  0
   -0.7963  -53.3540  -20.3481 C   0  0  0  0  0  0  0  0  0  0  0  0
   -0.9041  -53.1963  -18.9844 C   0  0  0  0  0  0  0  0  0  0  0  0
   -0.3639  -52.1105  -18.3553 C   0  0  0  0  0  0  0  0  0  0  0  0
    0.6773  -51.6636  -23.2674 N   0  0  0  0  0  0  0  0  0  0  0  0
    0.2380  -50.7917  -23.6867 H   0  0  0  0  0  0  0  0  0  0  0  0
    2.0545  -51.8599  -23.5702 C   0  0  0  0  0  0  0  0  0  0  0  0
    2.3778  -52.6084  -24.7051 C   0  0  0  0  0  0  0  0  0  0  0  0
    3.6773  -52.8524  -25.0107 C   0  0  0  0  0  0  0  0  0  0  0  0
    4.7140  -52.3757  -24.2201 C   0  0  0  0  0  0  0  0  0  0  0  0
    5.9888  -52.6656  -24.6000 F   0  0  0  0  0  0  0  0  0  0  0  0
    4.4194  -51.6419  -23.1054 C   0  0  0  0  0  0  0  0  0  0  0  0
    5.7078  -51.0385  -22.0997 Cl  0  0  0  0  0  0  0  0  0  0  0  0
    3.0774  -51.3990  -22.8037 C   0  0  0  0  0  0  0  0  0  0  0  0
   -0.4670  -51.9448  -16.9811 O   0  0  0  0  0  0  0  0  0  0  0  0
   -1.6916  -51.9572  -16.3157 C   0  0  0  0  0  0  0  0  0  0  0  0
    0.8544  -50.0479  -18.4734 O   0  0  0  0  0  0  0  0  0  0  0  0
    1.7130  -49.0373  -18.7725 C   0  0  0  0  0  0  0  0  0  0  0  0
    2.7949  -48.7068  -17.8075 C   0  0  0  0  0  0  0  0  0  0  0  0
    3.3303  -49.8480  -17.0088 C   0  0  0  0  0  0  0  0  0  0  0  0
    3.0501  -49.8799  -15.6567 N   0  0  0  0  0  0  0  0  0  0  0  0
    4.1718  -48.2707  -14.2996 C   0  0  0  0  0  0  0  0  0  0  0  0
    2.8234  -48.7963  -14.8296 C   0  0  0  0  0  0  0  0  0  0  0  0
    2.5835  -51.1595  -15.1516 C   0  0  0  0  0  0  0  0  0  0  0  0
    3.7054  -51.9939  -14.5960 C   0  0  0  0  0  0  0  0  0  0  0  0
 28 29  1  0  0  0
 29 27  1  0  0  0
 27 30  1  0  0  0
 30 31  1  0  0  0
 27 26  1  0  0  0
 26 25  1  0  0  0
 25 24  1  0  0  0
 24 23  1  0  0  0
 23  1  1  0  0  0
  1  2  2  0  0  0
  2  3  1  0  0  0
  3  4  2  0  0  0
  4 11  1  0  0  0
 11 13  1  0  0  0
 13 14  2  0  0  0
 14 15  1  0  0  0
 15 16  2  0  0  0
 16 17  1  0  0  0
 16 18  1  0  0  0
 18 19  1  0  0  0
 18 20  2  0  0  0
  4  5  1  0  0  0
  5  6  2  0  0  0
  6  7  1  0  0  0
  7  8  2  0  0  0
  8  9  1  0  0  0
  9 10  2  0  0  0
 10 21  1  0  0  0
 21 22  1  0  0  0
 10  1  1  0  0  0
  8  3  1  0  0  0
 20 13  1  0  0  0
 11 12  1  0  0  0
M  END
> <minimizedAffinity>
-6.39555

> <CNNscore>
0.6827279925

> <CNNaffinity>
6.7320442200

> <CNN_VS>
4.5961551666

> <CNNaffinity_variance>
0.0460241958

$$$$
[H]c1nc(N([H])c2c([H])c([H])c(F)c(Cl)c2[H])c2c([H])c(OC([H])([H])C([H])([H])C([H])([H])N(C([H])([H])C([H])([H])[H])C([H])([H])C([H])([H])[H])c(OC([H])([H])[H])c([H])c2n1


 31 33  0  0  0  0  0  0  0  0999 V2000
    0.1359  -51.2997  -18.4676 C   0  0  0  0  0  0  0  0  0  0  0  0
    0.3298  -51.3328  -19.8320 C   0  0  0  0  0  0  0  0  0  0  0  0
   -0.1836  -52.3167  -20.6675 C   0  0  0  0  0  0  0  0  0  0  0  0
    0.0195  -52.3280  -22.0241 C   0  0  0  0  0  0  0  0  0  0  0  0
   -0.5411  -53.3432  -22.7391 N   0  0  0  0  0  0  0  0  0  0  0  0
   -1.2658  -54.3104  -22.1858 C   0  0  0  0  0  0  0  0  0  0  0  0
   -1.4651  -54.3036  -20.8642 N   0  0  0  0  0  0  0  0  0  0  0  0
   -0.9396  -53.3267  -20.0871 C   0  0  0  0  0  0  0  0  0  0  0  0
   -1.1553  -53.3271  -18.7271 C   0  0  0  0  0  0  0  0  0  0  0  0
   -0.6364  -52.3458  -17.9307 C   0  0  0  0  0  0  0  0  0  0  0  0
    0.8220  -51.3636  -22.6552 N   0  0  0  0  0  0  0  0  0  0  0  0
    0.4675  -50.3977  -22.9200 H   0  0  0  0  0  0  0  0  0  0  0  0
    2.1840  -51.6243  -22.9778 C   0  0  0  0  0  0  0  0  0  0  0  0
    2.4550  -52.3964  -24.1105 C   0  0  0  0  0  0  0  0  0  0  0  0
    3.7371  -52.7013  -24.4343 C   0  0  0  0  0  0  0  0  0  0  0  0
    4.8069  -52.2648  -23.6647 C   0  0  0  0  0  0  0  0  0  0  0  0
    6.0611  -52.6150  -24.0620 F   0  0  0  0  0  0  0  0  0  0  0  0
    4.5635  -51.5088  -22.5525 C   0  0  0  0  0  0  0  0  0  0  0  0
    5.8938  -50.9551  -21.5731 Cl  0  0  0  0  0  0  0  0  0  0  0  0
    3.2388  -51.2032  -22.2320 C   0  0  0  0  0  0  0  0  0  0  0  0
   -0.8481  -52.3396  -16.5589 O   0  0  0  0  0  0  0  0  0  0  0  0
   -2.0608  -51.9536  -15.9907 C   0  0  0  0  0  0  0  0  0  0  0  0
    0.6498  -50.3343  -17.7019 O   0  0  0  0  0  0  0  0  0  0  0  0
    0.2136  -49.4027  -16.8133 C   0  0  0  0  0  0  0  0  0  0  0  0
    1.2054  -48.4866  -16.1904 C   0  0  0  0  0  0  0  0  0  0  0  0
    2.6400  -48.7880  -16.4697 C   0  0  0  0  0  0  0  0  0  0  0  0
    3.3797  -47.8417  -17.1516 N   0  0  0  0  0  0  0  0  0  0  0  0
    4.5356  -47.1876  -15.1703 C   0  0  0  0  0  0  0  0  0  0  0  0
    4.5262  -47.2082  -16.7114 C   0  0  0  0  0  0  0  0  0  0  0  0
    3.1503  -47.7924  -18.5852 C   0  0  0  0  0  0  0  0  0  0  0  0
    4.0563  -48.7285  -19.3378 C   0  0  0  0  0  0  0  0  0  0  0  0
 28 29  1  0  0  0
 29 27  1  0  0  0
 27 30  1  0  0  0
 30 31  1  0  0  0
 27 26  1  0  0  0
 26 25  1  0  0  0
 25 24  1  0  0  0
 24 23  1  0  0  0
 23  1  1  0  0  0
  1  2  2  0  0  0
  2  3  1  0  0  0
  3  4  2  0  0  0
  4 11  1  0  0  0
 11 13  1  0  0  0
 13 14  2  0  0  0
 14 15  1  0  0  0
 15 16  2  0  0  0
 16 17  1  0  0  0
 16 18  1  0  0  0
 18 19  1  0  0  0
 18 20  2  0  0  0
  4  5  1  0  0  0
  5  6  2  0  0  0
  6  7  1  0  0  0
  7  8  2  0  0  0
  8  9  1  0  0  0
  9 10  2  0  0  0
 10 21  1  0  0  0
 21 22  1  0  0  0
 10  1  1  0  0  0
  8  3  1  0  0  0
 20 13  1  0  0  0
 11 12  1  0  0  0
M  END
> <minimizedAffinity>
-5.95053

> <CNNscore>
0.5694267750

> <CNNaffinity>
6.6988554001

> <CNN_VS>
3.8145077229

> <CNNaffinity_variance>
0.1036188751

$$$$
[H]c1nc(N([H])c2c([H])c([H])c(F)c(Cl)c2[H])c2c([H])c(OC([H])([H])C([H])([H])C([H])([H])N(C([H])([H])C([H])([H])[H])C([H])([H])C([H])([H])[H])c(OC([H])([H])[H])c([H])c2n1


 31 33  0  0  0  0  0  0  0  0999 V2000
    1.7652  -50.1097  -20.2476 C   0  0  0  0  0  0  0  0  0  0  0  0
    1.6409  -50.9585  -21.3267 C   0  0  0  0  0  0  0  0  0  0  0  0
    0.8105  -52.0719  -21.3495 C   0  0  0  0  0  0  0  0  0  0  0  0
    0.7001  -52.9016  -22.4364 C   0  0  0  0  0  0  0  0  0  0  0  0
   -0.1534  -53.9592  -22.3406 N   0  0  0  0  0  0  0  0  0  0  0  0
   -0.8731  -54.2184  -21.2537 C   0  0  0  0  0  0  0  0  0  0  0  0
   -0.7676  -53.4130  -20.1922 N   0  0  0  0  0  0  0  0  0  0  0  0
    0.0602  -52.3414  -20.2125 C   0  0  0  0  0  0  0  0  0  0  0  0
    0.1575  -51.5157  -19.1148 C   0  0  0  0  0  0  0  0  0  0  0  0
    0.9840  -50.4279  -19.1217 C   0  0  0  0  0  0  0  0  0  0  0  0
    1.4770  -52.7085  -23.5903 N   0  0  0  0  0  0  0  0  0  0  0  0
    2.5307  -52.5748  -23.5641 H   0  0  0  0  0  0  0  0  0  0  0  0
    0.8903  -52.6863  -24.8874 C   0  0  0  0  0  0  0  0  0  0  0  0
    1.7063  -52.9805  -25.9830 C   0  0  0  0  0  0  0  0  0  0  0  0
    1.1982  -52.9341  -27.2405 C   0  0  0  0  0  0  0  0  0  0  0  0
   -0.1274  -52.5981  -27.4793 C   0  0  0  0  0  0  0  0  0  0  0  0
   -0.5554  -52.5768  -28.7715 F   0  0  0  0  0  0  0  0  0  0  0  0
   -0.9422  -52.3065  -26.4216 C   0  0  0  0  0  0  0  0  0  0  0  0
   -2.6078  -51.8795  -26.7028 Cl  0  0  0  0  0  0  0  0  0  0  0  0
   -0.4052  -52.3583  -25.1333 C   0  0  0  0  0  0  0  0  0  0  0  0
    1.0888  -49.5915  -18.0190 O   0  0  0  0  0  0  0  0  0  0  0  0
    0.2191  -49.6727  -16.9330 C   0  0  0  0  0  0  0  0  0  0  0  0
    2.5776  -49.0505  -20.2689 O   0  0  0  0  0  0  0  0  0  0  0  0
    2.7336  -47.9047  -20.9835 C   0  0  0  0  0  0  0  0  0  0  0  0
    3.7140  -47.8851  -22.1013 C   0  0  0  0  0  0  0  0  0  0  0  0
    3.1774  -47.4858  -23.4353 C   0  0  0  0  0  0  0  0  0  0  0  0
    3.4449  -48.3071  -24.5131 N   0  0  0  0  0  0  0  0  0  0  0  0
    4.2771  -50.5361  -24.6825 C   0  0  0  0  0  0  0  0  0  0  0  0
    3.0394  -49.6176  -24.6797 C   0  0  0  0  0  0  0  0  0  0  0  0
    3.8564  -47.6218  -25.7260 C   0  0  0  0  0  0  0  0  0  0  0  0
    4.1208  -46.1595  -25.4903 C   0  0  0  0  0  0  0  0  0  0  0  0
 28 29  1  0  0  0
 29 27  1  0  0  0
 27 30  1  0  0  0
 30 31  1  0  0  0
 27 26  1  0  0  0
 26 25  1  0  0  0
 25 24  1  0  0  0
 24 23  1  0  0  0
 23  1  1  0  0  0
  1  2  2  0  0  0
  2  3  1  0  0  0
  3  4  2  0  0  0
  4 11  1  0  0  0
 11 13  1  0  0  0
 13 14  2  0  0  0
 14 15  1  0  0  0
 15 16  2  0  0  0
 16 17  1  0  0  0
 16 18  1  0  0  0
 18 19  1  0  0  0
 18 20  2  0  0  0
  4  5  1  0  0  0
  5  6  2  0  0  0
  6  7  1  0  0  0
  7  8  2  0  0  0
  8  9  1  0  0  0
  9 10  2  0  0  0
 10 21  1  0  0  0
 21 22  1  0  0  0
 10  1  1  0  0  0
  8  3  1  0  0  0
 20 13  1  0  0  0
 11 12  1  0  0  0
M  END
> <minimizedAffinity>
-6.22028

> <CNNscore>
0.4939490557

> <CNNaffinity>
7.0735864639

> <CNN_VS>
3.4939913750

> <CNNaffinity_variance>
0.3598609567

$$$$
[H]c1nc(N([H])c2c([H])c([H])c(F)c(Cl)c2[H])c2c([H])c(OC([H])([H])C([H])([H])C([H])([H])N(C([H])([H])C([H])([H])[H])C([H])([H])C([H])([H])[H])c(OC([H])([H])[H])c([H])c2n1


 31 33  0  0  0  0  0  0  0  0999 V2000
    0.5621  -51.6590  -19.9147 C   0  0  0  0  0  0  0  0  0  0  0  0
    0.6483  -51.5122  -21.2827 C   0  0  0  0  0  0  0  0  0  0  0  0
    0.1648  -52.4397  -22.1970 C   0  0  0  0  0  0  0  0  0  0  0  0
    0.2586  -52.2714  -23.5552 C   0  0  0  0  0  0  0  0  0  0  0  0
   -0.2590  -53.2486  -24.3509 N   0  0  0  0  0  0  0  0  0  0  0  0
   -0.8423  -54.3436  -23.8739 C   0  0  0  0  0  0  0  0  0  0  0  0
   -0.9348  -54.5119  -22.5511 N   0  0  0  0  0  0  0  0  0  0  0  0
   -0.4434  -53.5833  -21.6964 C   0  0  0  0  0  0  0  0  0  0  0  0
   -0.5484  -53.7649  -20.3355 C   0  0  0  0  0  0  0  0  0  0  0  0
   -0.0624  -52.8350  -19.4606 C   0  0  0  0  0  0  0  0  0  0  0  0
    0.9133  -51.1620  -24.1148 N   0  0  0  0  0  0  0  0  0  0  0  0
    0.4140  -50.4282  -24.6990 H   0  0  0  0  0  0  0  0  0  0  0  0
    2.3077  -50.9467  -23.9246 C   0  0  0  0  0  0  0  0  0  0  0  0
    2.7273  -49.6777  -23.5170 C   0  0  0  0  0  0  0  0  0  0  0  0
    4.0498  -49.4171  -23.3601 C   0  0  0  0  0  0  0  0  0  0  0  0
    5.0165  -50.3853  -23.5952 C   0  0  0  0  0  0  0  0  0  0  0  0
    6.3206  -50.0397  -23.4124 F   0  0  0  0  0  0  0  0  0  0  0  0
    4.6273  -51.6328  -23.9950 C   0  0  0  0  0  0  0  0  0  0  0  0
    5.8271  -52.8593  -24.2979 Cl  0  0  0  0  0  0  0  0  0  0  0  0
    3.2628  -51.8861  -24.1524 C   0  0  0  0  0  0  0  0  0  0  0  0
   -0.1630  -53.0110  -18.0875 O   0  0  0  0  0  0  0  0  0  0  0  0
   -1.3300  -52.7271  -17.3803 C   0  0  0  0  0  0  0  0  0  0  0  0
    1.0421  -50.7417  -19.0719 O   0  0  0  0  0  0  0  0  0  0  0  0
    0.6463  -49.5646  -18.5192 C   0  0  0  0  0  0  0  0  0  0  0  0
    0.5102  -49.4767  -17.0411 C   0  0  0  0  0  0  0  0  0  0  0  0
    1.4802  -50.2848  -16.2456 C   0  0  0  0  0  0  0  0  0  0  0  0
    2.3840  -49.6105  -15.4480 N   0  0  0  0  0  0  0  0  0  0  0  0
    3.8329  -51.5052  -15.4398 C   0  0  0  0  0  0  0  0  0  0  0  0
    3.4847  -50.1444  -14.8054 C   0  0  0  0  0  0  0  0  0  0  0  0
    2.3942  -48.1668  -15.6088 C   0  0  0  0  0  0  0  0  0  0  0  0
    3.7791  -47.6326  -15.8547 C   0  0  0  0  0  0  0  0  0  0  0  0
 28 29  1  0  0  0
 29 27  1  0  0  0
 27 30  1  0  0  0
 30 31  1  0  0  0
 27 26  1  0  0  0
 26 25  1  0  0  0
 25 24  1  0  0  0
 24 23  1  0  0  0
 23  1  1  0  0  0
  1  2  2  0  0  0
  2  3  1  0  0  0
  3  4  2  0  0  0
  4 11  1  0  0  0
 11 13  1  0  0  0
 13 14  2  0  0  0
 14 15  1  0  0  0
 15 16  2  0  0  0
 16 17  1  0  0  0
 16 18  1  0  0  0
 18 19  1  0  0  0
 18 20  2  0  0  0
  4  5  1  0  0  0
  5  6  2  0  0  0
  6  7  1  0  0  0
  7  8  2  0  0  0
  8  9  1  0  0  0
  9 10  2  0  0  0
 10 21  1  0  0  0
 21 22  1  0  0  0
 10  1  1  0  0  0
  8  3  1  0  0  0
 20 13  1  0  0  0
 11 12  1  0  0  0
M  END
> <minimizedAffinity>
-5.68261

> <CNNscore>
0.4559878409

> <CNNaffinity>
6.7852005959

> <CNN_VS>
3.0939688683

> <CNNaffinity_variance>
0.1462706625

$$$$
[H]c1nc(N([H])c2c([H])c([H])c([H])c(Br)c2[H])c2c([H])c3c([H])nn([H])c3c([H])c2n1


 23 26  0  0  0  0  0  0  0  0999 V2000
   -0.1228  -52.9081  -23.3117 C   0  0  0  0  0  0  0  0  0  0  0  0
   -0.6500  -54.0441  -23.7803 N   0  0  0  0  0  0  0  0  0  0  0  0
   -1.2161  -54.9699  -22.9909 C   0  0  0  0  0  0  0  0  0  0  0  0
   -1.2615  -54.7570  -21.6641 N   0  0  0  0  0  0  0  0  0  0  0  0
   -0.7630  -53.6557  -21.0995 C   0  0  0  0  0  0  0  0  0  0  0  0
   -0.7990  -53.4203  -19.7449 C   0  0  0  0  0  0  0  0  0  0  0  0
   -0.2733  -52.2728  -19.1988 C   0  0  0  0  0  0  0  0  0  0  0  0
   -0.1732  -51.7930  -17.9346 N   0  0  0  0  0  0  0  0  0  0  0  0
    0.4311  -50.6173  -17.9428 N   0  0  0  0  0  0  0  0  0  0  0  0
    0.7566  -50.2675  -19.2062 C   0  0  0  0  0  0  0  0  0  0  0  0
    0.3107  -51.3128  -19.9889 C   0  0  0  0  0  0  0  0  0  0  0  0
    0.3376  -51.5712  -21.3683 C   0  0  0  0  0  0  0  0  0  0  0  0
   -0.1778  -52.7040  -21.9399 C   0  0  0  0  0  0  0  0  0  0  0  0
   -0.5324  -52.3068  -17.1080 H   0  0  0  0  0  0  0  0  0  0  0  0
    0.4228  -51.9498  -24.1479 N   0  0  0  0  0  0  0  0  0  0  0  0
    0.5567  -50.9346  -23.9176 H   0  0  0  0  0  0  0  0  0  0  0  0
   -0.5806  -52.7573  -29.3407 Br  0  0  0  0  0  0  0  0  0  0  0  0
    0.5688  -52.6827  -27.8232 C   0  0  0  0  0  0  0  0  0  0  0  0
    1.8944  -52.9851  -28.0009 C   0  0  0  0  0  0  0  0  0  0  0  0
    2.7277  -52.9322  -26.9064 C   0  0  0  0  0  0  0  0  0  0  0  0
    2.2182  -52.5826  -25.6836 C   0  0  0  0  0  0  0  0  0  0  0  0
    0.8738  -52.2663  -25.4592 C   0  0  0  0  0  0  0  0  0  0  0  0
    0.0685  -52.3271  -26.5592 C   0  0  0  0  0  0  0  0  0  0  0  0
 17 18  1  0  0  0
 18 19  2  0  0  0
 19 20  1  0  0  0
 20 21  2  0  0  0
 21 22  1  0  0  0
 22 15  1  0  0  0
 15  1  1  0  0  0
  1  2  2  0  0  0
  2  3  1  0  0  0
  3  4  2  0  0  0
  4  5  1  0  0  0
  5  6  2  0  0  0
  6  7  1  0  0  0
  7  8  1  0  0  0
  8  9  1  0  0  0
  9 10  2  0  0  0
 10 11  1  0  0  0
 11 12  1  0  0  0
 12 13  2  0  0  0
 22 23  2  0  0  0
 23 18  1  0  0  0
 13  1  1  0  0  0
 13  5  1  0  0  0
 11  7  2  0  0  0
 15 16  1  0  0  0
  8 14  1  0  0  0
M  END
> <minimizedAffinity>
-8.24780

> <CNNscore>
0.8709301949

> <CNNaffinity>
6.5468645096

> <CNN_VS>
5.7018618584

> <CNNaffinity_variance>
0.0661028549

$$$$
[H]c1nc(N([H])c2c([H])c([H])c([H])c(Br)c2[H])c2c([H])c3c([H])nn([H])c3c([H])c2n1


 23 26  0  0  0  0  0  0  0  0999 V2000
   -0.3982  -52.9453  -23.4140 C   0  0  0  0  0  0  0  0  0  0  0  0
   -0.8814  -54.1671  -23.6623 N   0  0  0  0  0  0  0  0  0  0  0  0
   -1.2109  -55.0359  -22.6941 C   0  0  0  0  0  0  0  0  0  0  0  0
   -1.0522  -54.6725  -21.4094 N   0  0  0  0  0  0  0  0  0  0  0  0
   -0.5775  -53.4760  -21.0585 C   0  0  0  0  0  0  0  0  0  0  0  0
   -0.4070  -53.0864  -19.7505 C   0  0  0  0  0  0  0  0  0  0  0  0
    0.0867  -51.8442  -19.4272 C   0  0  0  0  0  0  0  0  0  0  0  0
    0.3508  -51.2124  -18.2570 N   0  0  0  0  0  0  0  0  0  0  0  0
    0.8251  -50.0012  -18.4931 N   0  0  0  0  0  0  0  0  0  0  0  0
    0.8958  -49.7777  -19.8234 C   0  0  0  0  0  0  0  0  0  0  0  0
    0.4302  -50.9403  -20.4028 C   0  0  0  0  0  0  0  0  0  0  0  0
    0.2489  -51.3563  -21.7311 C   0  0  0  0  0  0  0  0  0  0  0  0
   -0.2404  -52.5861  -22.0826 C   0  0  0  0  0  0  0  0  0  0  0  0
    0.1896  -51.6524  -17.3314 H   0  0  0  0  0  0  0  0  0  0  0  0
   -0.0999  -52.0515  -24.4276 N   0  0  0  0  0  0  0  0  0  0  0  0
    0.2331  -51.0642  -24.3010 H   0  0  0  0  0  0  0  0  0  0  0  0
    2.0196  -54.0092  -28.9331 Br  0  0  0  0  0  0  0  0  0  0  0  0
    0.6043  -53.2435  -27.9133 C   0  0  0  0  0  0  0  0  0  0  0  0
   -0.5840  -52.9867  -28.5476 C   0  0  0  0  0  0  0  0  0  0  0  0
   -1.6087  -52.4334  -27.8136 C   0  0  0  0  0  0  0  0  0  0  0  0
   -1.4180  -52.1575  -26.4852 C   0  0  0  0  0  0  0  0  0  0  0  0
   -0.2232  -52.4040  -25.8001 C   0  0  0  0  0  0  0  0  0  0  0  0
    0.7771  -52.9516  -26.5497 C   0  0  0  0  0  0  0  0  0  0  0  0
 17 18  1  0  0  0
 18 19  2  0  0  0
 19 20  1  0  0  0
 20 21  2  0  0  0
 21 22  1  0  0  0
 22 15  1  0  0  0
 15  1  1  0  0  0
  1  2  2  0  0  0
  2  3  1  0  0  0
  3  4  2  0  0  0
  4  5  1  0  0  0
  5  6  2  0  0  0
  6  7  1  0  0  0
  7  8  1  0  0  0
  8  9  1  0  0  0
  9 10  2  0  0  0
 10 11  1  0  0  0
 11 12  1  0  0  0
 12 13  2  0  0  0
 22 23  2  0  0  0
 23 18  1  0  0  0
 13  1  1  0  0  0
 13  5  1  0  0  0
 11  7  2  0  0  0
 15 16  1  0  0  0
  8 14  1  0  0  0
M  END
> <minimizedAffinity>
-7.75797

> <CNNscore>
0.8179910183

> <CNNaffinity>
6.4791975021

> <CNN_VS>
5.2999253273

> <CNNaffinity_variance>
0.0820208341

$$$$
[H]c1nc(N([H])c2c([H])c([H])c([H])c(Br)c2[H])c2c([H])c3c([H])nn([H])c3c([H])c2n1


 23 26  0  0  0  0  0  0  0  0999 V2000
   -0.3662  -52.3981  -21.9239 C   0  0  0  0  0  0  0  0  0  0  0  0
   -1.0030  -52.8302  -20.8305 N   0  0  0  0  0  0  0  0  0  0  0  0
   -1.5995  -54.0300  -20.7554 C   0  0  0  0  0  0  0  0  0  0  0  0
   -1.5621  -54.8454  -21.8238 N   0  0  0  0  0  0  0  0  0  0  0  0
   -0.9521  -54.5061  -22.9609 C   0  0  0  0  0  0  0  0  0  0  0  0
   -0.9039  -55.3256  -24.0644 C   0  0  0  0  0  0  0  0  0  0  0  0
   -0.2663  -54.9406  -25.2206 C   0  0  0  0  0  0  0  0  0  0  0  0
   -0.0686  -55.5285  -26.4262 N   0  0  0  0  0  0  0  0  0  0  0  0
    0.6225  -54.7235  -27.2149 N   0  0  0  0  0  0  0  0  0  0  0  0
    0.9120  -53.5724  -26.5702 C   0  0  0  0  0  0  0  0  0  0  0  0
    0.3501  -53.7169  -25.3182 C   0  0  0  0  0  0  0  0  0  0  0  0
    0.2902  -52.8952  -24.1818 C   0  0  0  0  0  0  0  0  0  0  0  0
   -0.3370  -53.2519  -23.0178 C   0  0  0  0  0  0  0  0  0  0  0  0
   -0.4255  -56.4753  -26.6554 H   0  0  0  0  0  0  0  0  0  0  0  0
    0.2742  -51.1720  -21.9666 N   0  0  0  0  0  0  0  0  0  0  0  0
    0.4961  -50.6220  -22.8327 H   0  0  0  0  0  0  0  0  0  0  0  0
    0.4699  -50.8332  -16.6308 Br  0  0  0  0  0  0  0  0  0  0  0  0
    0.8683  -50.2167  -18.3888 C   0  0  0  0  0  0  0  0  0  0  0  0
    1.5857  -49.0554  -18.5195 C   0  0  0  0  0  0  0  0  0  0  0  0
    1.8752  -48.6071  -19.7884 C   0  0  0  0  0  0  0  0  0  0  0  0
    1.4455  -49.3235  -20.8743 C   0  0  0  0  0  0  0  0  0  0  0  0
    0.7125  -50.5120  -20.7854 C   0  0  0  0  0  0  0  0  0  0  0  0
    0.4375  -50.9346  -19.5173 C   0  0  0  0  0  0  0  0  0  0  0  0
 17 18  1  0  0  0
 18 19  2  0  0  0
 19 20  1  0  0  0
 20 21  2  0  0  0
 21 22  1  0  0  0
 22 15  1  0  0  0
 15  1  1  0  0  0
  1  2  2  0  0  0
  2  3  1  0  0  0
  3  4  2  0  0  0
  4  5  1  0  0  0
  5  6  2  0  0  0
  6  7  1  0  0  0
  7  8  1  0  0  0
  8  9  1  0  0  0
  9 10  2  0  0  0
 10 11  1  0  0  0
 11 12  1  0  0  0
 12 13  2  0  0  0
 22 23  2  0  0  0
 23 18  1  0  0  0
 13  1  1  0  0  0
 13  5  1  0  0  0
 11  7  2  0  0  0
 15 16  1  0  0  0
  8 14  1  0  0  0
M  END
> <minimizedAffinity>
-7.95844

> <CNNscore>
0.7827183008

> <CNNaffinity>
6.4600954056

> <CNN_VS>
5.0564351082

> <CNNaffinity_variance>
0.0756415352

$$$$
[H]c1nc(N([H])c2c([H])c([H])c([H])c(Br)c2[H])c2c([H])c3c([H])nn([H])c3c([H])c2n1


 23 26  0  0  0  0  0  0  0  0999 V2000
    0.1298  -52.1766  -19.6929 C   0  0  0  0  0  0  0  0  0  0  0  0
    0.6590  -50.9648  -19.4949 N   0  0  0  0  0  0  0  0  0  0  0  0
    1.0200  -50.1496  -20.4979 C   0  0  0  0  0  0  0  0  0  0  0  0
    0.8464  -50.5593  -21.7666 N   0  0  0  0  0  0  0  0  0  0  0  0
    0.3268  -51.7506  -22.0682 C   0  0  0  0  0  0  0  0  0  0  0  0
    0.1425  -52.1879  -23.3591 C   0  0  0  0  0  0  0  0  0  0  0  0
   -0.3955  -53.4241  -23.6312 C   0  0  0  0  0  0  0  0  0  0  0  0
   -0.6821  -54.0941  -24.7745 N   0  0  0  0  0  0  0  0  0  0  0  0
   -1.1994  -55.2767  -24.4890 N   0  0  0  0  0  0  0  0  0  0  0  0
   -1.2783  -55.4419  -23.1507 C   0  0  0  0  0  0  0  0  0  0  0  0
   -0.7713  -54.2737  -22.6194 C   0  0  0  0  0  0  0  0  0  0  0  0
   -0.5754  -53.8094  -21.3093 C   0  0  0  0  0  0  0  0  0  0  0  0
   -0.0425  -52.5843  -21.0085 C   0  0  0  0  0  0  0  0  0  0  0  0
   -0.5049  -53.6992  -25.7173 H   0  0  0  0  0  0  0  0  0  0  0  0
   -0.2699  -52.9858  -18.6438 N   0  0  0  0  0  0  0  0  0  0  0  0
   -0.0218  -53.9977  -18.5163 H   0  0  0  0  0  0  0  0  0  0  0  0
   -4.8191  -53.1728  -15.8341 Br  0  0  0  0  0  0  0  0  0  0  0  0
   -3.1059  -52.4499  -16.2487 C   0  0  0  0  0  0  0  0  0  0  0  0
   -2.6607  -51.3806  -15.5148 C   0  0  0  0  0  0  0  0  0  0  0  0
   -1.4232  -50.8558  -15.8118 C   0  0  0  0  0  0  0  0  0  0  0  0
   -0.6773  -51.4084  -16.8195 C   0  0  0  0  0  0  0  0  0  0  0  0
   -1.0934  -52.4989  -17.5912 C   0  0  0  0  0  0  0  0  0  0  0  0
   -2.3235  -53.0000  -17.2781 C   0  0  0  0  0  0  0  0  0  0  0  0
 17 18  1  0  0  0
 18 19  2  0  0  0
 19 20  1  0  0  0
 20 21  2  0  0  0
 21 22  1  0  0  0
 22 15  1  0  0  0
 15  1  1  0  0  0
  1  2  2  0  0  0
  2  3  1  0  0  0
  3  4  2  0  0  0
  4  5  1  0  0  0
  5  6  2  0  0  0
  6  7  1  0  0  0
  7  8  1  0  0  0
  8  9  1  0  0  0
  9 10  2  0  0  0
 10 11  1  0  0  0
 11 12  1  0  0  0
 12 13  2  0  0  0
 22 23  2  0  0  0
 23 18  1  0  0  0
 13  1  1  0  0  0
 13  5  1  0  0  0
 11  7  2  0  0  0
 15 16  1  0  0  0
  8 14  1  0  0  0
M  END
> <minimizedAffinity>
-8.03548

> <CNNscore>
0.7299888730

> <CNNaffinity>
6.2333393097

> <CNN_VS>
4.5502681732

> <CNNaffinity_variance>
0.0628152341

$$$$
[H]c1nc(N([H])c2c([H])c([H])c([H])c(Br)c2[H])c2c([H])c3c([H])nn([H])c3c([H])c2n1


 23 26  0  0  0  0  0  0  0  0999 V2000
    1.7940  -51.9881  -26.1148 C   0  0  0  0  0  0  0  0  0  0  0  0
    2.1401  -52.1589  -27.3950 N   0  0  0  0  0  0  0  0  0  0  0  0
    1.7159  -53.1931  -28.1375 C   0  0  0  0  0  0  0  0  0  0  0  0
    0.9039  -54.1077  -27.5791 N   0  0  0  0  0  0  0  0  0  0  0  0
    0.5019  -54.0265  -26.3094 C   0  0  0  0  0  0  0  0  0  0  0  0
   -0.3272  -54.9522  -25.7203 C   0  0  0  0  0  0  0  0  0  0  0  0
   -0.7195  -54.8357  -24.4073 C   0  0  0  0  0  0  0  0  0  0  0  0
   -1.5076  -55.5786  -23.5916 N   0  0  0  0  0  0  0  0  0  0  0  0
   -1.5675  -55.0253  -22.3925 N   0  0  0  0  0  0  0  0  0  0  0  0
   -0.8257  -53.8969  -22.3605 C   0  0  0  0  0  0  0  0  0  0  0  0
   -0.2965  -53.7851  -23.6300 C   0  0  0  0  0  0  0  0  0  0  0  0
    0.5487  -52.8511  -24.2492 C   0  0  0  0  0  0  0  0  0  0  0  0
    0.9555  -52.9413  -25.5537 C   0  0  0  0  0  0  0  0  0  0  0  0
   -1.9772  -56.4495  -23.9037 H   0  0  0  0  0  0  0  0  0  0  0  0
    2.2133  -50.8939  -25.3785 N   0  0  0  0  0  0  0  0  0  0  0  0
    1.8388  -49.9166  -25.4584 H   0  0  0  0  0  0  0  0  0  0  0  0
    4.3788  -49.3527  -20.7352 Br  0  0  0  0  0  0  0  0  0  0  0  0
    4.3461  -50.3860  -22.3355 C   0  0  0  0  0  0  0  0  0  0  0  0
    5.3866  -51.2478  -22.5699 C   0  0  0  0  0  0  0  0  0  0  0  0
    5.3660  -51.9959  -23.7253 C   0  0  0  0  0  0  0  0  0  0  0  0
    4.3199  -51.8626  -24.5999 C   0  0  0  0  0  0  0  0  0  0  0  0
    3.2395  -50.9965  -24.3989 C   0  0  0  0  0  0  0  0  0  0  0  0
    3.2838  -50.2656  -23.2473 C   0  0  0  0  0  0  0  0  0  0  0  0
 17 18  1  0  0  0
 18 19  2  0  0  0
 19 20  1  0  0  0
 20 21  2  0  0  0
 21 22  1  0  0  0
 22 15  1  0  0  0
 15  1  1  0  0  0
  1  2  2  0  0  0
  2  3  1  0  0  0
  3  4  2  0  0  0
  4  5  1  0  0  0
  5  6  2  0  0  0
  6  7  1  0  0  0
  7  8  1  0  0  0
  8  9  1  0  0  0
  9 10  2  0  0  0
 10 11  1  0  0  0
 11 12  1  0  0  0
 12 13  2  0  0  0
 22 23  2  0  0  0
 23 18  1  0  0  0
 13  1  1  0  0  0
 13  5  1  0  0  0
 11  7  2  0  0  0
 15 16  1  0  0  0
  8 14  1  0  0  0
M  END
> <minimizedAffinity>
-7.29984

> <CNNscore>
0.6837800145

> <CNNaffinity>
6.4230155945

> <CNN_VS>
4.3919296265

> <CNNaffinity_variance>
0.1151570827

$$$$
[H]c1nc(N([H])c2c([H])c([H])c([H])c(Br)c2[H])c2c([H])c3c([H])nn([H])c3c([H])c2n1


 23 26  0  0  0  0  0  0  0  0999 V2000
   -0.3388  -52.5997  -21.9610 C   0  0  0  0  0  0  0  0  0  0  0  0
   -1.0870  -53.1365  -20.9915 N   0  0  0  0  0  0  0  0  0  0  0  0
   -1.7312  -54.3061  -21.1251 C   0  0  0  0  0  0  0  0  0  0  0  0
   -1.6274  -54.9797  -22.2841 N   0  0  0  0  0  0  0  0  0  0  0  0
   -0.9054  -54.5281  -23.3111 C   0  0  0  0  0  0  0  0  0  0  0  0
   -0.7879  -55.2018  -24.5044 C   0  0  0  0  0  0  0  0  0  0  0  0
   -0.0349  -54.7038  -25.5419 C   0  0  0  0  0  0  0  0  0  0  0  0
    0.2490  -55.1423  -26.7931 N   0  0  0  0  0  0  0  0  0  0  0  0
    1.0374  -54.2775  -27.4082 N   0  0  0  0  0  0  0  0  0  0  0  0
    1.3095  -53.2329  -26.5960 C   0  0  0  0  0  0  0  0  0  0  0  0
    0.6320  -53.5085  -25.4259 C   0  0  0  0  0  0  0  0  0  0  0  0
    0.4999  -52.8363  -24.2008 C   0  0  0  0  0  0  0  0  0  0  0  0
   -0.2423  -53.3077  -23.1509 C   0  0  0  0  0  0  0  0  0  0  0  0
   -0.1200  -56.0340  -27.1738 H   0  0  0  0  0  0  0  0  0  0  0  0
    0.3471  -51.4102  -21.7884 N   0  0  0  0  0  0  0  0  0  0  0  0
    0.3534  -50.5996  -22.4552 H   0  0  0  0  0  0  0  0  0  0  0  0
    0.9237  -49.3513  -16.8841 Br  0  0  0  0  0  0  0  0  0  0  0  0
    1.5609  -50.2651  -18.4296 C   0  0  0  0  0  0  0  0  0  0  0  0
    2.8694  -50.6747  -18.4448 C   0  0  0  0  0  0  0  0  0  0  0  0
    3.3330  -51.3353  -19.5600 C   0  0  0  0  0  0  0  0  0  0  0  0
    2.4862  -51.5641  -20.6124 C   0  0  0  0  0  0  0  0  0  0  0  0
    1.1456  -51.1639  -20.6374 C   0  0  0  0  0  0  0  0  0  0  0  0
    0.7107  -50.5105  -19.5211 C   0  0  0  0  0  0  0  0  0  0  0  0
 17 18  1  0  0  0
 18 19  2  0  0  0
 19 20  1  0  0  0
 20 21  2  0  0  0
 21 22  1  0  0  0
 22 15  1  0  0  0
 15  1  1  0  0  0
  1  2  2  0  0  0
  2  3  1  0  0  0
  3  4  2  0  0  0
  4  5  1  0  0  0
  5  6  2  0  0  0
  6  7  1  0  0  0
  7  8  1  0  0  0
  8  9  1  0  0  0
  9 10  2  0  0  0
 10 11  1  0  0  0
 11 12  1  0  0  0
 12 13  2  0  0  0
 22 23  2  0  0  0
 23 18  1  0  0  0
 13  1  1  0  0  0
 13  5  1  0  0  0
 11  7  2  0  0  0
 15 16  1  0  0  0
  8 14  1  0  0  0
M  END
> <minimizedAffinity>
-7.54864

> <CNNscore>
0.6685648561

> <CNNaffinity>
6.4330720901

> <CNN_VS>
4.3009257317

> <CNNaffinity_variance>
0.1307406873

$$$$
[H]c1nc(N([H])c2c([H])c([H])c([H])c(Br)c2[H])c2c([H])c3c([H])nn([H])c3c([H])c2n1


 23 26  0  0  0  0  0  0  0  0999 V2000
   -0.0044  -52.1345  -21.5965 C   0  0  0  0  0  0  0  0  0  0  0  0
   -0.5319  -52.3330  -20.3840 N   0  0  0  0  0  0  0  0  0  0  0  0
   -1.2402  -53.4266  -20.0627 C   0  0  0  0  0  0  0  0  0  0  0  0
   -1.4358  -54.3749  -20.9956 N   0  0  0  0  0  0  0  0  0  0  0  0
   -0.9506  -54.2700  -22.2340 C   0  0  0  0  0  0  0  0  0  0  0  0
   -1.1408  -55.2283  -23.2020 C   0  0  0  0  0  0  0  0  0  0  0  0
   -0.6261  -55.0846  -24.4692 C   0  0  0  0  0  0  0  0  0  0  0  0
   -0.6574  -55.8479  -25.5894 N   0  0  0  0  0  0  0  0  0  0  0  0
    0.0051  -55.2492  -26.5642 N   0  0  0  0  0  0  0  0  0  0  0  0
    0.5025  -54.0688  -26.1355 C   0  0  0  0  0  0  0  0  0  0  0  0
    0.1014  -53.9730  -24.8186 C   0  0  0  0  0  0  0  0  0  0  0  0
    0.2847  -53.0067  -23.8172 C   0  0  0  0  0  0  0  0  0  0  0  0
   -0.2157  -53.1229  -22.5477 C   0  0  0  0  0  0  0  0  0  0  0  0
   -1.1430  -56.7637  -25.6325 H   0  0  0  0  0  0  0  0  0  0  0  0
    0.7544  -51.0163  -21.8952 N   0  0  0  0  0  0  0  0  0  0  0  0
    0.3897  -50.1049  -22.2666 H   0  0  0  0  0  0  0  0  0  0  0  0
    5.6946  -51.5596  -23.8760 Br  0  0  0  0  0  0  0  0  0  0  0  0
    4.4547  -51.2337  -22.4667 C   0  0  0  0  0  0  0  0  0  0  0  0
    4.9511  -51.0040  -21.2093 C   0  0  0  0  0  0  0  0  0  0  0  0
    4.0579  -50.7682  -20.1887 C   0  0  0  0  0  0  0  0  0  0  0  0
    2.7133  -50.7684  -20.4518 C   0  0  0  0  0  0  0  0  0  0  0  0
    2.1657  -50.9974  -21.7189 C   0  0  0  0  0  0  0  0  0  0  0  0
    3.0713  -51.2295  -22.7129 C   0  0  0  0  0  0  0  0  0  0  0  0
 17 18  1  0  0  0
 18 19  2  0  0  0
 19 20  1  0  0  0
 20 21  2  0  0  0
 21 22  1  0  0  0
 22 15  1  0  0  0
 15  1  1  0  0  0
  1  2  2  0  0  0
  2  3  1  0  0  0
  3  4  2  0  0  0
  4  5  1  0  0  0
  5  6  2  0  0  0
  6  7  1  0  0  0
  7  8  1  0  0  0
  8  9  1  0  0  0
  9 10  2  0  0  0
 10 11  1  0  0  0
 11 12  1  0  0  0
 12 13  2  0  0  0
 22 23  2  0  0  0
 23 18  1  0  0  0
 13  1  1  0  0  0
 13  5  1  0  0  0
 11  7  2  0  0  0
 15 16  1  0  0  0
  8 14  1  0  0  0
M  END
> <minimizedAffinity>
-7.71138

> <CNNscore>
0.6332735419

> <CNNaffinity>
6.4138054848

> <CNN_VS>
4.0616931915

> <CNNaffinity_variance>
0.1040939689

$$$$
[H]c1nc(N([H])c2c([H])c([H])c([H])c(Br)c2[H])c2c([H])c3c([H])nn([H])c3c([H])c2n1


 23 26  0  0  0  0  0  0  0  0999 V2000
    1.7012  -51.0774  -24.4595 C   0  0  0  0  0  0  0  0  0  0  0  0
    2.2402  -50.8729  -25.6659 N   0  0  0  0  0  0  0  0  0  0  0  0
    2.0263  -51.6860  -26.7118 C   0  0  0  0  0  0  0  0  0  0  0  0
    1.2345  -52.7608  -26.5518 N   0  0  0  0  0  0  0  0  0  0  0  0
    0.6506  -53.0514  -25.3878 C   0  0  0  0  0  0  0  0  0  0  0  0
   -0.1615  -54.1462  -25.2042 C   0  0  0  0  0  0  0  0  0  0  0  0
   -0.7455  -54.4142  -23.9882 C   0  0  0  0  0  0  0  0  0  0  0  0
   -1.5666  -55.3931  -23.5346 N   0  0  0  0  0  0  0  0  0  0  0  0
   -1.8487  -55.1926  -22.2587 N   0  0  0  0  0  0  0  0  0  0  0  0
   -1.2302  -54.0778  -21.8125 C   0  0  0  0  0  0  0  0  0  0  0  0
   -0.5393  -53.5949  -22.9051 C   0  0  0  0  0  0  0  0  0  0  0  0
    0.2920  -52.4832  -23.1125 C   0  0  0  0  0  0  0  0  0  0  0  0
    0.8865  -52.1914  -24.3112 C   0  0  0  0  0  0  0  0  0  0  0  0
   -1.9018  -56.1694  -24.1356 H   0  0  0  0  0  0  0  0  0  0  0  0
    1.9053  -50.2053  -23.4045 N   0  0  0  0  0  0  0  0  0  0  0  0
    1.2931  -49.3916  -23.1497 H   0  0  0  0  0  0  0  0  0  0  0  0
    4.0026  -49.9389  -18.4897 Br  0  0  0  0  0  0  0  0  0  0  0  0
    4.1074  -50.2358  -20.3687 C   0  0  0  0  0  0  0  0  0  0  0  0
    5.3276  -50.5579  -20.9051 C   0  0  0  0  0  0  0  0  0  0  0  0
    5.4068  -50.7730  -22.2625 C   0  0  0  0  0  0  0  0  0  0  0  0
    4.2793  -50.6618  -23.0328 C   0  0  0  0  0  0  0  0  0  0  0  0
    3.0163  -50.3362  -22.5261 C   0  0  0  0  0  0  0  0  0  0  0  0
    2.9644  -50.1269  -21.1786 C   0  0  0  0  0  0  0  0  0  0  0  0
 17 18  1  0  0  0
 18 19  2  0  0  0
 19 20  1  0  0  0
 20 21  2  0  0  0
 21 22  1  0  0  0
 22 15  1  0  0  0
 15  1  1  0  0  0
  1  2  2  0  0  0
  2  3  1  0  0  0
  3  4  2  0  0  0
  4  5  1  0  0  0
  5  6  2  0  0  0
  6  7  1  0  0  0
  7  8  1  0  0  0
  8  9  1  0  0  0
  9 10  2  0  0  0
 10 11  1  0  0  0
 11 12  1  0  0  0
 12 13  2  0  0  0
 22 23  2  0  0  0
 23 18  1  0  0  0
 13  1  1  0  0  0
 13  5  1  0  0  0
 11  7  2  0  0  0
 15 16  1  0  0  0
  8 14  1  0  0  0
M  END
> <minimizedAffinity>
-6.93235

> <CNNscore>
0.6065894365

> <CNNaffinity>
6.3406057358

> <CNN_VS>
3.8461444378

> <CNNaffinity_variance>
0.3161921203

$$$$
[H]c1nc(N([H])c2c([H])c([H])c([H])c(Br)c2[H])c2c([H])c3c([H])nn([H])c3c([H])c2n1


 23 26  0  0  0  0  0  0  0  0999 V2000
   -0.2577  -52.3475  -21.7964 C   0  0  0  0  0  0  0  0  0  0  0  0
   -0.9246  -52.7787  -20.7207 N   0  0  0  0  0  0  0  0  0  0  0  0
   -1.5763  -53.9512  -20.6833 C   0  0  0  0  0  0  0  0  0  0  0  0
   -1.5658  -54.7387  -21.7730 N   0  0  0  0  0  0  0  0  0  0  0  0
   -0.9295  -54.3978  -22.8951 C   0  0  0  0  0  0  0  0  0  0  0  0
   -0.9081  -55.1890  -24.0199 C   0  0  0  0  0  0  0  0  0  0  0  0
   -0.2419  -54.8032  -25.1596 C   0  0  0  0  0  0  0  0  0  0  0  0
   -0.0594  -55.3674  -26.3789 N   0  0  0  0  0  0  0  0  0  0  0  0
    0.6758  -54.5745  -27.1395 N   0  0  0  0  0  0  0  0  0  0  0  0
    1.0115  -53.4555  -26.4614 C   0  0  0  0  0  0  0  0  0  0  0  0
    0.4310  -53.6072  -25.2187 C   0  0  0  0  0  0  0  0  0  0  0  0
    0.3976  -52.8142  -24.0611 C   0  0  0  0  0  0  0  0  0  0  0  0
   -0.2569  -53.1723  -22.9127 C   0  0  0  0  0  0  0  0  0  0  0  0
   -0.4571  -56.2902  -26.6368 H   0  0  0  0  0  0  0  0  0  0  0  0
    0.4387  -51.1516  -21.8004 N   0  0  0  0  0  0  0  0  0  0  0  0
    0.1119  -50.2490  -22.2250 H   0  0  0  0  0  0  0  0  0  0  0  0
    3.5076  -50.5917  -17.4538 Br  0  0  0  0  0  0  0  0  0  0  0  0
    3.2345  -50.7534  -19.3323 C   0  0  0  0  0  0  0  0  0  0  0  0
    4.3337  -50.7131  -20.1511 C   0  0  0  0  0  0  0  0  0  0  0  0
    4.1398  -50.8297  -21.5090 C   0  0  0  0  0  0  0  0  0  0  0  0
    2.8704  -50.9817  -22.0014 C   0  0  0  0  0  0  0  0  0  0  0  0
    1.7231  -51.0285  -21.2018 C   0  0  0  0  0  0  0  0  0  0  0  0
    1.9416  -50.9097  -19.8600 C   0  0  0  0  0  0  0  0  0  0  0  0
 17 18  1  0  0  0
 18 19  2  0  0  0
 19 20  1  0  0  0
 20 21  2  0  0  0
 21 22  1  0  0  0
 22 15  1  0  0  0
 15  1  1  0  0  0
  1  2  2  0  0  0
  2  3  1  0  0  0
  3  4  2  0  0  0
  4  5  1  0  0  0
  5  6  2  0  0  0
  6  7  1  0  0  0
  7  8  1  0  0  0
  8  9  1  0  0  0
  9 10  2  0  0  0
 10 11  1  0  0  0
 11 12  1  0  0  0
 12 13  2  0  0  0
 22 23  2  0  0  0
 23 18  1  0  0  0
 13  1  1  0  0  0
 13  5  1  0  0  0
 11  7  2  0  0  0
 15 16  1  0  0  0
  8 14  1  0  0  0
M  END
> <minimizedAffinity>
-7.63443

> <CNNscore>
0.6017455459

> <CNNaffinity>
6.4087142944

> <CNN_VS>
3.8564152718

> <CNNaffinity_variance>
0.1690431535

$$$$
[H]c1nc(N([H])c2c([H])c([H])c([H])c(Br)c2[H])c2nc(N(C([H])([H])[H])C([H])([H])[H])nc([H])c2n1


 22 24  0  0  0  0  0  0  0  0999 V2000
    0.4013  -51.0634  -20.2146 C   0  0  0  0  0  0  0  0  0  0  0  0
   -0.0953  -51.9519  -19.3152 N   0  0  0  0  0  0  0  0  0  0  0  0
   -0.6304  -53.1288  -19.6831 C   0  0  0  0  0  0  0  0  0  0  0  0
   -0.6695  -53.4325  -21.0354 C   0  0  0  0  0  0  0  0  0  0  0  0
   -1.2109  -54.6158  -21.3639 N   0  0  0  0  0  0  0  0  0  0  0  0
   -1.2671  -54.9474  -22.6687 C   0  0  0  0  0  0  0  0  0  0  0  0
   -0.7866  -54.0894  -23.5498 N   0  0  0  0  0  0  0  0  0  0  0  0
   -0.2329  -52.8954  -23.3127 C   0  0  0  0  0  0  0  0  0  0  0  0
   -0.1733  -52.5477  -21.9531 C   0  0  0  0  0  0  0  0  0  0  0  0
    0.3408  -51.4041  -21.5201 N   0  0  0  0  0  0  0  0  0  0  0  0
    1.2311  -49.5686  -18.3886 C   0  0  0  0  0  0  0  0  0  0  0  0
    0.9573  -49.8323  -19.7805 N   0  0  0  0  0  0  0  0  0  0  0  0
    1.2626  -48.8050  -20.7475 C   0  0  0  0  0  0  0  0  0  0  0  0
    0.2942  -51.9944  -24.2344 N   0  0  0  0  0  0  0  0  0  0  0  0
    0.2878  -50.9517  -23.9605 H   0  0  0  0  0  0  0  0  0  0  0  0
    0.8278  -52.3095  -25.4814 C   0  0  0  0  0  0  0  0  0  0  0  0
    2.2133  -52.5290  -25.5791 C   0  0  0  0  0  0  0  0  0  0  0  0
    2.7849  -52.8171  -26.7902 C   0  0  0  0  0  0  0  0  0  0  0  0
    2.0049  -52.8934  -27.9193 C   0  0  0  0  0  0  0  0  0  0  0  0
    0.6517  -52.6850  -27.8612 C   0  0  0  0  0  0  0  0  0  0  0  0
   -0.4497  -52.7897  -29.4370 Br  0  0  0  0  0  0  0  0  0  0  0  0
    0.0789  -52.3903  -26.6140 C   0  0  0  0  0  0  0  0  0  0  0  0
 11 12  1  0  0  0
 12 13  1  0  0  0
 12  1  1  0  0  0
  1  2  2  0  0  0
  2  3  1  0  0  0
  3  4  2  0  0  0
  4  5  1  0  0  0
  5  6  2  0  0  0
  6  7  1  0  0  0
  7  8  2  0  0  0
  8 14  1  0  0  0
 14 16  1  0  0  0
 16 17  2  0  0  0
 17 18  1  0  0  0
 18 19  2  0  0  0
 19 20  1  0  0  0
 20 21  1  0  0  0
 20 22  2  0  0  0
  8  9  1  0  0  0
  9 10  2  0  0  0
 10  1  1  0  0  0
  9  4  1  0  0  0
 22 16  1  0  0  0
 14 15  1  0  0  0
M  END
> <minimizedAffinity>
-7.32237

> <CNNscore>
0.9138410091

> <CNNaffinity>
6.4303474426

> <CNN_VS>
5.8763151169

> <CNNaffinity_variance>
0.1039311737

$$$$
[H]c1nc(N([H])c2c([H])c([H])c([H])c(Br)c2[H])c2nc(N(C([H])([H])[H])C([H])([H])[H])nc([H])c2n1


 22 24  0  0  0  0  0  0  0  0999 V2000
    0.0254  -53.8223  -24.9829 C   0  0  0  0  0  0  0  0  0  0  0  0
   -0.7922  -54.8790  -24.7386 N   0  0  0  0  0  0  0  0  0  0  0  0
   -1.3135  -55.1228  -23.5239 C   0  0  0  0  0  0  0  0  0  0  0  0
   -0.9950  -54.2535  -22.4918 C   0  0  0  0  0  0  0  0  0  0  0  0
   -1.5339  -54.5293  -21.2939 N   0  0  0  0  0  0  0  0  0  0  0  0
   -1.2480  -53.7076  -20.2652 C   0  0  0  0  0  0  0  0  0  0  0  0
   -0.4539  -52.6777  -20.4938 N   0  0  0  0  0  0  0  0  0  0  0  0
    0.1240  -52.3294  -21.6485 C   0  0  0  0  0  0  0  0  0  0  0  0
   -0.1727  -53.1848  -22.7224 C   0  0  0  0  0  0  0  0  0  0  0  0
    0.3065  -53.0038  -23.9460 N   0  0  0  0  0  0  0  0  0  0  0  0
    0.1913  -54.4389  -27.4014 C   0  0  0  0  0  0  0  0  0  0  0  0
    0.5529  -53.6037  -26.2818 N   0  0  0  0  0  0  0  0  0  0  0  0
    1.4788  -52.5190  -26.5045 C   0  0  0  0  0  0  0  0  0  0  0  0
    0.9457  -51.2342  -21.9020 N   0  0  0  0  0  0  0  0  0  0  0  0
    0.4679  -50.3310  -22.2457 H   0  0  0  0  0  0  0  0  0  0  0  0
    2.3301  -51.1924  -21.7576 C   0  0  0  0  0  0  0  0  0  0  0  0
    2.8607  -50.8088  -20.5132 C   0  0  0  0  0  0  0  0  0  0  0  0
    4.2164  -50.7300  -20.3333 C   0  0  0  0  0  0  0  0  0  0  0  0
    5.0674  -51.0263  -21.3712 C   0  0  0  0  0  0  0  0  0  0  0  0
    4.5853  -51.4032  -22.5973 C   0  0  0  0  0  0  0  0  0  0  0  0
    5.7689  -51.8204  -24.0575 Br  0  0  0  0  0  0  0  0  0  0  0  0
    3.1941  -51.4796  -22.7682 C   0  0  0  0  0  0  0  0  0  0  0  0
 11 12  1  0  0  0
 12 13  1  0  0  0
 12  1  1  0  0  0
  1  2  2  0  0  0
  2  3  1  0  0  0
  3  4  2  0  0  0
  4  5  1  0  0  0
  5  6  2  0  0  0
  6  7  1  0  0  0
  7  8  2  0  0  0
  8 14  1  0  0  0
 14 16  1  0  0  0
 16 17  2  0  0  0
 17 18  1  0  0  0
 18 19  2  0  0  0
 19 20  1  0  0  0
 20 21  1  0  0  0
 20 22  2  0  0  0
  8  9  1  0  0  0
  9 10  2  0  0  0
 10  1  1  0  0  0
  9  4  1  0  0  0
 22 16  1  0  0  0
 14 15  1  0  0  0
M  END
> <minimizedAffinity>
-6.93703

> <CNNscore>
0.6561274529

> <CNNaffinity>
6.2504081726

> <CNN_VS>
4.1010642052

> <CNNaffinity_variance>
0.1257836372

$$$$
[H]c1nc(N([H])c2c([H])c([H])c([H])c(Br)c2[H])c2nc(N(C([H])([H])[H])C([H])([H])[H])nc([H])c2n1


 22 24  0  0  0  0  0  0  0  0999 V2000
   -0.4869  -53.7073  -24.8869 C   0  0  0  0  0  0  0  0  0  0  0  0
   -1.0378  -54.8680  -24.4461 N   0  0  0  0  0  0  0  0  0  0  0  0
   -1.2698  -55.1082  -23.1441 C   0  0  0  0  0  0  0  0  0  0  0  0
   -0.9282  -54.1242  -22.2291 C   0  0  0  0  0  0  0  0  0  0  0  0
   -1.1746  -54.4002  -20.9389 N   0  0  0  0  0  0  0  0  0  0  0  0
   -0.8565  -53.4687  -20.0188 C   0  0  0  0  0  0  0  0  0  0  0  0
   -0.3204  -52.3373  -20.4386 N   0  0  0  0  0  0  0  0  0  0  0  0
   -0.0417  -51.9802  -21.6970 C   0  0  0  0  0  0  0  0  0  0  0  0
   -0.3725  -52.9500  -22.6578 C   0  0  0  0  0  0  0  0  0  0  0  0
   -0.1713  -52.7793  -23.9578 N   0  0  0  0  0  0  0  0  0  0  0  0
    0.1756  -54.5615  -27.1427 C   0  0  0  0  0  0  0  0  0  0  0  0
   -0.2600  -53.4969  -26.2716 N   0  0  0  0  0  0  0  0  0  0  0  0
   -0.4667  -52.1858  -26.8391 C   0  0  0  0  0  0  0  0  0  0  0  0
    0.5044  -50.7818  -22.1491 N   0  0  0  0  0  0  0  0  0  0  0  0
    0.1080  -50.3766  -23.0661 H   0  0  0  0  0  0  0  0  0  0  0  0
    1.5188  -50.0543  -21.5319 C   0  0  0  0  0  0  0  0  0  0  0  0
    1.1710  -48.8884  -20.8271 C   0  0  0  0  0  0  0  0  0  0  0  0
    2.1389  -48.1284  -20.2254 C   0  0  0  0  0  0  0  0  0  0  0  0
    3.4588  -48.5027  -20.3078 C   0  0  0  0  0  0  0  0  0  0  0  0
    3.8340  -49.6325  -20.9865 C   0  0  0  0  0  0  0  0  0  0  0  0
    5.6802  -50.1655  -21.1077 Br  0  0  0  0  0  0  0  0  0  0  0  0
    2.8322  -50.4019  -21.5988 C   0  0  0  0  0  0  0  0  0  0  0  0
 11 12  1  0  0  0
 12 13  1  0  0  0
 12  1  1  0  0  0
  1  2  2  0  0  0
  2  3  1  0  0  0
  3  4  2  0  0  0
  4  5  1  0  0  0
  5  6  2  0  0  0
  6  7  1  0  0  0
  7  8  2  0  0  0
  8 14  1  0  0  0
 14 16  1  0  0  0
 16 17  2  0  0  0
 17 18  1  0  0  0
 18 19  2  0  0  0
 19 20  1  0  0  0
 20 21  1  0  0  0
 20 22  2  0  0  0
  8  9  1  0  0  0
  9 10  2  0  0  0
 10  1  1  0  0  0
  9  4  1  0  0  0
 22 16  1  0  0  0
 14 15  1  0  0  0
M  END
> <minimizedAffinity>
-6.78554

> <CNNscore>
0.6555418372

> <CNNaffinity>
6.2300806046

> <CNN_VS>
4.0840783119

> <CNNaffinity_variance>
0.1335331500

$$$$
[H]c1nc(N([H])c2c([H])c([H])c([H])c(Br)c2[H])c2nc(N(C([H])([H])[H])C([H])([H])[H])nc([H])c2n1


 22 24  0  0  0  0  0  0  0  0999 V2000
   -0.6490  -53.5820  -22.3211 C   0  0  0  0  0  0  0  0  0  0  0  0
   -1.4049  -54.2338  -21.3998 N   0  0  0  0  0  0  0  0  0  0  0  0
   -1.4208  -53.8852  -20.1018 C   0  0  0  0  0  0  0  0  0  0  0  0
   -0.6303  -52.8178  -19.7041 C   0  0  0  0  0  0  0  0  0  0  0  0
   -0.6722  -52.4995  -18.4009 N   0  0  0  0  0  0  0  0  0  0  0  0
    0.0824  -51.4676  -17.9753 C   0  0  0  0  0  0  0  0  0  0  0  0
    0.8204  -50.8283  -18.8642 N   0  0  0  0  0  0  0  0  0  0  0  0
    0.9225  -51.0762  -20.1745 C   0  0  0  0  0  0  0  0  0  0  0  0
    0.1365  -52.1516  -20.6204 C   0  0  0  0  0  0  0  0  0  0  0  0
    0.1041  -52.5490  -21.8855 N   0  0  0  0  0  0  0  0  0  0  0  0
   -1.0223  -55.3259  -24.0751 C   0  0  0  0  0  0  0  0  0  0  0  0
   -0.6636  -53.9849  -23.6815 N   0  0  0  0  0  0  0  0  0  0  0  0
   -0.3118  -53.0373  -24.7118 C   0  0  0  0  0  0  0  0  0  0  0  0
    1.6823  -50.3942  -21.1213 N   0  0  0  0  0  0  0  0  0  0  0  0
    1.1695  -49.6695  -21.7329 H   0  0  0  0  0  0  0  0  0  0  0  0
    3.0445  -50.5598  -21.3585 C   0  0  0  0  0  0  0  0  0  0  0  0
    3.9549  -49.9704  -20.4636 C   0  0  0  0  0  0  0  0  0  0  0  0
    5.3039  -50.0867  -20.6716 C   0  0  0  0  0  0  0  0  0  0  0  0
    5.7757  -50.7820  -21.7593 C   0  0  0  0  0  0  0  0  0  0  0  0
    4.9174  -51.3689  -22.6519 C   0  0  0  0  0  0  0  0  0  0  0  0
    5.5682  -52.3451  -24.1785 Br  0  0  0  0  0  0  0  0  0  0  0  0
    3.5376  -51.2418  -22.4271 C   0  0  0  0  0  0  0  0  0  0  0  0
 11 12  1  0  0  0
 12 13  1  0  0  0
 12  1  1  0  0  0
  1  2  2  0  0  0
  2  3  1  0  0  0
  3  4  2  0  0  0
  4  5  1  0  0  0
  5  6  2  0  0  0
  6  7  1  0  0  0
  7  8  2  0  0  0
  8 14  1  0  0  0
 14 16  1  0  0  0
 16 17  2  0  0  0
 17 18  1  0  0  0
 18 19  2  0  0  0
 19 20  1  0  0  0
 20 21  1  0  0  0
 20 22  2  0  0  0
  8  9  1  0  0  0
  9 10  2  0  0  0
 10  1  1  0  0  0
  9  4  1  0  0  0
 22 16  1  0  0  0
 14 15  1  0  0  0
M  END
> <minimizedAffinity>
-5.86058

> <CNNscore>
0.6483937502

> <CNNaffinity>
5.9986200333

> <CNN_VS>
3.8894677162

> <CNNaffinity_variance>
0.0338520035

$$$$
[H]c1nc(N([H])c2c([H])c([H])c([H])c(Br)c2[H])c2nc(N(C([H])([H])[H])C([H])([H])[H])nc([H])c2n1


 22 24  0  0  0  0  0  0  0  0999 V2000
    0.3359  -51.0220  -20.3536 C   0  0  0  0  0  0  0  0  0  0  0  0
   -0.1511  -51.8687  -19.4097 N   0  0  0  0  0  0  0  0  0  0  0  0
   -0.7021  -53.0549  -19.7193 C   0  0  0  0  0  0  0  0  0  0  0  0
   -0.7685  -53.4132  -21.0570 C   0  0  0  0  0  0  0  0  0  0  0  0
   -1.3253  -54.6043  -21.3270 N   0  0  0  0  0  0  0  0  0  0  0  0
   -1.4082  -54.9884  -22.6158 C   0  0  0  0  0  0  0  0  0  0  0  0
   -0.9372  -54.1713  -23.5399 N   0  0  0  0  0  0  0  0  0  0  0  0
   -0.3698  -52.9734  -23.3620 C   0  0  0  0  0  0  0  0  0  0  0  0
   -0.2824  -52.5710  -22.0191 C   0  0  0  0  0  0  0  0  0  0  0  0
    0.2487  -51.4151  -21.6427 N   0  0  0  0  0  0  0  0  0  0  0  0
    1.3334  -49.5110  -18.6276 C   0  0  0  0  0  0  0  0  0  0  0  0
    0.9095  -49.7790  -19.9805 N   0  0  0  0  0  0  0  0  0  0  0  0
    1.0798  -48.7437  -20.9718 C   0  0  0  0  0  0  0  0  0  0  0  0
    0.1473  -52.1155  -24.3292 N   0  0  0  0  0  0  0  0  0  0  0  0
   -0.4316  -51.2376  -24.5669 H   0  0  0  0  0  0  0  0  0  0  0  0
    1.3421  -52.2829  -25.0246 C   0  0  0  0  0  0  0  0  0  0  0  0
    1.2807  -52.5472  -26.4043 C   0  0  0  0  0  0  0  0  0  0  0  0
    2.4299  -52.7433  -27.1234 C   0  0  0  0  0  0  0  0  0  0  0  0
    3.6525  -52.6824  -26.4984 C   0  0  0  0  0  0  0  0  0  0  0  0
    3.7498  -52.4272  -25.1555 C   0  0  0  0  0  0  0  0  0  0  0  0
    5.4576  -52.3398  -24.2704 Br  0  0  0  0  0  0  0  0  0  0  0  0
    2.5644  -52.2286  -24.4304 C   0  0  0  0  0  0  0  0  0  0  0  0
 11 12  1  0  0  0
 12 13  1  0  0  0
 12  1  1  0  0  0
  1  2  2  0  0  0
  2  3  1  0  0  0
  3  4  2  0  0  0
  4  5  1  0  0  0
  5  6  2  0  0  0
  6  7  1  0  0  0
  7  8  2  0  0  0
  8 14  1  0  0  0
 14 16  1  0  0  0
 16 17  2  0  0  0
 17 18  1  0  0  0
 18 19  2  0  0  0
 19 20  1  0  0  0
 20 21  1  0  0  0
 20 22  2  0  0  0
  8  9  1  0  0  0
  9 10  2  0  0  0
 10  1  1  0  0  0
  9  4  1  0  0  0
 22 16  1  0  0  0
 14 15  1  0  0  0
M  END
> <minimizedAffinity>
-6.67430

> <CNNscore>
0.6325443983

> <CNNaffinity>
5.9701380730

> <CNN_VS>
3.7763774395

> <CNNaffinity_variance>
0.1123296469

$$$$
[H]c1nc(N([H])c2c([H])c([H])c([H])c(Br)c2[H])c2nc(N(C([H])([H])[H])C([H])([H])[H])nc([H])c2n1


 22 24  0  0  0  0  0  0  0  0999 V2000
   -0.2114  -53.7959  -24.8593 C   0  0  0  0  0  0  0  0  0  0  0  0
   -0.9962  -54.8384  -24.4822 N   0  0  0  0  0  0  0  0  0  0  0  0
   -1.3719  -55.0348  -23.2067 C   0  0  0  0  0  0  0  0  0  0  0  0
   -0.9335  -54.1302  -22.2518 C   0  0  0  0  0  0  0  0  0  0  0  0
   -1.3288  -54.3591  -20.9897 N   0  0  0  0  0  0  0  0  0  0  0  0
   -0.9233  -53.5019  -20.0325 C   0  0  0  0  0  0  0  0  0  0  0  0
   -0.1600  -52.4856  -20.3903 N   0  0  0  0  0  0  0  0  0  0  0  0
    0.2791  -52.1829  -21.6168 C   0  0  0  0  0  0  0  0  0  0  0  0
   -0.1425  -53.0753  -22.6162 C   0  0  0  0  0  0  0  0  0  0  0  0
    0.1904  -52.9418  -23.8933 N   0  0  0  0  0  0  0  0  0  0  0  0
    0.5745  -52.3488  -26.7423 C   0  0  0  0  0  0  0  0  0  0  0  0
    0.1607  -53.6279  -26.2182 N   0  0  0  0  0  0  0  0  0  0  0  0
    0.1290  -54.7596  -27.1136 C   0  0  0  0  0  0  0  0  0  0  0  0
    1.0669  -51.1024  -22.0049 N   0  0  0  0  0  0  0  0  0  0  0  0
    0.5752  -50.3002  -22.5311 H   0  0  0  0  0  0  0  0  0  0  0  0
    2.4338  -50.9576  -21.7819 C   0  0  0  0  0  0  0  0  0  0  0  0
    3.3249  -51.6401  -22.6290 C   0  0  0  0  0  0  0  0  0  0  0  0
    4.6771  -51.5464  -22.4313 C   0  0  0  0  0  0  0  0  0  0  0  0
    5.1713  -50.7826  -21.4010 C   0  0  0  0  0  0  0  0  0  0  0  0
    4.3324  -50.1043  -20.5561 C   0  0  0  0  0  0  0  0  0  0  0  0
    5.0146  -49.0316  -19.1100 Br  0  0  0  0  0  0  0  0  0  0  0  0
    2.9490  -50.2092  -20.7697 C   0  0  0  0  0  0  0  0  0  0  0  0
 11 12  1  0  0  0
 12 13  1  0  0  0
 12  1  1  0  0  0
  1  2  2  0  0  0
  2  3  1  0  0  0
  3  4  2  0  0  0
  4  5  1  0  0  0
  5  6  2  0  0  0
  6  7  1  0  0  0
  7  8  2  0  0  0
  8 14  1  0  0  0
 14 16  1  0  0  0
 16 17  2  0  0  0
 17 18  1  0  0  0
 18 19  2  0  0  0
 19 20  1  0  0  0
 20 21  1  0  0  0
 20 22  2  0  0  0
  8  9  1  0  0  0
  9 10  2  0  0  0
 10  1  1  0  0  0
  9  4  1  0  0  0
 22 16  1  0  0  0
 14 15  1  0  0  0
M  END
> <minimizedAffinity>
-6.67017

> <CNNscore>
0.5645431280

> <CNNaffinity>
6.1116881371

> <CNN_VS>
3.4503114223

> <CNNaffinity_variance>
0.1376112401

$$$$
[H]c1nc(N([H])c2c([H])c([H])c([H])c(Br)c2[H])c2nc(N(C([H])([H])[H])C([H])([H])[H])nc([H])c2n1


 22 24  0  0  0  0  0  0  0  0999 V2000
   -0.5633  -53.4526  -21.5956 C   0  0  0  0  0  0  0  0  0  0  0  0
   -1.2853  -54.5713  -21.8643 N   0  0  0  0  0  0  0  0  0  0  0  0
   -1.3255  -55.1281  -23.0870 C   0  0  0  0  0  0  0  0  0  0  0  0
   -0.5971  -54.5258  -24.1015 C   0  0  0  0  0  0  0  0  0  0  0  0
   -0.6620  -55.1101  -25.3080 N   0  0  0  0  0  0  0  0  0  0  0  0
    0.0323  -54.5544  -26.3202 C   0  0  0  0  0  0  0  0  0  0  0  0
    0.7370  -53.4666  -26.0678 N   0  0  0  0  0  0  0  0  0  0  0  0
    0.8578  -52.8209  -24.9028 C   0  0  0  0  0  0  0  0  0  0  0  0
    0.1347  -53.3986  -23.8462 C   0  0  0  0  0  0  0  0  0  0  0  0
    0.1295  -52.9024  -22.6160 N   0  0  0  0  0  0  0  0  0  0  0  0
    0.3718  -51.8551  -19.9131 C   0  0  0  0  0  0  0  0  0  0  0  0
   -0.5501  -52.8994  -20.2890 N   0  0  0  0  0  0  0  0  0  0  0  0
   -1.4795  -53.3853  -19.2972 C   0  0  0  0  0  0  0  0  0  0  0  0
    1.6145  -51.6858  -24.6241 N   0  0  0  0  0  0  0  0  0  0  0  0
    1.1610  -50.7301  -24.8324 H   0  0  0  0  0  0  0  0  0  0  0  0
    2.9060  -51.6642  -24.1038 C   0  0  0  0  0  0  0  0  0  0  0  0
    3.9217  -52.3334  -24.8092 C   0  0  0  0  0  0  0  0  0  0  0  0
    5.2016  -52.3592  -24.3217 C   0  0  0  0  0  0  0  0  0  0  0  0
    5.5004  -51.7292  -23.1373 C   0  0  0  0  0  0  0  0  0  0  0  0
    4.5357  -51.0679  -22.4233 C   0  0  0  0  0  0  0  0  0  0  0  0
    4.9440  -50.1823  -20.7631 Br  0  0  0  0  0  0  0  0  0  0  0  0
    3.2282  -51.0495  -22.9339 C   0  0  0  0  0  0  0  0  0  0  0  0
 11 12  1  0  0  0
 12 13  1  0  0  0
 12  1  1  0  0  0
  1  2  2  0  0  0
  2  3  1  0  0  0
  3  4  2  0  0  0
  4  5  1  0  0  0
  5  6  2  0  0  0
  6  7  1  0  0  0
  7  8  2  0  0  0
  8 14  1  0  0  0
 14 16  1  0  0  0
 16 17  2  0  0  0
 17 18  1  0  0  0
 18 19  2  0  0  0
 19 20  1  0  0  0
 20 21  1  0  0  0
 20 22  2  0  0  0
  8  9  1  0  0  0
  9 10  2  0  0  0
 10  1  1  0  0  0
  9  4  1  0  0  0
 22 16  1  0  0  0
 14 15  1  0  0  0
M  END
> <minimizedAffinity>
-6.47424

> <CNNscore>
0.5620309711

> <CNNaffinity>
6.3002991676

> <CNN_VS>
3.5409631729

> <CNNaffinity_variance>
0.1028436422

$$$$
[H]c1nc(N([H])c2c([H])c([H])c([H])c(Br)c2[H])c2nc(N(C([H])([H])[H])C([H])([H])[H])nc([H])c2n1


 22 24  0  0  0  0  0  0  0  0999 V2000
    1.8582  -50.1722  -21.2057 C   0  0  0  0  0  0  0  0  0  0  0  0
    2.0590  -50.7956  -20.0157 N   0  0  0  0  0  0  0  0  0  0  0  0
    1.5490  -52.0085  -19.7412 C   0  0  0  0  0  0  0  0  0  0  0  0
    0.7918  -52.6338  -20.7200 C   0  0  0  0  0  0  0  0  0  0  0  0
    0.2995  -53.8432  -20.4093 N   0  0  0  0  0  0  0  0  0  0  0  0
   -0.4418  -54.4832  -21.3346 C   0  0  0  0  0  0  0  0  0  0  0  0
   -0.6420  -53.8844  -22.4943 N   0  0  0  0  0  0  0  0  0  0  0  0
   -0.1922  -52.6875  -22.8866 C   0  0  0  0  0  0  0  0  0  0  0  0
    0.5809  -52.0185  -21.9234 C   0  0  0  0  0  0  0  0  0  0  0  0
    1.1141  -50.8211  -22.1272 N   0  0  0  0  0  0  0  0  0  0  0  0
    2.8934  -48.5061  -22.7580 C   0  0  0  0  0  0  0  0  0  0  0  0
    2.4163  -48.8911  -21.4519 N   0  0  0  0  0  0  0  0  0  0  0  0
    2.5161  -47.9355  -20.3747 C   0  0  0  0  0  0  0  0  0  0  0  0
   -0.3820  -52.0585  -24.1143 N   0  0  0  0  0  0  0  0  0  0  0  0
   -1.0886  -51.2450  -24.1452 H   0  0  0  0  0  0  0  0  0  0  0  0
    0.2519  -52.3810  -25.3115 C   0  0  0  0  0  0  0  0  0  0  0  0
    1.6292  -52.6630  -25.2834 C   0  0  0  0  0  0  0  0  0  0  0  0
    2.2986  -52.9609  -26.4408 C   0  0  0  0  0  0  0  0  0  0  0  0
    1.6256  -52.9857  -27.6389 C   0  0  0  0  0  0  0  0  0  0  0  0
    0.2837  -52.7158  -27.7036 C   0  0  0  0  0  0  0  0  0  0  0  0
   -0.6683  -52.7481  -29.3770 Br  0  0  0  0  0  0  0  0  0  0  0  0
   -0.3901  -52.4117  -26.5103 C   0  0  0  0  0  0  0  0  0  0  0  0
 11 12  1  0  0  0
 12 13  1  0  0  0
 12  1  1  0  0  0
  1  2  2  0  0  0
  2  3  1  0  0  0
  3  4  2  0  0  0
  4  5  1  0  0  0
  5  6  2  0  0  0
  6  7  1  0  0  0
  7  8  2  0  0  0
  8 14  1  0  0  0
 14 16  1  0  0  0
 16 17  2  0  0  0
 17 18  1  0  0  0
 18 19  2  0  0  0
 19 20  1  0  0  0
 20 21  1  0  0  0
 20 22  2  0  0  0
  8  9  1  0  0  0
  9 10  2  0  0  0
 10  1  1  0  0  0
  9  4  1  0  0  0
 22 16  1  0  0  0
 14 15  1  0  0  0
M  END
> <minimizedAffinity>
-6.43185

> <CNNscore>
0.5552508831

> <CNNaffinity>
6.0002794266

> <CNN_VS>
3.3316605091

> <CNNaffinity_variance>
0.1456406116

$$$$
[H]c1nc(N([H])c2c([H])c([H])c([H])c(Br)c2[H])c2nc(N(C([H])([H])[H])C([H])([H])[H])nc([H])c2n1


 22 24  0  0  0  0  0  0  0  0999 V2000
    2.0921  -50.2707  -19.8940 C   0  0  0  0  0  0  0  0  0  0  0  0
    1.6799  -50.7686  -18.6994 N   0  0  0  0  0  0  0  0  0  0  0  0
    0.7081  -51.6917  -18.5986 C   0  0  0  0  0  0  0  0  0  0  0  0
    0.1138  -52.1424  -19.7674 C   0  0  0  0  0  0  0  0  0  0  0  0
   -0.8522  -53.0635  -19.6268 N   0  0  0  0  0  0  0  0  0  0  0  0
   -1.4542  -53.5266  -20.7397 C   0  0  0  0  0  0  0  0  0  0  0  0
   -1.0597  -53.0479  -21.9054 N   0  0  0  0  0  0  0  0  0  0  0  0
   -0.1107  -52.1344  -22.1370 C   0  0  0  0  0  0  0  0  0  0  0  0
    0.5181  -51.6502  -20.9780 C   0  0  0  0  0  0  0  0  0  0  0  0
    1.4832  -50.7406  -21.0042 N   0  0  0  0  0  0  0  0  0  0  0  0
    2.8452  -47.8862  -19.8282 C   0  0  0  0  0  0  0  0  0  0  0  0
    3.1223  -49.2968  -19.9527 N   0  0  0  0  0  0  0  0  0  0  0  0
    4.4910  -49.7141  -20.1419 C   0  0  0  0  0  0  0  0  0  0  0  0
    0.3246  -51.6398  -23.3637 N   0  0  0  0  0  0  0  0  0  0  0  0
    0.8441  -50.6951  -23.3558 H   0  0  0  0  0  0  0  0  0  0  0  0
    0.1510  -52.2468  -24.6049 C   0  0  0  0  0  0  0  0  0  0  0  0
   -0.0713  -51.4260  -25.7247 C   0  0  0  0  0  0  0  0  0  0  0  0
   -0.2718  -51.9809  -26.9609 C   0  0  0  0  0  0  0  0  0  0  0  0
   -0.2566  -53.3467  -27.1136 C   0  0  0  0  0  0  0  0  0  0  0  0
   -0.0431  -54.1769  -26.0444 C   0  0  0  0  0  0  0  0  0  0  0  0
   -0.0199  -56.0914  -26.2476 Br  0  0  0  0  0  0  0  0  0  0  0  0
    0.1605  -53.5952  -24.7832 C   0  0  0  0  0  0  0  0  0  0  0  0
 11 12  1  0  0  0
 12 13  1  0  0  0
 12  1  1  0  0  0
  1  2  2  0  0  0
  2  3  1  0  0  0
  3  4  2  0  0  0
  4  5  1  0  0  0
  5  6  2  0  0  0
  6  7  1  0  0  0
  7  8  2  0  0  0
  8 14  1  0  0  0
 14 16  1  0  0  0
 16 17  2  0  0  0
 17 18  1  0  0  0
 18 19  2  0  0  0
 19 20  1  0  0  0
 20 21  1  0  0  0
 20 22  2  0  0  0
  8  9  1  0  0  0
  9 10  2  0  0  0
 10  1  1  0  0  0
  9  4  1  0  0  0
 22 16  1  0  0  0
 14 15  1  0  0  0
M  END
> <minimizedAffinity>
-5.54440

> <CNNscore>
0.4329377115

> <CNNaffinity>
5.9266610146

> <CNN_VS>
2.5658750534

> <CNNaffinity_variance>
0.2246803939

$$$$
[H]/C(C(=O)N([H])c1c(OC([H])([H])C([H])([H])[H])c([H])c2nc([H])nc(N([H])c3c([H])c([H])c(F)c(Cl)c3[H])c2c1[H])=C(/[H])[C@]1([H])N(C([H])([H])[H])C([H])([H])C([H])([H])C1([H])[H]


 35 38  0  0  0  0  0  0  0  0999 V2000
   -0.2941  -52.5354  -19.5426 C   0  0  0  0  0  0  0  0  0  0  0  0
   -1.0426  -53.5643  -20.0388 C   0  0  0  0  0  0  0  0  0  0  0  0
   -1.0025  -53.9149  -21.3773 C   0  0  0  0  0  0  0  0  0  0  0  0
   -1.7468  -54.9357  -21.8502 N   0  0  0  0  0  0  0  0  0  0  0  0
   -1.6797  -55.2494  -23.1618 C   0  0  0  0  0  0  0  0  0  0  0  0
   -0.8956  -54.5769  -24.0087 N   0  0  0  0  0  0  0  0  0  0  0  0
   -0.1214  -53.5375  -23.5919 C   0  0  0  0  0  0  0  0  0  0  0  0
   -0.1967  -53.2233  -22.2450 C   0  0  0  0  0  0  0  0  0  0  0  0
    0.5595  -52.1783  -21.7262 C   0  0  0  0  0  0  0  0  0  0  0  0
    0.5500  -51.7968  -20.4047 C   0  0  0  0  0  0  0  0  0  0  0  0
    1.2864  -50.7574  -19.8263 N   0  0  0  0  0  0  0  0  0  0  0  0
    2.6027  -50.8480  -19.3611 C   0  0  0  0  0  0  0  0  0  0  0  0
    3.2816  -51.8651  -19.4044 O   0  0  0  0  0  0  0  0  0  0  0  0
    0.7927  -49.7957  -19.7299 H   0  0  0  0  0  0  0  0  0  0  0  0
    3.2187  -49.6207  -18.7727 C   0  0  0  0  0  0  0  0  0  0  0  0
    4.3107  -49.0875  -19.2627 C   0  0  0  0  0  0  0  0  0  0  0  0
    4.9452  -47.8672  -18.6977 C   0  0  0  0  0  0  0  0  0  0  0  0
    5.4413  -47.0473  -19.8817 C   0  0  0  0  0  0  0  0  0  0  0  0
    4.2568  -46.1724  -20.1807 C   0  0  0  0  0  0  0  0  0  0  0  0
    3.7330  -45.8822  -18.7736 C   0  0  0  0  0  0  0  0  0  0  0  0
    3.9525  -47.0861  -18.0341 N   0  0  0  0  0  0  0  0  0  0  0  0
    4.1820  -46.8907  -16.6313 C   0  0  0  0  0  0  0  0  0  0  0  0
    0.6694  -52.8105  -24.4967 N   0  0  0  0  0  0  0  0  0  0  0  0
    1.5059  -52.2260  -24.1951 H   0  0  0  0  0  0  0  0  0  0  0  0
    0.4179  -52.7882  -25.9056 C   0  0  0  0  0  0  0  0  0  0  0  0
    1.4909  -52.9418  -26.7916 C   0  0  0  0  0  0  0  0  0  0  0  0
    1.2946  -52.9619  -28.1457 C   0  0  0  0  0  0  0  0  0  0  0  0
    0.0113  -52.8284  -28.6663 C   0  0  0  0  0  0  0  0  0  0  0  0
   -0.1702  -52.8495  -30.0141 F   0  0  0  0  0  0  0  0  0  0  0  0
   -1.0695  -52.6760  -27.8310 C   0  0  0  0  0  0  0  0  0  0  0  0
   -2.6875  -52.5067  -28.4587 Cl  0  0  0  0  0  0  0  0  0  0  0  0
   -0.8158  -52.6625  -26.4548 C   0  0  0  0  0  0  0  0  0  0  0  0
   -0.3482  -52.2030  -18.2151 O   0  0  0  0  0  0  0  0  0  0  0  0
   -1.4726  -51.6943  -16.1344 C   0  0  0  0  0  0  0  0  0  0  0  0
   -1.2404  -52.6774  -17.2596 C   0  0  0  0  0  0  0  0  0  0  0  0
 34 35  1  0  0  0
 35 33  1  0  0  0
 33  1  1  0  0  0
  1  2  2  0  0  0
  2  3  1  0  0  0
  3  4  2  0  0  0
  4  5  1  0  0  0
  5  6  2  0  0  0
  6  7  1  0  0  0
  7 23  1  0  0  0
 23 25  1  0  0  0
 25 26  2  0  0  0
 26 27  1  0  0  0
 27 28  2  0  0  0
 28 29  1  0  0  0
 28 30  1  0  0  0
 30 31  1  0  0  0
 30 32  2  0  0  0
  7  8  2  0  0  0
  8  9  1  0  0  0
  9 10  2  0  0  0
 10 11  1  0  0  0
 11 12  1  0  0  0
 12 13  2  0  0  0
 12 15  1  0  0  0
 15 16  2  0  0  0
 16 17  1  0  0  0
 17 18  1  0  0  0
 18 19  1  0  0  0
 19 20  1  0  0  0
 20 21  1  0  0  0
 21 22  1  0  0  0
 10  1  1  0  0  0
 21 17  1  0  0  0
  8  3  1  0  0  0
 32 25  1  0  0  0
 23 24  1  0  0  0
 11 14  1  0  0  0
M  END
> <minimizedAffinity>
-8.74154

> <CNNscore>
0.9774283171

> <CNNaffinity>
7.9824724197

> <CNN_VS>
7.8022947311

> <CNNaffinity_variance>
0.1078401208

$$$$
[H]/C(C(=O)N([H])c1c(OC([H])([H])C([H])([H])[H])c([H])c2nc([H])nc(N([H])c3c([H])c([H])c(F)c(Cl)c3[H])c2c1[H])=C(/[H])[C@]1([H])N(C([H])([H])[H])C([H])([H])C([H])([H])C1([H])[H]


 35 38  0  0  0  0  0  0  0  0999 V2000
   -0.2215  -52.3826  -19.2172 C   0  0  0  0  0  0  0  0  0  0  0  0
   -0.9050  -53.4500  -19.7255 C   0  0  0  0  0  0  0  0  0  0  0  0
   -0.8893  -53.7485  -21.0771 C   0  0  0  0  0  0  0  0  0  0  0  0
   -1.5684  -54.8083  -21.5620 N   0  0  0  0  0  0  0  0  0  0  0  0
   -1.5277  -55.0688  -22.8863 C   0  0  0  0  0  0  0  0  0  0  0  0
   -0.8326  -54.3058  -23.7342 N   0  0  0  0  0  0  0  0  0  0  0  0
   -0.1274  -53.2230  -23.3057 C   0  0  0  0  0  0  0  0  0  0  0  0
   -0.1750  -52.9639  -21.9459 C   0  0  0  0  0  0  0  0  0  0  0  0
    0.5158  -51.8806  -21.4147 C   0  0  0  0  0  0  0  0  0  0  0  0
    0.5276  -51.5484  -20.0800 C   0  0  0  0  0  0  0  0  0  0  0  0
    1.2014  -50.4743  -19.4887 N   0  0  0  0  0  0  0  0  0  0  0  0
    2.4963  -50.5121  -18.9606 C   0  0  0  0  0  0  0  0  0  0  0  0
    3.2093  -51.5065  -18.9516 O   0  0  0  0  0  0  0  0  0  0  0  0
    0.6726  -49.5280  -19.4349 H   0  0  0  0  0  0  0  0  0  0  0  0
    3.0434  -49.2541  -18.3688 C   0  0  0  0  0  0  0  0  0  0  0  0
    2.4279  -48.6140  -17.4053 C   0  0  0  0  0  0  0  0  0  0  0  0
    2.9490  -47.3609  -16.7979 C   0  0  0  0  0  0  0  0  0  0  0  0
    2.1436  -47.1265  -15.5264 C   0  0  0  0  0  0  0  0  0  0  0  0
    2.9619  -47.8497  -14.4943 C   0  0  0  0  0  0  0  0  0  0  0  0
    4.3833  -47.5557  -14.9757 C   0  0  0  0  0  0  0  0  0  0  0  0
    4.3059  -47.5591  -16.4035 N   0  0  0  0  0  0  0  0  0  0  0  0
    5.2515  -46.6981  -17.0539 C   0  0  0  0  0  0  0  0  0  0  0  0
    0.5677  -52.4031  -24.2096 N   0  0  0  0  0  0  0  0  0  0  0  0
    1.2603  -51.6569  -23.9001 H   0  0  0  0  0  0  0  0  0  0  0  0
    0.4034  -52.4960  -25.6285 C   0  0  0  0  0  0  0  0  0  0  0  0
    1.5306  -52.7024  -26.4327 C   0  0  0  0  0  0  0  0  0  0  0  0
    1.4184  -52.8323  -27.7902 C   0  0  0  0  0  0  0  0  0  0  0  0
    0.1684  -52.7602  -28.3967 C   0  0  0  0  0  0  0  0  0  0  0  0
    0.0705  -52.8904  -29.7470 F   0  0  0  0  0  0  0  0  0  0  0  0
   -0.9635  -52.5591  -27.6433 C   0  0  0  0  0  0  0  0  0  0  0  0
   -2.5415  -52.4651  -28.3795 Cl  0  0  0  0  0  0  0  0  0  0  0  0
   -0.7953  -52.4331  -26.2598 C   0  0  0  0  0  0  0  0  0  0  0  0
   -0.2501  -52.1030  -17.8768 O   0  0  0  0  0  0  0  0  0  0  0  0
   -1.3730  -51.3212  -15.8818 C   0  0  0  0  0  0  0  0  0  0  0  0
   -1.2841  -52.3550  -16.9816 C   0  0  0  0  0  0  0  0  0  0  0  0
 34 35  1  0  0  0
 35 33  1  0  0  0
 33  1  1  0  0  0
  1  2  2  0  0  0
  2  3  1  0  0  0
  3  4  2  0  0  0
  4  5  1  0  0  0
  5  6  2  0  0  0
  6  7  1  0  0  0
  7 23  1  0  0  0
 23 25  1  0  0  0
 25 26  2  0  0  0
 26 27  1  0  0  0
 27 28  2  0  0  0
 28 29  1  0  0  0
 28 30  1  0  0  0
 30 31  1  0  0  0
 30 32  2  0  0  0
  7  8  2  0  0  0
  8  9  1  0  0  0
  9 10  2  0  0  0
 10 11  1  0  0  0
 11 12  1  0  0  0
 12 13  2  0  0  0
 12 15  1  0  0  0
 15 16  2  0  0  0
 16 17  1  0  0  0
 17 18  1  0  0  0
 18 19  1  0  0  0
 19 20  1  0  0  0
 20 21  1  0  0  0
 21 22  1  0  0  0
 10  1  1  0  0  0
 21 17  1  0  0  0
  8  3  1  0  0  0
 32 25  1  0  0  0
 23 24  1  0  0  0
 11 14  1  0  0  0
M  END
> <minimizedAffinity>
-8.47593

> <CNNscore>
0.9456379414

> <CNNaffinity>
7.6396284103

> <CNN_VS>
7.2243223190

> <CNNaffinity_variance>
0.0737151951

$$$$
[H]/C(C(=O)N([H])c1c(OC([H])([H])C([H])([H])[H])c([H])c2nc([H])nc(N([H])c3c([H])c([H])c(F)c(Cl)c3[H])c2c1[H])=C(/[H])[C@]1([H])N(C([H])([H])[H])C([H])([H])C([H])([H])C1([H])[H]


 35 38  0  0  0  0  0  0  0  0999 V2000
    0.7660  -51.8580  -19.7091 C   0  0  0  0  0  0  0  0  0  0  0  0
   -0.0051  -52.9519  -19.9807 C   0  0  0  0  0  0  0  0  0  0  0  0
   -0.2030  -53.4006  -21.2752 C   0  0  0  0  0  0  0  0  0  0  0  0
   -0.9660  -54.4845  -21.5252 N   0  0  0  0  0  0  0  0  0  0  0  0
   -1.1343  -54.8932  -22.8011 C   0  0  0  0  0  0  0  0  0  0  0  0
   -0.5660  -54.2543  -23.8273 N   0  0  0  0  0  0  0  0  0  0  0  0
    0.2144  -53.1548  -23.6392 C   0  0  0  0  0  0  0  0  0  0  0  0
    0.3815  -52.7432  -22.3272 C   0  0  0  0  0  0  0  0  0  0  0  0
    1.1636  -51.6312  -22.0361 C   0  0  0  0  0  0  0  0  0  0  0  0
    1.3865  -51.1518  -20.7663 C   0  0  0  0  0  0  0  0  0  0  0  0
    2.1610  -50.0416  -20.4127 N   0  0  0  0  0  0  0  0  0  0  0  0
    1.7665  -48.7033  -20.5145 C   0  0  0  0  0  0  0  0  0  0  0  0
    0.6771  -48.3347  -20.9326 O   0  0  0  0  0  0  0  0  0  0  0  0
    3.1560  -50.2360  -20.0250 H   0  0  0  0  0  0  0  0  0  0  0  0
    2.7410  -47.6560  -20.0840 C   0  0  0  0  0  0  0  0  0  0  0  0
    3.1599  -47.5629  -18.8460 C   0  0  0  0  0  0  0  0  0  0  0  0
    4.1288  -46.5314  -18.3898 C   0  0  0  0  0  0  0  0  0  0  0  0
    3.3673  -45.6049  -17.4506 C   0  0  0  0  0  0  0  0  0  0  0  0
    3.5852  -46.2577  -16.1149 C   0  0  0  0  0  0  0  0  0  0  0  0
    5.0242  -46.7562  -16.2536 C   0  0  0  0  0  0  0  0  0  0  0  0
    5.1538  -47.1578  -17.6198 N   0  0  0  0  0  0  0  0  0  0  0  0
    6.4767  -47.0215  -18.1584 C   0  0  0  0  0  0  0  0  0  0  0  0
    0.7751  -52.4656  -24.7269 N   0  0  0  0  0  0  0  0  0  0  0  0
    1.5818  -51.7793  -24.6242 H   0  0  0  0  0  0  0  0  0  0  0  0
    0.3083  -52.6224  -26.0709 C   0  0  0  0  0  0  0  0  0  0  0  0
    1.2177  -52.9922  -27.0690 C   0  0  0  0  0  0  0  0  0  0  0  0
    0.8111  -53.1877  -28.3609 C   0  0  0  0  0  0  0  0  0  0  0  0
   -0.5266  -53.0198  -28.7040 C   0  0  0  0  0  0  0  0  0  0  0  0
   -0.9177  -53.2167  -29.9917 F   0  0  0  0  0  0  0  0  0  0  0  0
   -1.4517  -52.6577  -27.7540 C   0  0  0  0  0  0  0  0  0  0  0  0
   -3.1340  -52.4410  -28.1587 Cl  0  0  0  0  0  0  0  0  0  0  0  0
   -0.9856  -52.4704  -26.4479 C   0  0  0  0  0  0  0  0  0  0  0  0
    0.9491  -51.4289  -18.4215 O   0  0  0  0  0  0  0  0  0  0  0  0
    0.5234  -49.5257  -16.9901 C   0  0  0  0  0  0  0  0  0  0  0  0
    0.0154  -50.8161  -17.5928 C   0  0  0  0  0  0  0  0  0  0  0  0
 34 35  1  0  0  0
 35 33  1  0  0  0
 33  1  1  0  0  0
  1  2  2  0  0  0
  2  3  1  0  0  0
  3  4  2  0  0  0
  4  5  1  0  0  0
  5  6  2  0  0  0
  6  7  1  0  0  0
  7 23  1  0  0  0
 23 25  1  0  0  0
 25 26  2  0  0  0
 26 27  1  0  0  0
 27 28  2  0  0  0
 28 29  1  0  0  0
 28 30  1  0  0  0
 30 31  1  0  0  0
 30 32  2  0  0  0
  7  8  2  0  0  0
  8  9  1  0  0  0
  9 10  2  0  0  0
 10 11  1  0  0  0
 11 12  1  0  0  0
 12 13  2  0  0  0
 12 15  1  0  0  0
 15 16  2  0  0  0
 16 17  1  0  0  0
 17 18  1  0  0  0
 18 19  1  0  0  0
 19 20  1  0  0  0
 20 21  1  0  0  0
 21 22  1  0  0  0
 10  1  1  0  0  0
 21 17  1  0  0  0
  8  3  1  0  0  0
 32 25  1  0  0  0
 23 24  1  0  0  0
 11 14  1  0  0  0
M  END
> <minimizedAffinity>
-8.17721

> <CNNscore>
0.8949692249

> <CNNaffinity>
7.6432747841

> <CNN_VS>
6.8404955864

> <CNNaffinity_variance>
0.2253385335

$$$$
[H]/C(C(=O)N([H])c1c(OC([H])([H])C([H])([H])[H])c([H])c2nc([H])nc(N([H])c3c([H])c([H])c(F)c(Cl)c3[H])c2c1[H])=C(/[H])[C@]1([H])N(C([H])([H])[H])C([H])([H])C([H])([H])C1([H])[H]


 35 38  0  0  0  0  0  0  0  0999 V2000
    0.4083  -52.2716  -19.9751 C   0  0  0  0  0  0  0  0  0  0  0  0
   -0.2779  -53.4035  -20.3111 C   0  0  0  0  0  0  0  0  0  0  0  0
   -0.4860  -53.7646  -21.6312 C   0  0  0  0  0  0  0  0  0  0  0  0
   -1.1642  -54.8875  -21.9451 N   0  0  0  0  0  0  0  0  0  0  0  0
   -1.3455  -55.2077  -23.2444 C   0  0  0  0  0  0  0  0  0  0  0  0
   -0.8718  -54.4433  -24.2320 N   0  0  0  0  0  0  0  0  0  0  0  0
   -0.1798  -53.2984  -23.9790 C   0  0  0  0  0  0  0  0  0  0  0  0
    0.0012  -52.9783  -22.6436 C   0  0  0  0  0  0  0  0  0  0  0  0
    0.6977  -51.8291  -22.2870 C   0  0  0  0  0  0  0  0  0  0  0  0
    0.9271  -51.4334  -20.9898 C   0  0  0  0  0  0  0  0  0  0  0  0
    1.6184  -50.2915  -20.5708 N   0  0  0  0  0  0  0  0  0  0  0  0
    3.0014  -50.0967  -20.6526 C   0  0  0  0  0  0  0  0  0  0  0  0
    3.7881  -50.9157  -21.1084 O   0  0  0  0  0  0  0  0  0  0  0  0
    1.0296  -49.4856  -20.1445 H   0  0  0  0  0  0  0  0  0  0  0  0
    3.5527  -48.8026  -20.1494 C   0  0  0  0  0  0  0  0  0  0  0  0
    2.8914  -48.0448  -19.3095 C   0  0  0  0  0  0  0  0  0  0  0  0
    3.4154  -46.7529  -18.7925 C   0  0  0  0  0  0  0  0  0  0  0  0
    3.2052  -46.7710  -17.2839 C   0  0  0  0  0  0  0  0  0  0  0  0
    4.4898  -47.3752  -16.7915 C   0  0  0  0  0  0  0  0  0  0  0  0
    5.5019  -46.7652  -17.7621 C   0  0  0  0  0  0  0  0  0  0  0  0
    4.8230  -46.6930  -19.0184 N   0  0  0  0  0  0  0  0  0  0  0  0
    5.2493  -45.6161  -19.8654 C   0  0  0  0  0  0  0  0  0  0  0  0
    0.2798  -52.4799  -25.0236 N   0  0  0  0  0  0  0  0  0  0  0  0
   -0.3150  -52.2335  -25.8709 H   0  0  0  0  0  0  0  0  0  0  0  0
    1.5914  -51.9072  -25.0432 C   0  0  0  0  0  0  0  0  0  0  0  0
    1.7537  -50.5921  -25.4951 C   0  0  0  0  0  0  0  0  0  0  0  0
    2.9829  -49.9909  -25.4992 C   0  0  0  0  0  0  0  0  0  0  0  0
    4.1008  -50.6861  -25.0493 C   0  0  0  0  0  0  0  0  0  0  0  0
    5.3170  -50.0773  -25.0590 F   0  0  0  0  0  0  0  0  0  0  0  0
    3.9846  -51.9788  -24.5969 C   0  0  0  0  0  0  0  0  0  0  0  0
    5.3704  -52.8714  -24.0279 Cl  0  0  0  0  0  0  0  0  0  0  0  0
    2.7064  -52.5481  -24.6125 C   0  0  0  0  0  0  0  0  0  0  0  0
    0.6030  -51.9308  -18.6630 O   0  0  0  0  0  0  0  0  0  0  0  0
   -0.7589  -52.0974  -16.6706 C   0  0  0  0  0  0  0  0  0  0  0  0
   -0.2750  -51.2506  -17.8261 C   0  0  0  0  0  0  0  0  0  0  0  0
 34 35  1  0  0  0
 35 33  1  0  0  0
 33  1  1  0  0  0
  1  2  2  0  0  0
  2  3  1  0  0  0
  3  4  2  0  0  0
  4  5  1  0  0  0
  5  6  2  0  0  0
  6  7  1  0  0  0
  7 23  1  0  0  0
 23 25  1  0  0  0
 25 26  2  0  0  0
 26 27  1  0  0  0
 27 28  2  0  0  0
 28 29  1  0  0  0
 28 30  1  0  0  0
 30 31  1  0  0  0
 30 32  2  0  0  0
  7  8  2  0  0  0
  8  9  1  0  0  0
  9 10  2  0  0  0
 10 11  1  0  0  0
 11 12  1  0  0  0
 12 13  2  0  0  0
 12 15  1  0  0  0
 15 16  2  0  0  0
 16 17  1  0  0  0
 17 18  1  0  0  0
 18 19  1  0  0  0
 19 20  1  0  0  0
 20 21  1  0  0  0
 21 22  1  0  0  0
 10  1  1  0  0  0
 21 17  1  0  0  0
  8  3  1  0  0  0
 32 25  1  0  0  0
 23 24  1  0  0  0
 11 14  1  0  0  0
M  END
> <minimizedAffinity>
-7.08477

> <CNNscore>
0.6469640136

> <CNNaffinity>
7.1641602516

> <CNN_VS>
4.6349539757

> <CNNaffinity_variance>
0.0731278360

$$$$
[H]/C(C(=O)N([H])c1c(OC([H])([H])C([H])([H])[H])c([H])c2nc([H])nc(N([H])c3c([H])c([H])c(F)c(Cl)c3[H])c2c1[H])=C(/[H])[C@]1([H])N(C([H])([H])[H])C([H])([H])C([H])([H])C1([H])[H]


 35 38  0  0  0  0  0  0  0  0999 V2000
   -0.2333  -52.8485  -19.5803 C   0  0  0  0  0  0  0  0  0  0  0  0
   -0.8138  -53.8753  -20.2684 C   0  0  0  0  0  0  0  0  0  0  0  0
   -0.7864  -53.9331  -21.6512 C   0  0  0  0  0  0  0  0  0  0  0  0
   -1.3630  -54.9561  -22.3149 N   0  0  0  0  0  0  0  0  0  0  0  0
   -1.3141  -54.9788  -23.6642 C   0  0  0  0  0  0  0  0  0  0  0  0
   -0.7098  -54.0151  -24.3643 N   0  0  0  0  0  0  0  0  0  0  0  0
   -0.1102  -52.9572  -23.7521 C   0  0  0  0  0  0  0  0  0  0  0  0
   -0.1653  -52.9427  -22.3681 C   0  0  0  0  0  0  0  0  0  0  0  0
    0.4212  -51.9036  -21.6547 C   0  0  0  0  0  0  0  0  0  0  0  0
    0.4175  -51.8071  -20.2826 C   0  0  0  0  0  0  0  0  0  0  0  0
    0.9889  -50.7890  -19.5116 N   0  0  0  0  0  0  0  0  0  0  0  0
    2.2814  -50.7958  -18.9764 C   0  0  0  0  0  0  0  0  0  0  0  0
    3.0831  -51.7091  -19.1200 O   0  0  0  0  0  0  0  0  0  0  0  0
    0.3749  -49.9168  -19.3110 H   0  0  0  0  0  0  0  0  0  0  0  0
    2.7095  -49.6089  -18.1766 C   0  0  0  0  0  0  0  0  0  0  0  0
    3.8915  -49.0624  -18.3217 C   0  0  0  0  0  0  0  0  0  0  0  0
    4.3439  -47.8813  -17.5398 C   0  0  0  0  0  0  0  0  0  0  0  0
    5.4066  -47.1848  -18.3799 C   0  0  0  0  0  0  0  0  0  0  0  0
    4.5892  -46.2143  -19.1849 C   0  0  0  0  0  0  0  0  0  0  0  0
    3.5307  -45.7925  -18.1651 C   0  0  0  0  0  0  0  0  0  0  0  0
    3.2571  -46.9678  -17.3979 N   0  0  0  0  0  0  0  0  0  0  0  0
    2.8582  -46.7158  -16.0429 C   0  0  0  0  0  0  0  0  0  0  0  0
    0.4878  -51.9282  -24.4976 N   0  0  0  0  0  0  0  0  0  0  0  0
   -0.0648  -51.2744  -25.1297 H   0  0  0  0  0  0  0  0  0  0  0  0
    1.8955  -51.6696  -24.4763 C   0  0  0  0  0  0  0  0  0  0  0  0
    2.7863  -52.7495  -24.4617 C   0  0  0  0  0  0  0  0  0  0  0  0
    4.1402  -52.5515  -24.4761 C   0  0  0  0  0  0  0  0  0  0  0  0
    4.6558  -51.2597  -24.5059 C   0  0  0  0  0  0  0  0  0  0  0  0
    6.0035  -51.0765  -24.5195 F   0  0  0  0  0  0  0  0  0  0  0  0
    3.8157  -50.1719  -24.5216 C   0  0  0  0  0  0  0  0  0  0  0  0
    4.4371  -48.5431  -24.5589 Cl  0  0  0  0  0  0  0  0  0  0  0  0
    2.4399  -50.4277  -24.5063 C   0  0  0  0  0  0  0  0  0  0  0  0
   -0.2718  -52.8087  -18.2118 O   0  0  0  0  0  0  0  0  0  0  0  0
   -1.1924  -51.7173  -16.2590 C   0  0  0  0  0  0  0  0  0  0  0  0
   -1.3946  -52.6887  -17.4000 C   0  0  0  0  0  0  0  0  0  0  0  0
 34 35  1  0  0  0
 35 33  1  0  0  0
 33  1  1  0  0  0
  1  2  2  0  0  0
  2  3  1  0  0  0
  3  4  2  0  0  0
  4  5  1  0  0  0
  5  6  2  0  0  0
  6  7  1  0  0  0
  7 23  1  0  0  0
 23 25  1  0  0  0
 25 26  2  0  0  0
 26 27  1  0  0  0
 27 28  2  0  0  0
 28 29  1  0  0  0
 28 30  1  0  0  0
 30 31  1  0  0  0
 30 32  2  0  0  0
  7  8  2  0  0  0
  8  9  1  0  0  0
  9 10  2  0  0  0
 10 11  1  0  0  0
 11 12  1  0  0  0
 12 13  2  0  0  0
 12 15  1  0  0  0
 15 16  2  0  0  0
 16 17  1  0  0  0
 17 18  1  0  0  0
 18 19  1  0  0  0
 19 20  1  0  0  0
 20 21  1  0  0  0
 21 22  1  0  0  0
 10  1  1  0  0  0
 21 17  1  0  0  0
  8  3  1  0  0  0
 32 25  1  0  0  0
 23 24  1  0  0  0
 11 14  1  0  0  0
M  END
> <minimizedAffinity>
-7.43278

> <CNNscore>
0.5873429179

> <CNNaffinity>
7.0892286301

> <CNN_VS>
4.1638083458

> <CNNaffinity_variance>
0.0472513326

$$$$
[H]/C(C(=O)N([H])c1c(OC([H])([H])C([H])([H])[H])c([H])c2nc([H])nc(N([H])c3c([H])c([H])c(F)c(Cl)c3[H])c2c1[H])=C(/[H])[C@]1([H])N(C([H])([H])[H])C([H])([H])C([H])([H])C1([H])[H]


 35 38  0  0  0  0  0  0  0  0999 V2000
   -0.5124  -52.9138  -19.4352 C   0  0  0  0  0  0  0  0  0  0  0  0
   -1.0036  -53.9450  -20.1837 C   0  0  0  0  0  0  0  0  0  0  0  0
   -0.8866  -53.9645  -21.5629 C   0  0  0  0  0  0  0  0  0  0  0  0
   -1.3757  -54.9923  -22.2867 N   0  0  0  0  0  0  0  0  0  0  0  0
   -1.2409  -54.9768  -23.6302 C   0  0  0  0  0  0  0  0  0  0  0  0
   -0.6357  -53.9705  -24.2667 N   0  0  0  0  0  0  0  0  0  0  0  0
   -0.1220  -52.9054  -23.5920 C   0  0  0  0  0  0  0  0  0  0  0  0
   -0.2649  -52.9304  -22.2144 C   0  0  0  0  0  0  0  0  0  0  0  0
    0.2302  -51.8873  -21.4400 C   0  0  0  0  0  0  0  0  0  0  0  0
    0.1359  -51.8278  -20.0690 C   0  0  0  0  0  0  0  0  0  0  0  0
    0.6131  -50.8080  -19.2387 N   0  0  0  0  0  0  0  0  0  0  0  0
    1.8930  -50.7417  -18.6777 C   0  0  0  0  0  0  0  0  0  0  0  0
    2.7657  -51.5823  -18.8481 O   0  0  0  0  0  0  0  0  0  0  0  0
   -0.0702  -49.9965  -19.0094 H   0  0  0  0  0  0  0  0  0  0  0  0
    2.2138  -49.5661  -17.8135 C   0  0  0  0  0  0  0  0  0  0  0  0
    1.5218  -49.2851  -16.7369 C   0  0  0  0  0  0  0  0  0  0  0  0
    1.8185  -48.1225  -15.8588 C   0  0  0  0  0  0  0  0  0  0  0  0
    0.5376  -47.8182  -15.0926 C   0  0  0  0  0  0  0  0  0  0  0  0
    0.6965  -48.6631  -13.8602 C   0  0  0  0  0  0  0  0  0  0  0  0
    2.1985  -48.5397  -13.6012 C   0  0  0  0  0  0  0  0  0  0  0  0
    2.8023  -48.4997  -14.8967 N   0  0  0  0  0  0  0  0  0  0  0  0
    4.0239  -47.7500  -14.9622 C   0  0  0  0  0  0  0  0  0  0  0  0
    0.4769  -51.8328  -24.2726 N   0  0  0  0  0  0  0  0  0  0  0  0
   -0.0811  -51.1061  -24.8136 H   0  0  0  0  0  0  0  0  0  0  0  0
    1.8927  -51.6239  -24.3020 C   0  0  0  0  0  0  0  0  0  0  0  0
    2.7419  -52.7298  -24.4276 C   0  0  0  0  0  0  0  0  0  0  0  0
    4.1000  -52.5762  -24.4951 C   0  0  0  0  0  0  0  0  0  0  0  0
    4.6617  -51.3047  -24.4392 C   0  0  0  0  0  0  0  0  0  0  0  0
    6.0130  -51.1657  -24.5068 F   0  0  0  0  0  0  0  0  0  0  0  0
    3.8632  -50.1926  -24.3165 C   0  0  0  0  0  0  0  0  0  0  0  0
    4.5428  -48.5883  -24.2442 Cl  0  0  0  0  0  0  0  0  0  0  0  0
    2.4813  -50.4030  -24.2521 C   0  0  0  0  0  0  0  0  0  0  0  0
   -0.6388  -52.9123  -18.0715 O   0  0  0  0  0  0  0  0  0  0  0  0
   -1.7349  -51.7048  -16.2847 C   0  0  0  0  0  0  0  0  0  0  0  0
   -1.8096  -52.7946  -17.3303 C   0  0  0  0  0  0  0  0  0  0  0  0
 34 35  1  0  0  0
 35 33  1  0  0  0
 33  1  1  0  0  0
  1  2  2  0  0  0
  2  3  1  0  0  0
  3  4  2  0  0  0
  4  5  1  0  0  0
  5  6  2  0  0  0
  6  7  1  0  0  0
  7 23  1  0  0  0
 23 25  1  0  0  0
 25 26  2  0  0  0
 26 27  1  0  0  0
 27 28  2  0  0  0
 28 29  1  0  0  0
 28 30  1  0  0  0
 30 31  1  0  0  0
 30 32  2  0  0  0
  7  8  2  0  0  0
  8  9  1  0  0  0
  9 10  2  0  0  0
 10 11  1  0  0  0
 11 12  1  0  0  0
 12 13  2  0  0  0
 12 15  1  0  0  0
 15 16  2  0  0  0
 16 17  1  0  0  0
 17 18  1  0  0  0
 18 19  1  0  0  0
 19 20  1  0  0  0
 20 21  1  0  0  0
 21 22  1  0  0  0
 10  1  1  0  0  0
 21 17  1  0  0  0
  8  3  1  0  0  0
 32 25  1  0  0  0
 23 24  1  0  0  0
 11 14  1  0  0  0
M  END
> <minimizedAffinity>
-7.60163

> <CNNscore>
0.5511993766

> <CNNaffinity>
6.9593391418

> <CNN_VS>
3.8359835148

> <CNNaffinity_variance>
0.0974533558

$$$$
[H]/C(C(=O)N([H])c1c(OC([H])([H])C([H])([H])[H])c([H])c2nc([H])nc(N([H])c3c([H])c([H])c(F)c(Cl)c3[H])c2c1[H])=C(/[H])[C@]1([H])N(C([H])([H])[H])C([H])([H])C([H])([H])C1([H])[H]


 35 38  0  0  0  0  0  0  0  0999 V2000
    0.4965  -52.4718  -26.0895 C   0  0  0  0  0  0  0  0  0  0  0  0
   -0.3243  -53.4900  -25.6963 C   0  0  0  0  0  0  0  0  0  0  0  0
   -0.4647  -53.8396  -24.3643 C   0  0  0  0  0  0  0  0  0  0  0  0
   -1.2818  -54.8467  -23.9932 N   0  0  0  0  0  0  0  0  0  0  0  0
   -1.3941  -55.1574  -22.6840 C   0  0  0  0  0  0  0  0  0  0  0  0
   -0.7179  -54.4953  -21.7414 N   0  0  0  0  0  0  0  0  0  0  0  0
    0.1219  -53.4700  -22.0529 C   0  0  0  0  0  0  0  0  0  0  0  0
    0.2304  -53.1585  -23.3981 C   0  0  0  0  0  0  0  0  0  0  0  0
    1.0623  -52.1246  -23.8127 C   0  0  0  0  0  0  0  0  0  0  0  0
    1.2310  -51.7444  -25.1238 C   0  0  0  0  0  0  0  0  0  0  0  0
    2.0512  -50.7158  -25.6002 N   0  0  0  0  0  0  0  0  0  0  0  0
    3.4199  -50.5773  -25.3465 C   0  0  0  0  0  0  0  0  0  0  0  0
    4.0776  -51.3525  -24.6653 O   0  0  0  0  0  0  0  0  0  0  0  0
    1.5840  -49.9584  -26.2214 H   0  0  0  0  0  0  0  0  0  0  0  0
    4.1238  -49.4048  -25.9478 C   0  0  0  0  0  0  0  0  0  0  0  0
    3.6823  -48.8074  -27.0271 C   0  0  0  0  0  0  0  0  0  0  0  0
    4.3620  -47.6391  -27.6469 C   0  0  0  0  0  0  0  0  0  0  0  0
    3.2651  -46.7540  -28.2246 C   0  0  0  0  0  0  0  0  0  0  0  0
    2.9570  -45.8383  -27.0738 C   0  0  0  0  0  0  0  0  0  0  0  0
    4.3477  -45.6298  -26.4731 C   0  0  0  0  0  0  0  0  0  0  0  0
    5.0176  -46.8833  -26.6296 N   0  0  0  0  0  0  0  0  0  0  0  0
    6.4411  -46.7838  -26.7795 C   0  0  0  0  0  0  0  0  0  0  0  0
    0.8594  -52.8058  -21.0592 N   0  0  0  0  0  0  0  0  0  0  0  0
    1.1815  -53.2800  -20.1627 H   0  0  0  0  0  0  0  0  0  0  0  0
    1.2404  -51.4300  -21.1626 C   0  0  0  0  0  0  0  0  0  0  0  0
    0.3019  -50.4382  -20.8533 C   0  0  0  0  0  0  0  0  0  0  0  0
    0.6307  -49.1109  -20.9041 C   0  0  0  0  0  0  0  0  0  0  0  0
    1.9167  -48.7245  -21.2679 C   0  0  0  0  0  0  0  0  0  0  0  0
    2.2306  -47.4019  -21.3150 F   0  0  0  0  0  0  0  0  0  0  0  0
    2.8681  -49.6666  -21.5787 C   0  0  0  0  0  0  0  0  0  0  0  0
    4.4866  -49.2079  -22.0375 Cl  0  0  0  0  0  0  0  0  0  0  0  0
    2.4820  -51.0100  -21.5111 C   0  0  0  0  0  0  0  0  0  0  0  0
    0.6227  -52.1415  -27.4126 O   0  0  0  0  0  0  0  0  0  0  0  0
   -0.7090  -52.6952  -29.3548 C   0  0  0  0  0  0  0  0  0  0  0  0
    0.5109  -52.9877  -28.5105 C   0  0  0  0  0  0  0  0  0  0  0  0
 34 35  1  0  0  0
 35 33  1  0  0  0
 33  1  1  0  0  0
  1  2  2  0  0  0
  2  3  1  0  0  0
  3  4  2  0  0  0
  4  5  1  0  0  0
  5  6  2  0  0  0
  6  7  1  0  0  0
  7 23  1  0  0  0
 23 25  1  0  0  0
 25 26  2  0  0  0
 26 27  1  0  0  0
 27 28  2  0  0  0
 28 29  1  0  0  0
 28 30  1  0  0  0
 30 31  1  0  0  0
 30 32  2  0  0  0
  7  8  2  0  0  0
  8  9  1  0  0  0
  9 10  2  0  0  0
 10 11  1  0  0  0
 11 12  1  0  0  0
 12 13  2  0  0  0
 12 15  1  0  0  0
 15 16  2  0  0  0
 16 17  1  0  0  0
 17 18  1  0  0  0
 18 19  1  0  0  0
 19 20  1  0  0  0
 20 21  1  0  0  0
 21 22  1  0  0  0
 10  1  1  0  0  0
 21 17  1  0  0  0
  8  3  1  0  0  0
 32 25  1  0  0  0
 23 24  1  0  0  0
 11 14  1  0  0  0
M  END
> <minimizedAffinity>
-7.95596

> <CNNscore>
0.4607500732

> <CNNaffinity>
7.2397856712

> <CNN_VS>
3.3357317448

> <CNNaffinity_variance>
0.2018994540

$$$$
[H]/C(C(=O)N([H])c1c(OC([H])([H])C([H])([H])[H])c([H])c2nc([H])nc(N([H])c3c([H])c([H])c(F)c(Cl)c3[H])c2c1[H])=C(/[H])[C@]1([H])N(C([H])([H])[H])C([H])([H])C([H])([H])C1([H])[H]


 35 38  0  0  0  0  0  0  0  0999 V2000
    0.2579  -52.3434  -26.0128 C   0  0  0  0  0  0  0  0  0  0  0  0
   -0.4835  -53.4073  -25.5846 C   0  0  0  0  0  0  0  0  0  0  0  0
   -0.5380  -53.7671  -24.2490 C   0  0  0  0  0  0  0  0  0  0  0  0
   -1.2774  -54.8197  -23.8432 N   0  0  0  0  0  0  0  0  0  0  0  0
   -1.3073  -55.1390  -22.5315 C   0  0  0  0  0  0  0  0  0  0  0  0
   -0.6241  -54.4414  -21.6200 N   0  0  0  0  0  0  0  0  0  0  0  0
    0.1399  -53.3694  -21.9674 C   0  0  0  0  0  0  0  0  0  0  0  0
    0.1641  -53.0494  -23.3149 C   0  0  0  0  0  0  0  0  0  0  0  0
    0.9147  -51.9691  -23.7648 C   0  0  0  0  0  0  0  0  0  0  0  0
    0.9967  -51.5773  -25.0808 C   0  0  0  0  0  0  0  0  0  0  0  0
    1.7328  -50.5028  -25.5919 N   0  0  0  0  0  0  0  0  0  0  0  0
    3.1268  -50.4403  -25.6916 C   0  0  0  0  0  0  0  0  0  0  0  0
    3.8849  -51.3333  -25.3377 O   0  0  0  0  0  0  0  0  0  0  0  0
    1.1726  -49.6416  -25.9419 H   0  0  0  0  0  0  0  0  0  0  0  0
    3.7282  -49.2003  -26.2684 C   0  0  0  0  0  0  0  0  0  0  0  0
    3.8960  -49.0442  -27.5585 C   0  0  0  0  0  0  0  0  0  0  0  0
    4.4913  -47.8216  -28.1599 C   0  0  0  0  0  0  0  0  0  0  0  0
    5.9609  -48.1327  -28.4126 C   0  0  0  0  0  0  0  0  0  0  0  0
    5.9328  -48.6858  -29.8094 C   0  0  0  0  0  0  0  0  0  0  0  0
    4.8573  -47.8133  -30.4580 C   0  0  0  0  0  0  0  0  0  0  0  0
    3.8893  -47.5828  -29.4313 N   0  0  0  0  0  0  0  0  0  0  0  0
    3.1914  -46.3338  -29.5394 C   0  0  0  0  0  0  0  0  0  0  0  0
    0.8866  -52.6664  -21.0080 N   0  0  0  0  0  0  0  0  0  0  0  0
    1.9044  -52.3919  -21.1533 H   0  0  0  0  0  0  0  0  0  0  0  0
    0.3456  -52.2595  -19.7468 C   0  0  0  0  0  0  0  0  0  0  0  0
   -0.5635  -53.0996  -19.0927 C   0  0  0  0  0  0  0  0  0  0  0  0
   -1.0802  -52.7689  -17.8695 C   0  0  0  0  0  0  0  0  0  0  0  0
   -0.7049  -51.5800  -17.2522 C   0  0  0  0  0  0  0  0  0  0  0  0
   -1.2262  -51.2628  -16.0366 F   0  0  0  0  0  0  0  0  0  0  0  0
    0.1854  -50.7274  -17.8602 C   0  0  0  0  0  0  0  0  0  0  0  0
    0.6715  -49.2316  -17.1073 Cl  0  0  0  0  0  0  0  0  0  0  0  0
    0.6852  -51.1114  -19.1097 C   0  0  0  0  0  0  0  0  0  0  0  0
    0.2999  -52.0037  -27.3388 O   0  0  0  0  0  0  0  0  0  0  0  0
   -0.7341  -52.7536  -29.3933 C   0  0  0  0  0  0  0  0  0  0  0  0
    0.4250  -52.8593  -28.4280 C   0  0  0  0  0  0  0  0  0  0  0  0
 34 35  1  0  0  0
 35 33  1  0  0  0
 33  1  1  0  0  0
  1  2  2  0  0  0
  2  3  1  0  0  0
  3  4  2  0  0  0
  4  5  1  0  0  0
  5  6  2  0  0  0
  6  7  1  0  0  0
  7 23  1  0  0  0
 23 25  1  0  0  0
 25 26  2  0  0  0
 26 27  1  0  0  0
 27 28  2  0  0  0
 28 29  1  0  0  0
 28 30  1  0  0  0
 30 31  1  0  0  0
 30 32  2  0  0  0
  7  8  2  0  0  0
  8  9  1  0  0  0
  9 10  2  0  0  0
 10 11  1  0  0  0
 11 12  1  0  0  0
 12 13  2  0  0  0
 12 15  1  0  0  0
 15 16  2  0  0  0
 16 17  1  0  0  0
 17 18  1  0  0  0
 18 19  1  0  0  0
 19 20  1  0  0  0
 20 21  1  0  0  0
 21 22  1  0  0  0
 10  1  1  0  0  0
 21 17  1  0  0  0
  8  3  1  0  0  0
 32 25  1  0  0  0
 23 24  1  0  0  0
 11 14  1  0  0  0
M  END
> <minimizedAffinity>
-8.54527

> <CNNscore>
0.4536275864

> <CNNaffinity>
7.1746964455

> <CNN_VS>
3.2546403408

> <CNNaffinity_variance>
0.0577758178

$$$$
[H]/C(C(=O)N([H])c1c(OC([H])([H])C([H])([H])[H])c([H])c2nc([H])nc(N([H])c3c([H])c([H])c(F)c(Cl)c3[H])c2c1[H])=C(/[H])[C@]1([H])N(C([H])([H])[H])C([H])([H])C([H])([H])C1([H])[H]


 35 38  0  0  0  0  0  0  0  0999 V2000
    0.0844  -52.3940  -25.6106 C   0  0  0  0  0  0  0  0  0  0  0  0
   -0.6034  -53.3601  -24.9335 C   0  0  0  0  0  0  0  0  0  0  0  0
   -0.4472  -53.5460  -23.5707 C   0  0  0  0  0  0  0  0  0  0  0  0
   -1.1365  -54.5038  -22.9172 N   0  0  0  0  0  0  0  0  0  0  0  0
   -0.9589  -54.6538  -21.5870 C   0  0  0  0  0  0  0  0  0  0  0  0
   -0.1180  -53.8796  -20.8960 N   0  0  0  0  0  0  0  0  0  0  0  0
    0.6056  -52.8964  -21.4988 C   0  0  0  0  0  0  0  0  0  0  0  0
    0.4166  -52.7500  -22.8631 C   0  0  0  0  0  0  0  0  0  0  0  0
    1.1103  -51.7708  -23.5652 C   0  0  0  0  0  0  0  0  0  0  0  0
    0.9853  -51.5518  -24.9174 C   0  0  0  0  0  0  0  0  0  0  0  0
    1.6545  -50.5855  -25.6762 N   0  0  0  0  0  0  0  0  0  0  0  0
    3.0280  -50.5605  -25.9409 C   0  0  0  0  0  0  0  0  0  0  0  0
    3.8247  -51.3954  -25.5338 O   0  0  0  0  0  0  0  0  0  0  0  0
    1.0550  -49.7844  -26.0965 H   0  0  0  0  0  0  0  0  0  0  0  0
    3.5553  -49.4396  -26.7760 C   0  0  0  0  0  0  0  0  0  0  0  0
    3.1294  -48.2084  -26.6361 C   0  0  0  0  0  0  0  0  0  0  0  0
    3.6362  -47.0739  -27.4528 C   0  0  0  0  0  0  0  0  0  0  0  0
    2.5374  -46.0190  -27.4609 C   0  0  0  0  0  0  0  0  0  0  0  0
    2.8900  -45.1841  -26.2624 C   0  0  0  0  0  0  0  0  0  0  0  0
    4.4177  -45.1933  -26.3269 C   0  0  0  0  0  0  0  0  0  0  0  0
    4.7671  -46.4956  -26.8027 N   0  0  0  0  0  0  0  0  0  0  0  0
    5.9852  -46.5472  -27.5590 C   0  0  0  0  0  0  0  0  0  0  0  0
    1.5172  -52.1137  -20.7716 N   0  0  0  0  0  0  0  0  0  0  0  0
    2.5475  -52.0374  -21.0266 H   0  0  0  0  0  0  0  0  0  0  0  0
    1.1419  -51.3515  -19.6196 C   0  0  0  0  0  0  0  0  0  0  0  0
    1.6978  -50.0802  -19.4333 C   0  0  0  0  0  0  0  0  0  0  0  0
    1.3428  -49.3011  -18.3659 C   0  0  0  0  0  0  0  0  0  0  0  0
    0.4140  -49.7670  -17.4408 C   0  0  0  0  0  0  0  0  0  0  0  0
    0.0701  -48.9829  -16.3839 F   0  0  0  0  0  0  0  0  0  0  0  0
   -0.1558  -51.0092  -17.5872 C   0  0  0  0  0  0  0  0  0  0  0  0
   -1.3221  -51.6158  -16.4416 Cl  0  0  0  0  0  0  0  0  0  0  0  0
    0.2401  -51.7664  -18.6954 C   0  0  0  0  0  0  0  0  0  0  0  0
   -0.0831  -52.2261  -26.9595 O   0  0  0  0  0  0  0  0  0  0  0  0
   -0.6270  -52.6828  -29.2720 C   0  0  0  0  0  0  0  0  0  0  0  0
   -0.1801  -53.2174  -27.9300 C   0  0  0  0  0  0  0  0  0  0  0  0
 34 35  1  0  0  0
 35 33  1  0  0  0
 33  1  1  0  0  0
  1  2  2  0  0  0
  2  3  1  0  0  0
  3  4  2  0  0  0
  4  5  1  0  0  0
  5  6  2  0  0  0
  6  7  1  0  0  0
  7 23  1  0  0  0
 23 25  1  0  0  0
 25 26  2  0  0  0
 26 27  1  0  0  0
 27 28  2  0  0  0
 28 29  1  0  0  0
 28 30  1  0  0  0
 30 31  1  0  0  0
 30 32  2  0  0  0
  7  8  2  0  0  0
  8  9  1  0  0  0
  9 10  2  0  0  0
 10 11  1  0  0  0
 11 12  1  0  0  0
 12 13  2  0  0  0
 12 15  1  0  0  0
 15 16  2  0  0  0
 16 17  1  0  0  0
 17 18  1  0  0  0
 18 19  1  0  0  0
 19 20  1  0  0  0
 20 21  1  0  0  0
 21 22  1  0  0  0
 10  1  1  0  0  0
 21 17  1  0  0  0
  8  3  1  0  0  0
 32 25  1  0  0  0
 23 24  1  0  0  0
 11 14  1  0  0  0
M  END
> <minimizedAffinity>
-7.96097

> <CNNscore>
0.4062059522

> <CNNaffinity>
7.1652884483

> <CNN_VS>
2.9105827808

> <CNNaffinity_variance>
0.2192486823

$$$$
[H]/C(C(=O)N([H])c1nc([H])c2nc([H])nc(N([H])c3c([H])c([H])c([H])c(Br)c3[H])c2c1[H])=C(/[H])C(=O)N([H])C([H])([H])C([H])([H])C([H])([H])N(C([H])([H])C([H])([H])[H])C([H])([H])C([H])([H])[H]


 37 39  0  0  0  0  0  0  0  0999 V2000
    0.9889  -51.4047  -20.1321 C   0  0  0  0  0  0  0  0  0  0  0  0
    0.9807  -51.8113  -21.4715 C   0  0  0  0  0  0  0  0  0  0  0  0
    0.1977  -52.8582  -21.9113 C   0  0  0  0  0  0  0  0  0  0  0  0
    0.1580  -53.2835  -23.2286 C   0  0  0  0  0  0  0  0  0  0  0  0
   -0.6564  -54.3136  -23.5122 N   0  0  0  0  0  0  0  0  0  0  0  0
   -1.4289  -54.9483  -22.5947 C   0  0  0  0  0  0  0  0  0  0  0  0
   -1.3588  -54.5026  -21.3338 N   0  0  0  0  0  0  0  0  0  0  0  0
   -0.5717  -53.4729  -20.9385 C   0  0  0  0  0  0  0  0  0  0  0  0
   -0.5432  -53.0536  -19.6274 C   0  0  0  0  0  0  0  0  0  0  0  0
    0.2282  -52.0307  -19.2325 N   0  0  0  0  0  0  0  0  0  0  0  0
    1.5505  -49.0142  -20.2010 C   0  0  0  0  0  0  0  0  0  0  0  0
    0.5887  -48.8240  -21.0221 O   0  0  0  0  0  0  0  0  0  0  0  0
    1.7926  -50.2867  -19.7024 N   0  0  0  0  0  0  0  0  0  0  0  0
    2.5497  -50.5063  -19.0386 H   0  0  0  0  0  0  0  0  0  0  0  0
    3.6367  -47.7560  -19.9905 C   0  0  0  0  0  0  0  0  0  0  0  0
    2.3385  -47.8571  -19.8423 C   0  0  0  0  0  0  0  0  0  0  0  0
    3.6850  -45.5043  -18.9692 N   0  0  0  0  0  0  0  0  0  0  0  0
    4.3834  -46.5320  -19.6000 C   0  0  0  0  0  0  0  0  0  0  0  0
    5.5803  -46.5147  -19.8602 O   0  0  0  0  0  0  0  0  0  0  0  0
    2.6076  -45.7059  -18.8023 H   0  0  0  0  0  0  0  0  0  0  0  0
    4.1742  -44.2606  -18.5284 C   0  0  0  0  0  0  0  0  0  0  0  0
    3.4295  -43.4927  -17.5135 C   0  0  0  0  0  0  0  0  0  0  0  0
    2.9726  -44.1193  -16.2721 C   0  0  0  0  0  0  0  0  0  0  0  0
    1.9282  -43.3324  -15.5817 N   0  0  0  0  0  0  0  0  0  0  0  0
    1.4116  -44.3692  -13.3849 C   0  0  0  0  0  0  0  0  0  0  0  0
    2.3405  -43.5155  -14.1556 C   0  0  0  0  0  0  0  0  0  0  0  0
    0.5959  -43.8060  -15.7203 C   0  0  0  0  0  0  0  0  0  0  0  0
   -0.2233  -42.9219  -16.6115 C   0  0  0  0  0  0  0  0  0  0  0  0
    0.9108  -52.6033  -24.2050 N   0  0  0  0  0  0  0  0  0  0  0  0
    1.7225  -51.9953  -23.9044 H   0  0  0  0  0  0  0  0  0  0  0  0
    0.6308  -52.6831  -25.5935 C   0  0  0  0  0  0  0  0  0  0  0  0
    1.6876  -52.9511  -26.4789 C   0  0  0  0  0  0  0  0  0  0  0  0
    1.4152  -53.0630  -27.8355 C   0  0  0  0  0  0  0  0  0  0  0  0
    0.1578  -52.9237  -28.3446 C   0  0  0  0  0  0  0  0  0  0  0  0
   -0.8766  -52.6615  -27.4774 C   0  0  0  0  0  0  0  0  0  0  0  0
   -2.6319  -52.4543  -28.1912 Br  0  0  0  0  0  0  0  0  0  0  0  0
   -0.6075  -52.5483  -26.1125 C   0  0  0  0  0  0  0  0  0  0  0  0
 25 26  1  0  0  0
 26 24  1  0  0  0
 24 27  1  0  0  0
 27 28  1  0  0  0
 24 23  1  0  0  0
 23 22  1  0  0  0
 22 21  1  0  0  0
 21 17  1  0  0  0
 17 18  1  0  0  0
 18 19  2  0  0  0
 18 15  1  0  0  0
 15 16  2  0  0  0
 16 11  1  0  0  0
 11 12  2  0  0  0
 11 13  1  0  0  0
 13  1  1  0  0  0
  1  2  2  0  0  0
  2  3  1  0  0  0
  3  4  2  0  0  0
  4 29  1  0  0  0
 29 31  1  0  0  0
 31 32  2  0  0  0
 32 33  1  0  0  0
 33 34  2  0  0  0
 34 35  1  0  0  0
 35 36  1  0  0  0
 35 37  2  0  0  0
  4  5  1  0  0  0
  5  6  2  0  0  0
  6  7  1  0  0  0
  7  8  2  0  0  0
  8  9  1  0  0  0
  9 10  2  0  0  0
 10  1  1  0  0  0
  8  3  1  0  0  0
 37 31  1  0  0  0
 17 20  1  0  0  0
 13 14  1  0  0  0
 29 30  1  0  0  0
M  END
> <minimizedAffinity>
-6.19172

> <CNNscore>
0.8172458410

> <CNNaffinity>
6.8725233078

> <CNN_VS>
5.6165409088

> <CNNaffinity_variance>
0.2848733962

$$$$
[H]/C(C(=O)N([H])c1nc([H])c2nc([H])nc(N([H])c3c([H])c([H])c([H])c(Br)c3[H])c2c1[H])=C(/[H])C(=O)N([H])C([H])([H])C([H])([H])C([H])([H])N(C([H])([H])C([H])([H])[H])C([H])([H])C([H])([H])[H]


 37 39  0  0  0  0  0  0  0  0999 V2000
    0.8938  -51.3922  -20.2057 C   0  0  0  0  0  0  0  0  0  0  0  0
    0.8934  -51.7867  -21.5487 C   0  0  0  0  0  0  0  0  0  0  0  0
    0.1468  -52.8575  -21.9943 C   0  0  0  0  0  0  0  0  0  0  0  0
    0.1158  -53.2721  -23.3152 C   0  0  0  0  0  0  0  0  0  0  0  0
   -0.6620  -54.3287  -23.6043 N   0  0  0  0  0  0  0  0  0  0  0  0
   -1.4062  -54.9993  -22.6888 C   0  0  0  0  0  0  0  0  0  0  0  0
   -1.3458  -54.5627  -21.4243 N   0  0  0  0  0  0  0  0  0  0  0  0
   -0.5947  -53.5085  -21.0234 C   0  0  0  0  0  0  0  0  0  0  0  0
   -0.5747  -53.1003  -19.7087 C   0  0  0  0  0  0  0  0  0  0  0  0
    0.1610  -52.0535  -19.3082 N   0  0  0  0  0  0  0  0  0  0  0  0
    2.9337  -50.4149  -19.2477 C   0  0  0  0  0  0  0  0  0  0  0  0
    3.4486  -51.5836  -19.1817 O   0  0  0  0  0  0  0  0  0  0  0  0
    1.6584  -50.2495  -19.7697 N   0  0  0  0  0  0  0  0  0  0  0  0
    1.1878  -49.3363  -19.8511 H   0  0  0  0  0  0  0  0  0  0  0  0
    4.8975  -48.9577  -19.2562 C   0  0  0  0  0  0  0  0  0  0  0  0
    3.7404  -49.3198  -18.7589 C   0  0  0  0  0  0  0  0  0  0  0  0
    5.4509  -47.4479  -17.3774 N   0  0  0  0  0  0  0  0  0  0  0  0
    5.6734  -47.8177  -18.7024 C   0  0  0  0  0  0  0  0  0  0  0  0
    6.4699  -47.2780  -19.4605 O   0  0  0  0  0  0  0  0  0  0  0  0
    4.7016  -48.0639  -16.8403 H   0  0  0  0  0  0  0  0  0  0  0  0
    6.0509  -46.4019  -16.6519 C   0  0  0  0  0  0  0  0  0  0  0  0
    5.2113  -45.4340  -15.9223 C   0  0  0  0  0  0  0  0  0  0  0  0
    3.8216  -45.7410  -15.5804 C   0  0  0  0  0  0  0  0  0  0  0  0
    3.6656  -47.0664  -14.9436 N   0  0  0  0  0  0  0  0  0  0  0  0
    1.7081  -48.2745  -15.8797 C   0  0  0  0  0  0  0  0  0  0  0  0
    2.1770  -47.2111  -14.9658 C   0  0  0  0  0  0  0  0  0  0  0  0
    4.0987  -47.1653  -13.5941 C   0  0  0  0  0  0  0  0  0  0  0  0
    4.9149  -48.4000  -13.3566 C   0  0  0  0  0  0  0  0  0  0  0  0
    0.8382  -52.5563  -24.2890 N   0  0  0  0  0  0  0  0  0  0  0  0
    1.6030  -51.8921  -23.9841 H   0  0  0  0  0  0  0  0  0  0  0  0
    0.5873  -52.6722  -25.6804 C   0  0  0  0  0  0  0  0  0  0  0  0
    1.6584  -52.9833  -26.5339 C   0  0  0  0  0  0  0  0  0  0  0  0
    1.4138  -53.1305  -27.8925 C   0  0  0  0  0  0  0  0  0  0  0  0
    0.1703  -52.9857  -28.4333 C   0  0  0  0  0  0  0  0  0  0  0  0
   -0.8781  -52.6814  -27.5973 C   0  0  0  0  0  0  0  0  0  0  0  0
   -2.6137  -52.4667  -28.3558 Br  0  0  0  0  0  0  0  0  0  0  0  0
   -0.6370  -52.5326  -26.2306 C   0  0  0  0  0  0  0  0  0  0  0  0
 25 26  1  0  0  0
 26 24  1  0  0  0
 24 27  1  0  0  0
 27 28  1  0  0  0
 24 23  1  0  0  0
 23 22  1  0  0  0
 22 21  1  0  0  0
 21 17  1  0  0  0
 17 18  1  0  0  0
 18 19  2  0  0  0
 18 15  1  0  0  0
 15 16  2  0  0  0
 16 11  1  0  0  0
 11 12  2  0  0  0
 11 13  1  0  0  0
 13  1  1  0  0  0
  1  2  2  0  0  0
  2  3  1  0  0  0
  3  4  2  0  0  0
  4 29  1  0  0  0
 29 31  1  0  0  0
 31 32  2  0  0  0
 32 33  1  0  0  0
 33 34  2  0  0  0
 34 35  1  0  0  0
 35 36  1  0  0  0
 35 37  2  0  0  0
  4  5  1  0  0  0
  5  6  2  0  0  0
  6  7  1  0  0  0
  7  8  2  0  0  0
  8  9  1  0  0  0
  9 10  2  0  0  0
 10  1  1  0  0  0
  8  3  1  0  0  0
 37 31  1  0  0  0
 17 20  1  0  0  0
 13 14  1  0  0  0
 29 30  1  0  0  0
M  END
> <minimizedAffinity>
-6.45566

> <CNNscore>
0.7399073839

> <CNNaffinity>
7.0643882751

> <CNN_VS>
5.2269930840

> <CNNaffinity_variance>
0.3638376594

$$$$
[H]/C(C(=O)N([H])c1nc([H])c2nc([H])nc(N([H])c3c([H])c([H])c([H])c(Br)c3[H])c2c1[H])=C(/[H])C(=O)N([H])C([H])([H])C([H])([H])C([H])([H])N(C([H])([H])C([H])([H])[H])C([H])([H])C([H])([H])[H]


 37 39  0  0  0  0  0  0  0  0999 V2000
    1.1957  -51.8506  -20.1117 C   0  0  0  0  0  0  0  0  0  0  0  0
    1.1361  -52.2376  -21.4556 C   0  0  0  0  0  0  0  0  0  0  0  0
    0.1971  -53.1376  -21.9146 C   0  0  0  0  0  0  0  0  0  0  0  0
    0.1031  -53.5381  -23.2369 C   0  0  0  0  0  0  0  0  0  0  0  0
   -0.8659  -54.4179  -23.5399 N   0  0  0  0  0  0  0  0  0  0  0  0
   -1.7425  -54.9258  -22.6371 C   0  0  0  0  0  0  0  0  0  0  0  0
   -1.6145  -54.5097  -21.3707 N   0  0  0  0  0  0  0  0  0  0  0  0
   -0.6737  -53.6269  -20.9562 C   0  0  0  0  0  0  0  0  0  0  0  0
   -0.5917  -53.2304  -19.6403 C   0  0  0  0  0  0  0  0  0  0  0  0
    0.3324  -52.3517  -19.2265 N   0  0  0  0  0  0  0  0  0  0  0  0
    2.0438  -49.5472  -20.0149 C   0  0  0  0  0  0  0  0  0  0  0  0
    1.0462  -49.1628  -20.7167 O   0  0  0  0  0  0  0  0  0  0  0  0
    2.1669  -50.8837  -19.6618 N   0  0  0  0  0  0  0  0  0  0  0  0
    2.9450  -51.2571  -19.0984 H   0  0  0  0  0  0  0  0  0  0  0  0
    2.7110  -47.2717  -19.4176 C   0  0  0  0  0  0  0  0  0  0  0  0
    2.9984  -48.5325  -19.6302 C   0  0  0  0  0  0  0  0  0  0  0  0
    4.9195  -46.2164  -19.7709 N   0  0  0  0  0  0  0  0  0  0  0  0
    3.7461  -46.2815  -19.0220 C   0  0  0  0  0  0  0  0  0  0  0  0
    3.4885  -45.5779  -18.0530 O   0  0  0  0  0  0  0  0  0  0  0  0
    4.9686  -46.9227  -20.6242 H   0  0  0  0  0  0  0  0  0  0  0  0
    6.0327  -45.3779  -19.5756 C   0  0  0  0  0  0  0  0  0  0  0  0
    7.3471  -45.7567  -20.1261 C   0  0  0  0  0  0  0  0  0  0  0  0
    7.4593  -46.4772  -21.3953 C   0  0  0  0  0  0  0  0  0  0  0  0
    7.1102  -47.9092  -21.2761 N   0  0  0  0  0  0  0  0  0  0  0  0
    8.9665  -48.2425  -22.8918 C   0  0  0  0  0  0  0  0  0  0  0  0
    8.4390  -48.5416  -21.5435 C   0  0  0  0  0  0  0  0  0  0  0  0
    6.1839  -48.4074  -22.2312 C   0  0  0  0  0  0  0  0  0  0  0  0
    5.6709  -49.7657  -21.8588 C   0  0  0  0  0  0  0  0  0  0  0  0
    0.9683  -52.9814  -24.1983 N   0  0  0  0  0  0  0  0  0  0  0  0
    1.8963  -52.5781  -23.8901 H   0  0  0  0  0  0  0  0  0  0  0  0
    0.6553  -52.9232  -25.5808 C   0  0  0  0  0  0  0  0  0  0  0  0
    1.6862  -53.1234  -26.5134 C   0  0  0  0  0  0  0  0  0  0  0  0
    1.3808  -53.1003  -27.8674 C   0  0  0  0  0  0  0  0  0  0  0  0
    0.1151  -52.8914  -28.3299 C   0  0  0  0  0  0  0  0  0  0  0  0
   -0.8940  -52.6956  -27.4166 C   0  0  0  0  0  0  0  0  0  0  0  0
   -2.6608  -52.3910  -28.0640 Br  0  0  0  0  0  0  0  0  0  0  0  0
   -0.5917  -52.7181  -26.0541 C   0  0  0  0  0  0  0  0  0  0  0  0
 25 26  1  0  0  0
 26 24  1  0  0  0
 24 27  1  0  0  0
 27 28  1  0  0  0
 24 23  1  0  0  0
 23 22  1  0  0  0
 22 21  1  0  0  0
 21 17  1  0  0  0
 17 18  1  0  0  0
 18 19  2  0  0  0
 18 15  1  0  0  0
 15 16  2  0  0  0
 16 11  1  0  0  0
 11 12  2  0  0  0
 11 13  1  0  0  0
 13  1  1  0  0  0
  1  2  2  0  0  0
  2  3  1  0  0  0
  3  4  2  0  0  0
  4 29  1  0  0  0
 29 31  1  0  0  0
 31 32  2  0  0  0
 32 33  1  0  0  0
 33 34  2  0  0  0
 34 35  1  0  0  0
 35 36  1  0  0  0
 35 37  2  0  0  0
  4  5  1  0  0  0
  5  6  2  0  0  0
  6  7  1  0  0  0
  7  8  2  0  0  0
  8  9  1  0  0  0
  9 10  2  0  0  0
 10  1  1  0  0  0
  8  3  1  0  0  0
 37 31  1  0  0  0
 17 20  1  0  0  0
 13 14  1  0  0  0
 29 30  1  0  0  0
M  END
> <minimizedAffinity>
-6.11774

> <CNNscore>
0.6993451715

> <CNNaffinity>
7.1619925499

> <CNN_VS>
5.0087051392

> <CNNaffinity_variance>
0.2034191340

$$$$
[H]/C(C(=O)N([H])c1nc([H])c2nc([H])nc(N([H])c3c([H])c([H])c([H])c(Br)c3[H])c2c1[H])=C(/[H])C(=O)N([H])C([H])([H])C([H])([H])C([H])([H])N(C([H])([H])C([H])([H])[H])C([H])([H])C([H])([H])[H]


 37 39  0  0  0  0  0  0  0  0999 V2000
    1.4093  -51.5146  -20.3963 C   0  0  0  0  0  0  0  0  0  0  0  0
    1.2345  -51.8375  -21.7470 C   0  0  0  0  0  0  0  0  0  0  0  0
    0.4155  -52.8716  -22.1497 C   0  0  0  0  0  0  0  0  0  0  0  0
    0.2125  -53.2153  -23.4758 C   0  0  0  0  0  0  0  0  0  0  0  0
   -0.6179  -54.2431  -23.7188 N   0  0  0  0  0  0  0  0  0  0  0  0
   -1.2577  -54.9497  -22.7530 C   0  0  0  0  0  0  0  0  0  0  0  0
   -1.0320  -54.5815  -21.4853 N   0  0  0  0  0  0  0  0  0  0  0  0
   -0.2144  -53.5617  -21.1282 C   0  0  0  0  0  0  0  0  0  0  0  0
   -0.0233  -53.2239  -19.8073 C   0  0  0  0  0  0  0  0  0  0  0  0
    0.7788  -52.2111  -19.4491 N   0  0  0  0  0  0  0  0  0  0  0  0
    3.6269  -50.4951  -20.1182 C   0  0  0  0  0  0  0  0  0  0  0  0
    4.1600  -51.5491  -20.6083 O   0  0  0  0  0  0  0  0  0  0  0  0
    2.2466  -50.4084  -20.0016 N   0  0  0  0  0  0  0  0  0  0  0  0
    1.7556  -49.5882  -19.6165 H   0  0  0  0  0  0  0  0  0  0  0  0
    5.6430  -49.1257  -20.3187 C   0  0  0  0  0  0  0  0  0  0  0  0
    4.5267  -49.4409  -19.7087 C   0  0  0  0  0  0  0  0  0  0  0  0
    7.1290  -48.1589  -18.5945 N   0  0  0  0  0  0  0  0  0  0  0  0
    6.5207  -48.0258  -19.8412 C   0  0  0  0  0  0  0  0  0  0  0  0
    6.6534  -47.0666  -20.5914 O   0  0  0  0  0  0  0  0  0  0  0  0
    6.9038  -49.1060  -18.0639 H   0  0  0  0  0  0  0  0  0  0  0  0
    7.9784  -47.2493  -17.9376 C   0  0  0  0  0  0  0  0  0  0  0  0
    7.4182  -46.0383  -17.3099 C   0  0  0  0  0  0  0  0  0  0  0  0
    6.0205  -45.9843  -16.8787 C   0  0  0  0  0  0  0  0  0  0  0  0
    5.3600  -44.7083  -17.2282 N   0  0  0  0  0  0  0  0  0  0  0  0
    4.6140  -45.5259  -15.0050 C   0  0  0  0  0  0  0  0  0  0  0  0
    4.6953  -44.3756  -15.9302 C   0  0  0  0  0  0  0  0  0  0  0  0
    4.3574  -44.7790  -18.2323 C   0  0  0  0  0  0  0  0  0  0  0  0
    3.2211  -43.8411  -17.9566 C   0  0  0  0  0  0  0  0  0  0  0  0
    0.8245  -52.4601  -24.4944 N   0  0  0  0  0  0  0  0  0  0  0  0
    1.5244  -51.7103  -24.2357 H   0  0  0  0  0  0  0  0  0  0  0  0
    0.5434  -52.6467  -25.8724 C   0  0  0  0  0  0  0  0  0  0  0  0
    1.5961  -53.0004  -26.7322 C   0  0  0  0  0  0  0  0  0  0  0  0
    1.3220  -53.2165  -28.0759 C   0  0  0  0  0  0  0  0  0  0  0  0
    0.0668  -53.0999  -28.5960 C   0  0  0  0  0  0  0  0  0  0  0  0
   -0.9636  -52.7538  -27.7538 C   0  0  0  0  0  0  0  0  0  0  0  0
   -2.7156  -52.5785  -28.4839 Br  0  0  0  0  0  0  0  0  0  0  0  0
   -0.6928  -52.5356  -26.4020 C   0  0  0  0  0  0  0  0  0  0  0  0
 25 26  1  0  0  0
 26 24  1  0  0  0
 24 27  1  0  0  0
 27 28  1  0  0  0
 24 23  1  0  0  0
 23 22  1  0  0  0
 22 21  1  0  0  0
 21 17  1  0  0  0
 17 18  1  0  0  0
 18 19  2  0  0  0
 18 15  1  0  0  0
 15 16  2  0  0  0
 16 11  1  0  0  0
 11 12  2  0  0  0
 11 13  1  0  0  0
 13  1  1  0  0  0
  1  2  2  0  0  0
  2  3  1  0  0  0
  3  4  2  0  0  0
  4 29  1  0  0  0
 29 31  1  0  0  0
 31 32  2  0  0  0
 32 33  1  0  0  0
 33 34  2  0  0  0
 34 35  1  0  0  0
 35 36  1  0  0  0
 35 37  2  0  0  0
  4  5  1  0  0  0
  5  6  2  0  0  0
  6  7  1  0  0  0
  7  8  2  0  0  0
  8  9  1  0  0  0
  9 10  2  0  0  0
 10  1  1  0  0  0
  8  3  1  0  0  0
 37 31  1  0  0  0
 17 20  1  0  0  0
 13 14  1  0  0  0
 29 30  1  0  0  0
M  END
> <minimizedAffinity>
-6.12318

> <CNNscore>
0.6690442562

> <CNNaffinity>
7.0489320755

> <CNN_VS>
4.7160472870

> <CNNaffinity_variance>
0.5808905959

$$$$
[H]/C(C(=O)N([H])c1nc([H])c2nc([H])nc(N([H])c3c([H])c([H])c([H])c(Br)c3[H])c2c1[H])=C(/[H])C(=O)N([H])C([H])([H])C([H])([H])C([H])([H])N(C([H])([H])C([H])([H])[H])C([H])([H])C([H])([H])[H]


 37 39  0  0  0  0  0  0  0  0999 V2000
    0.8066  -51.5575  -20.3336 C   0  0  0  0  0  0  0  0  0  0  0  0
    0.8319  -51.9646  -21.6726 C   0  0  0  0  0  0  0  0  0  0  0  0
    0.0504  -53.0033  -22.1341 C   0  0  0  0  0  0  0  0  0  0  0  0
    0.0433  -53.4288  -23.4519 C   0  0  0  0  0  0  0  0  0  0  0  0
   -0.7738  -54.4503  -23.7582 N   0  0  0  0  0  0  0  0  0  0  0  0
   -1.5787  -55.0762  -22.8627 C   0  0  0  0  0  0  0  0  0  0  0  0
   -1.5394  -54.6307  -21.6004 N   0  0  0  0  0  0  0  0  0  0  0  0
   -0.7527  -53.6092  -21.1832 C   0  0  0  0  0  0  0  0  0  0  0  0
   -0.7567  -53.1896  -19.8720 C   0  0  0  0  0  0  0  0  0  0  0  0
    0.0141  -52.1749  -19.4557 N   0  0  0  0  0  0  0  0  0  0  0  0
    1.2952  -49.7868  -18.7026 C   0  0  0  0  0  0  0  0  0  0  0  0
    0.3066  -50.1825  -17.9944 O   0  0  0  0  0  0  0  0  0  0  0  0
    1.6098  -50.4480  -19.8816 N   0  0  0  0  0  0  0  0  0  0  0  0
    2.3926  -50.1801  -20.4962 H   0  0  0  0  0  0  0  0  0  0  0  0
    2.6295  -48.5829  -17.0442 C   0  0  0  0  0  0  0  0  0  0  0  0
    2.0336  -48.6464  -18.2097 C   0  0  0  0  0  0  0  0  0  0  0  0
    3.0117  -46.1414  -17.1399 N   0  0  0  0  0  0  0  0  0  0  0  0
    3.3741  -47.3751  -16.6026 C   0  0  0  0  0  0  0  0  0  0  0  0
    4.2650  -47.5515  -15.7806 O   0  0  0  0  0  0  0  0  0  0  0  0
    2.1691  -46.1752  -17.8598 H   0  0  0  0  0  0  0  0  0  0  0  0
    3.5791  -44.8792  -16.8849 C   0  0  0  0  0  0  0  0  0  0  0  0
    4.2118  -44.1201  -17.9793 C   0  0  0  0  0  0  0  0  0  0  0  0
    3.8035  -44.3131  -19.3717 C   0  0  0  0  0  0  0  0  0  0  0  0
    4.9023  -44.8057  -20.2299 N   0  0  0  0  0  0  0  0  0  0  0  0
    4.3281  -44.3463  -22.6020 C   0  0  0  0  0  0  0  0  0  0  0  0
    4.1364  -45.2391  -21.4393 C   0  0  0  0  0  0  0  0  0  0  0  0
    5.6233  -45.9270  -19.7387 C   0  0  0  0  0  0  0  0  0  0  0  0
    4.9477  -47.2209  -20.0797 C   0  0  0  0  0  0  0  0  0  0  0  0
    0.8305  -52.7573  -24.4068 N   0  0  0  0  0  0  0  0  0  0  0  0
    1.6601  -52.1847  -24.0858 H   0  0  0  0  0  0  0  0  0  0  0  0
    0.5633  -52.8000  -25.7994 C   0  0  0  0  0  0  0  0  0  0  0  0
    1.6307  -53.0295  -26.6829 C   0  0  0  0  0  0  0  0  0  0  0  0
    1.3711  -53.1051  -28.0446 C   0  0  0  0  0  0  0  0  0  0  0  0
    0.1164  -52.9662  -28.5605 C   0  0  0  0  0  0  0  0  0  0  0  0
   -0.9284  -52.7417  -27.6951 C   0  0  0  0  0  0  0  0  0  0  0  0
   -2.6800  -52.5350  -28.4179 Br  0  0  0  0  0  0  0  0  0  0  0  0
   -0.6722  -52.6651  -26.3252 C   0  0  0  0  0  0  0  0  0  0  0  0
 25 26  1  0  0  0
 26 24  1  0  0  0
 24 27  1  0  0  0
 27 28  1  0  0  0
 24 23  1  0  0  0
 23 22  1  0  0  0
 22 21  1  0  0  0
 21 17  1  0  0  0
 17 18  1  0  0  0
 18 19  2  0  0  0
 18 15  1  0  0  0
 15 16  2  0  0  0
 16 11  1  0  0  0
 11 12  2  0  0  0
 11 13  1  0  0  0
 13  1  1  0  0  0
  1  2  2  0  0  0
  2  3  1  0  0  0
  3  4  2  0  0  0
  4 29  1  0  0  0
 29 31  1  0  0  0
 31 32  2  0  0  0
 32 33  1  0  0  0
 33 34  2  0  0  0
 34 35  1  0  0  0
 35 36  1  0  0  0
 35 37  2  0  0  0
  4  5  1  0  0  0
  5  6  2  0  0  0
  6  7  1  0  0  0
  7  8  2  0  0  0
  8  9  1  0  0  0
  9 10  2  0  0  0
 10  1  1  0  0  0
  8  3  1  0  0  0
 37 31  1  0  0  0
 17 20  1  0  0  0
 13 14  1  0  0  0
 29 30  1  0  0  0
M  END
> <minimizedAffinity>
-6.36800

> <CNNscore>
0.6588776708

> <CNNaffinity>
7.0197548866

> <CNN_VS>
4.6251597404

> <CNNaffinity_variance>
0.3525260389

$$$$
[H]/C(C(=O)N([H])c1nc([H])c2nc([H])nc(N([H])c3c([H])c([H])c([H])c(Br)c3[H])c2c1[H])=C(/[H])C(=O)N([H])C([H])([H])C([H])([H])C([H])([H])N(C([H])([H])C([H])([H])[H])C([H])([H])C([H])([H])[H]


 37 39  0  0  0  0  0  0  0  0999 V2000
   -0.6280  -53.8205  -21.1316 C   0  0  0  0  0  0  0  0  0  0  0  0
    0.0631  -52.9646  -21.9971 C   0  0  0  0  0  0  0  0  0  0  0  0
    0.0428  -53.1387  -23.3652 C   0  0  0  0  0  0  0  0  0  0  0  0
    0.7075  -52.3087  -24.2523 C   0  0  0  0  0  0  0  0  0  0  0  0
    0.5933  -52.5973  -25.5594 N   0  0  0  0  0  0  0  0  0  0  0  0
   -0.1258  -53.6388  -26.0491 C   0  0  0  0  0  0  0  0  0  0  0  0
   -0.7523  -54.4139  -25.1546 N   0  0  0  0  0  0  0  0  0  0  0  0
   -0.7039  -54.2139  -23.8153 C   0  0  0  0  0  0  0  0  0  0  0  0
   -1.3727  -55.0413  -22.9415 C   0  0  0  0  0  0  0  0  0  0  0  0
   -1.3341  -54.8435  -21.6161 N   0  0  0  0  0  0  0  0  0  0  0  0
   -0.3172  -52.3454  -19.1920 C   0  0  0  0  0  0  0  0  0  0  0  0
   -0.0802  -51.3711  -19.9857 O   0  0  0  0  0  0  0  0  0  0  0  0
   -0.6171  -53.5991  -19.7063 N   0  0  0  0  0  0  0  0  0  0  0  0
   -0.8180  -54.4239  -19.1219 H   0  0  0  0  0  0  0  0  0  0  0  0
   -1.2791  -52.0639  -16.9614 C   0  0  0  0  0  0  0  0  0  0  0  0
   -0.2527  -52.0620  -17.7763 C   0  0  0  0  0  0  0  0  0  0  0  0
   -0.1058  -52.3789  -14.8073 N   0  0  0  0  0  0  0  0  0  0  0  0
   -1.1382  -51.7638  -15.5128 C   0  0  0  0  0  0  0  0  0  0  0  0
   -1.9497  -50.9806  -15.0347 O   0  0  0  0  0  0  0  0  0  0  0  0
    0.5405  -53.0462  -15.4127 H   0  0  0  0  0  0  0  0  0  0  0  0
    0.2081  -52.2591  -13.4408 C   0  0  0  0  0  0  0  0  0  0  0  0
    1.0483  -51.1417  -12.9721 C   0  0  0  0  0  0  0  0  0  0  0  0
    2.3627  -50.8814  -13.5612 C   0  0  0  0  0  0  0  0  0  0  0  0
    2.3038  -50.6564  -15.0215 N   0  0  0  0  0  0  0  0  0  0  0  0
    4.0446  -52.3630  -14.5474 C   0  0  0  0  0  0  0  0  0  0  0  0
    3.5919  -51.2838  -15.4509 C   0  0  0  0  0  0  0  0  0  0  0  0
    2.3105  -49.3002  -15.4449 C   0  0  0  0  0  0  0  0  0  0  0  0
    1.0332  -48.9212  -16.1318 C   0  0  0  0  0  0  0  0  0  0  0  0
    1.4141  -51.1914  -23.7676 N   0  0  0  0  0  0  0  0  0  0  0  0
    0.9847  -50.2285  -23.8530 H   0  0  0  0  0  0  0  0  0  0  0  0
    2.6962  -51.2862  -23.1678 C   0  0  0  0  0  0  0  0  0  0  0  0
    3.6571  -52.1209  -23.7615 C   0  0  0  0  0  0  0  0  0  0  0  0
    4.9240  -52.1930  -23.1985 C   0  0  0  0  0  0  0  0  0  0  0  0
    5.2746  -51.4824  -22.0887 C   0  0  0  0  0  0  0  0  0  0  0  0
    4.3336  -50.6651  -21.5078 C   0  0  0  0  0  0  0  0  0  0  0  0
    4.8204  -49.6818  -19.9491 Br  0  0  0  0  0  0  0  0  0  0  0  0
    3.0585  -50.5893  -22.0705 C   0  0  0  0  0  0  0  0  0  0  0  0
 25 26  1  0  0  0
 26 24  1  0  0  0
 24 27  1  0  0  0
 27 28  1  0  0  0
 24 23  1  0  0  0
 23 22  1  0  0  0
 22 21  1  0  0  0
 21 17  1  0  0  0
 17 18  1  0  0  0
 18 19  2  0  0  0
 18 15  1  0  0  0
 15 16  2  0  0  0
 16 11  1  0  0  0
 11 12  2  0  0  0
 11 13  1  0  0  0
 13  1  1  0  0  0
  1  2  2  0  0  0
  2  3  1  0  0  0
  3  4  2  0  0  0
  4 29  1  0  0  0
 29 31  1  0  0  0
 31 32  2  0  0  0
 32 33  1  0  0  0
 33 34  2  0  0  0
 34 35  1  0  0  0
 35 36  1  0  0  0
 35 37  2  0  0  0
  4  5  1  0  0  0
  5  6  2  0  0  0
  6  7  1  0  0  0
  7  8  2  0  0  0
  8  9  1  0  0  0
  9 10  2  0  0  0
 10  1  1  0  0  0
  8  3  1  0  0  0
 37 31  1  0  0  0
 17 20  1  0  0  0
 13 14  1  0  0  0
 29 30  1  0  0  0
M  END
> <minimizedAffinity>
-7.34929

> <CNNscore>
0.6198353767

> <CNNaffinity>
7.1386184692

> <CNN_VS>
4.4247684479

> <CNNaffinity_variance>
0.0985093787

$$$$
[H]/C(C(=O)N([H])c1nc([H])c2nc([H])nc(N([H])c3c([H])c([H])c([H])c(Br)c3[H])c2c1[H])=C(/[H])C(=O)N([H])C([H])([H])C([H])([H])C([H])([H])N(C([H])([H])C([H])([H])[H])C([H])([H])C([H])([H])[H]


 37 39  0  0  0  0  0  0  0  0999 V2000
   -1.0383  -53.6851  -21.7481 C   0  0  0  0  0  0  0  0  0  0  0  0
   -0.4197  -52.8725  -22.7053 C   0  0  0  0  0  0  0  0  0  0  0  0
   -0.2122  -53.2995  -24.0004 C   0  0  0  0  0  0  0  0  0  0  0  0
    0.3890  -52.5217  -24.9757 C   0  0  0  0  0  0  0  0  0  0  0  0
    0.5200  -53.0681  -26.1960 N   0  0  0  0  0  0  0  0  0  0  0  0
    0.1022  -54.3180  -26.5194 C   0  0  0  0  0  0  0  0  0  0  0  0
   -0.4741  -55.0333  -25.5450 N   0  0  0  0  0  0  0  0  0  0  0  0
   -0.6556  -54.5806  -24.2807 C   0  0  0  0  0  0  0  0  0  0  0  0
   -1.2595  -55.3593  -23.3193 C   0  0  0  0  0  0  0  0  0  0  0  0
   -1.4481  -54.9134  -22.0691 N   0  0  0  0  0  0  0  0  0  0  0  0
   -0.2423  -52.6284  -19.6782 C   0  0  0  0  0  0  0  0  0  0  0  0
    0.9146  -52.4930  -20.2060 O   0  0  0  0  0  0  0  0  0  0  0  0
   -1.2725  -53.2043  -20.4084 N   0  0  0  0  0  0  0  0  0  0  0  0
   -2.2260  -53.3413  -20.0422 H   0  0  0  0  0  0  0  0  0  0  0  0
    0.3799  -51.2807  -17.7348 C   0  0  0  0  0  0  0  0  0  0  0  0
   -0.3969  -52.1592  -18.3200 C   0  0  0  0  0  0  0  0  0  0  0  0
   -1.0773  -51.0997  -15.7449 N   0  0  0  0  0  0  0  0  0  0  0  0
    0.1601  -50.8424  -16.3321 C   0  0  0  0  0  0  0  0  0  0  0  0
    1.0988  -50.2810  -15.7806 O   0  0  0  0  0  0  0  0  0  0  0  0
   -1.8003  -51.6333  -16.3944 H   0  0  0  0  0  0  0  0  0  0  0  0
   -1.5132  -50.7665  -14.4490 C   0  0  0  0  0  0  0  0  0  0  0  0
   -1.8878  -49.3761  -14.1315 C   0  0  0  0  0  0  0  0  0  0  0  0
   -1.1417  -48.5960  -13.1430 C   0  0  0  0  0  0  0  0  0  0  0  0
   -0.2317  -47.6068  -13.7594 N   0  0  0  0  0  0  0  0  0  0  0  0
    1.7294  -48.7461  -12.7477 C   0  0  0  0  0  0  0  0  0  0  0  0
    0.8557  -47.5536  -12.7337 C   0  0  0  0  0  0  0  0  0  0  0  0
   -0.7522  -46.2945  -13.9194 C   0  0  0  0  0  0  0  0  0  0  0  0
    0.2499  -45.3653  -14.5352 C   0  0  0  0  0  0  0  0  0  0  0  0
    0.7802  -51.2031  -24.6745 N   0  0  0  0  0  0  0  0  0  0  0  0
    0.1768  -50.3961  -24.9966 H   0  0  0  0  0  0  0  0  0  0  0  0
    1.9637  -50.8908  -23.9573 C   0  0  0  0  0  0  0  0  0  0  0  0
    1.8676  -50.0604  -22.8287 C   0  0  0  0  0  0  0  0  0  0  0  0
    3.0169  -49.7774  -22.1032 C   0  0  0  0  0  0  0  0  0  0  0  0
    4.2397  -50.2763  -22.4431 C   0  0  0  0  0  0  0  0  0  0  0  0
    4.3333  -51.0895  -23.5479 C   0  0  0  0  0  0  0  0  0  0  0  0
    6.0450  -51.7762  -24.0297 Br  0  0  0  0  0  0  0  0  0  0  0  0
    3.1804  -51.3769  -24.2803 C   0  0  0  0  0  0  0  0  0  0  0  0
 25 26  1  0  0  0
 26 24  1  0  0  0
 24 27  1  0  0  0
 27 28  1  0  0  0
 24 23  1  0  0  0
 23 22  1  0  0  0
 22 21  1  0  0  0
 21 17  1  0  0  0
 17 18  1  0  0  0
 18 19  2  0  0  0
 18 15  1  0  0  0
 15 16  2  0  0  0
 16 11  1  0  0  0
 11 12  2  0  0  0
 11 13  1  0  0  0
 13  1  1  0  0  0
  1  2  2  0  0  0
  2  3  1  0  0  0
  3  4  2  0  0  0
  4 29  1  0  0  0
 29 31  1  0  0  0
 31 32  2  0  0  0
 32 33  1  0  0  0
 33 34  2  0  0  0
 34 35  1  0  0  0
 35 36  1  0  0  0
 35 37  2  0  0  0
  4  5  1  0  0  0
  5  6  2  0  0  0
  6  7  1  0  0  0
  7  8  2  0  0  0
  8  9  1  0  0  0
  9 10  2  0  0  0
 10  1  1  0  0  0
  8  3  1  0  0  0
 37 31  1  0  0  0
 17 20  1  0  0  0
 13 14  1  0  0  0
 29 30  1  0  0  0
M  END
> <minimizedAffinity>
-6.29373

> <CNNscore>
0.5650100708

> <CNNaffinity>
7.0580697060

> <CNN_VS>
3.9878804684

> <CNNaffinity_variance>
0.2541511655

$$$$
[H]/C(C(=O)N([H])c1nc([H])c2nc([H])nc(N([H])c3c([H])c([H])c([H])c(Br)c3[H])c2c1[H])=C(/[H])C(=O)N([H])C([H])([H])C([H])([H])C([H])([H])N(C([H])([H])C([H])([H])[H])C([H])([H])C([H])([H])[H]


 37 39  0  0  0  0  0  0  0  0999 V2000
    1.2808  -51.9441  -20.7444 C   0  0  0  0  0  0  0  0  0  0  0  0
    0.8450  -52.0363  -22.0714 C   0  0  0  0  0  0  0  0  0  0  0  0
    0.0372  -53.0673  -22.5039 C   0  0  0  0  0  0  0  0  0  0  0  0
   -0.4193  -53.1873  -23.8058 C   0  0  0  0  0  0  0  0  0  0  0  0
   -1.2043  -54.2422  -24.0816 N   0  0  0  0  0  0  0  0  0  0  0  0
   -1.5684  -55.1792  -23.1700 C   0  0  0  0  0  0  0  0  0  0  0  0
   -1.1041  -55.0221  -21.9238 N   0  0  0  0  0  0  0  0  0  0  0  0
   -0.3065  -53.9970  -21.5376 C   0  0  0  0  0  0  0  0  0  0  0  0
    0.1378  -53.8830  -20.2395 C   0  0  0  0  0  0  0  0  0  0  0  0
    0.9211  -52.8669  -19.8506 N   0  0  0  0  0  0  0  0  0  0  0  0
    1.6650  -49.5322  -20.4804 C   0  0  0  0  0  0  0  0  0  0  0  0
    0.5181  -49.3048  -20.9984 O   0  0  0  0  0  0  0  0  0  0  0  0
    2.0993  -50.8392  -20.3088 N   0  0  0  0  0  0  0  0  0  0  0  0
    3.0107  -51.0897  -19.8979 H   0  0  0  0  0  0  0  0  0  0  0  0
    3.7539  -48.2971  -20.1791 C   0  0  0  0  0  0  0  0  0  0  0  0
    2.4482  -48.3784  -20.1011 C   0  0  0  0  0  0  0  0  0  0  0  0
    5.8775  -47.0516  -19.9451 N   0  0  0  0  0  0  0  0  0  0  0  0
    4.4950  -47.0753  -19.7717 C   0  0  0  0  0  0  0  0  0  0  0  0
    3.8269  -46.1587  -19.3091 O   0  0  0  0  0  0  0  0  0  0  0  0
    6.3074  -47.9694  -20.3947 H   0  0  0  0  0  0  0  0  0  0  0  0
    6.7790  -46.0208  -19.6210 C   0  0  0  0  0  0  0  0  0  0  0  0
    7.8188  -45.6196  -20.5864 C   0  0  0  0  0  0  0  0  0  0  0  0
    7.4927  -45.3628  -21.9901 C   0  0  0  0  0  0  0  0  0  0  0  0
    6.0366  -45.2950  -22.2388 N   0  0  0  0  0  0  0  0  0  0  0  0
    6.4647  -47.4558  -23.3856 C   0  0  0  0  0  0  0  0  0  0  0  0
    5.9352  -46.0808  -23.5075 C   0  0  0  0  0  0  0  0  0  0  0  0
    5.5040  -43.9998  -22.4780 C   0  0  0  0  0  0  0  0  0  0  0  0
    6.3669  -42.9223  -21.8937 C   0  0  0  0  0  0  0  0  0  0  0  0
   -0.0972  -52.1965  -24.7529 N   0  0  0  0  0  0  0  0  0  0  0  0
   -0.3286  -51.1853  -24.5456 H   0  0  0  0  0  0  0  0  0  0  0  0
    0.5241  -52.4851  -25.9952 C   0  0  0  0  0  0  0  0  0  0  0  0
    1.9103  -52.7093  -26.0186 C   0  0  0  0  0  0  0  0  0  0  0  0
    2.5195  -53.0245  -27.2256 C   0  0  0  0  0  0  0  0  0  0  0  0
    1.8231  -53.1266  -28.3935 C   0  0  0  0  0  0  0  0  0  0  0  0
    0.4658  -52.9072  -28.3702 C   0  0  0  0  0  0  0  0  0  0  0  0
   -0.5051  -53.0377  -30.0054 Br  0  0  0  0  0  0  0  0  0  0  0  0
   -0.1510  -52.5902  -27.1589 C   0  0  0  0  0  0  0  0  0  0  0  0
 25 26  1  0  0  0
 26 24  1  0  0  0
 24 27  1  0  0  0
 27 28  1  0  0  0
 24 23  1  0  0  0
 23 22  1  0  0  0
 22 21  1  0  0  0
 21 17  1  0  0  0
 17 18  1  0  0  0
 18 19  2  0  0  0
 18 15  1  0  0  0
 15 16  2  0  0  0
 16 11  1  0  0  0
 11 12  2  0  0  0
 11 13  1  0  0  0
 13  1  1  0  0  0
  1  2  2  0  0  0
  2  3  1  0  0  0
  3  4  2  0  0  0
  4 29  1  0  0  0
 29 31  1  0  0  0
 31 32  2  0  0  0
 32 33  1  0  0  0
 33 34  2  0  0  0
 34 35  1  0  0  0
 35 36  1  0  0  0
 35 37  2  0  0  0
  4  5  1  0  0  0
  5  6  2  0  0  0
  6  7  1  0  0  0
  7  8  2  0  0  0
  8  9  1  0  0  0
  9 10  2  0  0  0
 10  1  1  0  0  0
  8  3  1  0  0  0
 37 31  1  0  0  0
 17 20  1  0  0  0
 13 14  1  0  0  0
 29 30  1  0  0  0
M  END
> <minimizedAffinity>
-5.65728

> <CNNscore>
0.5602298975

> <CNNaffinity>
6.8996458054

> <CNN_VS>
3.8653879166

> <CNNaffinity_variance>
0.1659673154

$$$$
[H]/C(C(=O)N([H])c1nc([H])c2nc([H])nc(N([H])c3c([H])c([H])c([H])c(Br)c3[H])c2c1[H])=C(/[H])C(=O)N([H])C([H])([H])C([H])([H])C([H])([H])N(C([H])([H])C([H])([H])[H])C([H])([H])C([H])([H])[H]


 37 39  0  0  0  0  0  0  0  0999 V2000
   -0.9129  -53.4180  -21.8428 C   0  0  0  0  0  0  0  0  0  0  0  0
   -0.1427  -52.9260  -22.9029 C   0  0  0  0  0  0  0  0  0  0  0  0
   -0.0131  -53.6141  -24.0913 C   0  0  0  0  0  0  0  0  0  0  0  0
    0.7335  -53.1556  -25.1637 C   0  0  0  0  0  0  0  0  0  0  0  0
    0.7645  -53.9307  -26.2606 N   0  0  0  0  0  0  0  0  0  0  0  0
    0.1150  -55.1169  -26.3732 C   0  0  0  0  0  0  0  0  0  0  0  0
   -0.5951  -55.5200  -25.3117 N   0  0  0  0  0  0  0  0  0  0  0  0
   -0.6939  -54.8176  -24.1571 C   0  0  0  0  0  0  0  0  0  0  0  0
   -1.4433  -55.2790  -23.0984 C   0  0  0  0  0  0  0  0  0  0  0  0
   -1.5504  -54.5845  -21.9566 N   0  0  0  0  0  0  0  0  0  0  0  0
   -0.0374  -52.6451  -19.6817 C   0  0  0  0  0  0  0  0  0  0  0  0
    1.0532  -53.2717  -19.9127 O   0  0  0  0  0  0  0  0  0  0  0  0
   -1.0587  -52.6649  -20.6213 N   0  0  0  0  0  0  0  0  0  0  0  0
   -1.9600  -52.1811  -20.4965 H   0  0  0  0  0  0  0  0  0  0  0  0
   -0.9216  -52.2750  -17.4320 C   0  0  0  0  0  0  0  0  0  0  0  0
   -0.1300  -51.9425  -18.4221 C   0  0  0  0  0  0  0  0  0  0  0  0
   -1.1459  -52.2048  -14.9702 N   0  0  0  0  0  0  0  0  0  0  0  0
   -0.9635  -51.5053  -16.1615 C   0  0  0  0  0  0  0  0  0  0  0  0
   -0.8277  -50.2913  -16.2524 O   0  0  0  0  0  0  0  0  0  0  0  0
   -1.2343  -53.3042  -15.0831 H   0  0  0  0  0  0  0  0  0  0  0  0
   -1.2329  -51.6915  -13.6627 C   0  0  0  0  0  0  0  0  0  0  0  0
   -2.5232  -51.7058  -12.9491 C   0  0  0  0  0  0  0  0  0  0  0  0
   -3.7041  -52.3475  -13.5288 C   0  0  0  0  0  0  0  0  0  0  0  0
   -4.7007  -51.3750  -14.0265 N   0  0  0  0  0  0  0  0  0  0  0  0
   -4.6056  -52.9966  -15.9051 C   0  0  0  0  0  0  0  0  0  0  0  0
   -4.5691  -51.5743  -15.5031 C   0  0  0  0  0  0  0  0  0  0  0  0
   -4.4366  -50.0087  -13.7401 C   0  0  0  0  0  0  0  0  0  0  0  0
   -4.2337  -49.2036  -14.9882 C   0  0  0  0  0  0  0  0  0  0  0  0
    1.3702  -51.9022  -25.0862 N   0  0  0  0  0  0  0  0  0  0  0  0
    0.9277  -51.0650  -25.5578 H   0  0  0  0  0  0  0  0  0  0  0  0
    2.5982  -51.6978  -24.4058 C   0  0  0  0  0  0  0  0  0  0  0  0
    3.6012  -52.6743  -24.5192 C   0  0  0  0  0  0  0  0  0  0  0  0
    4.8171  -52.4652  -23.8827 C   0  0  0  0  0  0  0  0  0  0  0  0
    5.0780  -51.3450  -23.1501 C   0  0  0  0  0  0  0  0  0  0  0  0
    4.0957  -50.3890  -23.0395 C   0  0  0  0  0  0  0  0  0  0  0  0
    4.4565  -48.8293  -22.0049 Br  0  0  0  0  0  0  0  0  0  0  0  0
    2.8717  -50.5949  -23.6779 C   0  0  0  0  0  0  0  0  0  0  0  0
 25 26  1  0  0  0
 26 24  1  0  0  0
 24 27  1  0  0  0
 27 28  1  0  0  0
 24 23  1  0  0  0
 23 22  1  0  0  0
 22 21  1  0  0  0
 21 17  1  0  0  0
 17 18  1  0  0  0
 18 19  2  0  0  0
 18 15  1  0  0  0
 15 16  2  0  0  0
 16 11  1  0  0  0
 11 12  2  0  0  0
 11 13  1  0  0  0
 13  1  1  0  0  0
  1  2  2  0  0  0
  2  3  1  0  0  0
  3  4  2  0  0  0
  4 29  1  0  0  0
 29 31  1  0  0  0
 31 32  2  0  0  0
 32 33  1  0  0  0
 33 34  2  0  0  0
 34 35  1  0  0  0
 35 36  1  0  0  0
 35 37  2  0  0  0
  4  5  1  0  0  0
  5  6  2  0  0  0
  6  7  1  0  0  0
  7  8  2  0  0  0
  8  9  1  0  0  0
  9 10  2  0  0  0
 10  1  1  0  0  0
  8  3  1  0  0  0
 37 31  1  0  0  0
 17 20  1  0  0  0
 13 14  1  0  0  0
 29 30  1  0  0  0
M  END
> <minimizedAffinity>
-7.58296

> <CNNscore>
0.4654626548

> <CNNaffinity>
6.8980646133

> <CNN_VS>
3.2107913494

> <CNNaffinity_variance>
0.0740000978

$$$$
[H]C([H])=C([H])C(=O)N([H])c1c([H])c([H])c([H])c(N([H])c2nc(N([H])c3c([H])c([H])c(N4C([H])([H])C([H])([H])N(C(=O)N([H])C([H])([H])[H])C([H])([H])C4([H])[H])c([H])c3OC([H])([H])[H])nc([H])c2C(F)(F)F)c1[H]


 45 48  0  0  0  0  0  0  0  0999 V2000
   -0.6245  -53.4622  -21.8884 C   0  0  0  0  0  0  0  0  0  0  0  0
   -0.8438  -54.6624  -22.4446 N   0  0  0  0  0  0  0  0  0  0  0  0
   -0.6684  -54.8884  -23.7483 C   0  0  0  0  0  0  0  0  0  0  0  0
   -0.2473  -53.8962  -24.6163 C   0  0  0  0  0  0  0  0  0  0  0  0
   -0.0122  -52.6326  -24.0582 C   0  0  0  0  0  0  0  0  0  0  0  0
   -0.2148  -52.5085  -22.7520 N   0  0  0  0  0  0  0  0  0  0  0  0
   -0.0417  -54.1753  -26.0594 C   0  0  0  0  0  0  0  0  0  0  0  0
   -0.3097  -55.4866  -26.4084 F   0  0  0  0  0  0  0  0  0  0  0  0
   -1.0035  -53.4327  -26.7743 F   0  0  0  0  0  0  0  0  0  0  0  0
    1.1654  -53.7153  -26.5408 F   0  0  0  0  0  0  0  0  0  0  0  0
   -0.7862  -53.1602  -20.5104 N   0  0  0  0  0  0  0  0  0  0  0  0
   -1.7068  -53.5770  -20.1106 H   0  0  0  0  0  0  0  0  0  0  0  0
    1.5900  -51.0209  -17.7716 C   0  0  0  0  0  0  0  0  0  0  0  0
    2.0296  -51.2318  -19.0389 C   0  0  0  0  0  0  0  0  0  0  0  0
    1.2633  -51.9389  -19.9843 C   0  0  0  0  0  0  0  0  0  0  0  0
    0.0455  -52.4411  -19.6619 C   0  0  0  0  0  0  0  0  0  0  0  0
   -0.3873  -52.2124  -18.3501 C   0  0  0  0  0  0  0  0  0  0  0  0
    0.3636  -51.5219  -17.4316 C   0  0  0  0  0  0  0  0  0  0  0  0
    5.7272  -46.4280  -12.8757 C   0  0  0  0  0  0  0  0  0  0  0  0
    4.8871  -47.0398  -13.8832 N   0  0  0  0  0  0  0  0  0  0  0  0
    4.5439  -48.4097  -13.8213 C   0  0  0  0  0  0  0  0  0  0  0  0
    4.9772  -49.1043  -12.8734 O   0  0  0  0  0  0  0  0  0  0  0  0
    3.7286  -49.0264  -14.7919 N   0  0  0  0  0  0  0  0  0  0  0  0
    3.2261  -48.2188  -15.8874 C   0  0  0  0  0  0  0  0  0  0  0  0
    2.0947  -48.9053  -16.6240 C   0  0  0  0  0  0  0  0  0  0  0  0
    2.3915  -50.3104  -16.8437 N   0  0  0  0  0  0  0  0  0  0  0  0
    3.4594  -50.9855  -16.1368 C   0  0  0  0  0  0  0  0  0  0  0  0
    3.3984  -50.4293  -14.7028 C   0  0  0  0  0  0  0  0  0  0  0  0
    4.5425  -46.4200  -14.6617 H   0  0  0  0  0  0  0  0  0  0  0  0
   -1.6125  -52.6996  -17.9720 O   0  0  0  0  0  0  0  0  0  0  0  0
   -2.1076  -52.4467  -16.6810 C   0  0  0  0  0  0  0  0  0  0  0  0
    0.3760  -51.5957  -24.9112 N   0  0  0  0  0  0  0  0  0  0  0  0
   -0.3023  -51.2749  -25.6678 H   0  0  0  0  0  0  0  0  0  0  0  0
    1.6028  -50.8755  -24.9079 C   0  0  0  0  0  0  0  0  0  0  0  0
    2.1110  -50.4000  -23.6910 C   0  0  0  0  0  0  0  0  0  0  0  0
    3.2762  -49.6961  -23.6442 C   0  0  0  0  0  0  0  0  0  0  0  0
    3.9880  -49.4270  -24.7663 C   0  0  0  0  0  0  0  0  0  0  0  0
    3.5211  -49.8809  -26.0136 C   0  0  0  0  0  0  0  0  0  0  0  0
    2.3431  -50.5908  -26.0445 C   0  0  0  0  0  0  0  0  0  0  0  0
    4.3399  -49.5800  -27.1102 N   0  0  0  0  0  0  0  0  0  0  0  0
    4.2825  -48.4207  -27.9008 C   0  0  0  0  0  0  0  0  0  0  0  0
    3.4458  -47.5237  -27.6481 O   0  0  0  0  0  0  0  0  0  0  0  0
    5.0790  -50.2965  -27.3879 H   0  0  0  0  0  0  0  0  0  0  0  0
    5.2046  -48.2544  -29.0270 C   0  0  0  0  0  0  0  0  0  0  0  0
    6.4895  -48.1931  -28.8295 C   0  0  0  0  0  0  0  0  0  0  0  0
 19 20  1  0  0  0
 20 21  1  0  0  0
 21 22  2  0  0  0
 21 23  1  0  0  0
 23 24  1  0  0  0
 24 25  1  0  0  0
 25 26  1  0  0  0
 26 27  1  0  0  0
 27 28  1  0  0  0
 26 13  1  0  0  0
 13 14  2  0  0  0
 14 15  1  0  0  0
 15 16  2  0  0  0
 16 11  1  0  0  0
 11  1  1  0  0  0
  1  2  2  0  0  0
  2  3  1  0  0  0
  3  4  2  0  0  0
  4  5  1  0  0  0
  5 32  1  0  0  0
 32 34  1  0  0  0
 34 35  2  0  0  0
 35 36  1  0  0  0
 36 37  2  0  0  0
 37 38  1  0  0  0
 38 40  1  0  0  0
 40 41  1  0  0  0
 41 42  2  0  0  0
 41 44  1  0  0  0
 44 45  2  0  0  0
 38 39  2  0  0  0
  5  6  2  0  0  0
  4  7  1  0  0  0
  7  8  1  0  0  0
  7  9  1  0  0  0
  7 10  1  0  0  0
 16 17  1  0  0  0
 17 30  1  0  0  0
 30 31  1  0  0  0
 17 18  2  0  0  0
 28 23  1  0  0  0
 18 13  1  0  0  0
  6  1  1  0  0  0
 39 34  1  0  0  0
 20 29  1  0  0  0
 11 12  1  0  0  0
 32 33  1  0  0  0
 40 43  1  0  0  0
M  END
> <minimizedAffinity>
-7.68361

> <CNNscore>
0.4754338264

> <CNNaffinity>
7.4047803879

> <CNN_VS>
3.5204830170

> <CNNaffinity_variance>
0.3028221726

$$$$
[H]C([H])=C([H])C(=O)N([H])c1c([H])c([H])c([H])c(N([H])c2nc(N([H])c3c([H])c([H])c(N4C([H])([H])C([H])([H])N(C(=O)N([H])C([H])([H])[H])C([H])([H])C4([H])[H])c([H])c3OC([H])([H])[H])nc([H])c2C(F)(F)F)c1[H]


 45 48  0  0  0  0  0  0  0  0999 V2000
   -0.5261  -53.6595  -22.1983 C   0  0  0  0  0  0  0  0  0  0  0  0
   -0.8360  -54.7686  -22.8852 N   0  0  0  0  0  0  0  0  0  0  0  0
   -0.6850  -54.8550  -24.2085 C   0  0  0  0  0  0  0  0  0  0  0  0
   -0.1971  -53.8024  -24.9630 C   0  0  0  0  0  0  0  0  0  0  0  0
    0.1332  -52.6318  -24.2672 C   0  0  0  0  0  0  0  0  0  0  0  0
   -0.0523  -52.6448  -22.9527 N   0  0  0  0  0  0  0  0  0  0  0  0
   -0.0208  -53.9274  -26.4313 C   0  0  0  0  0  0  0  0  0  0  0  0
    1.2741  -53.6823  -26.8514 F   0  0  0  0  0  0  0  0  0  0  0  0
   -0.2346  -55.2794  -26.7687 F   0  0  0  0  0  0  0  0  0  0  0  0
   -0.9720  -53.2441  -27.1585 F   0  0  0  0  0  0  0  0  0  0  0  0
   -0.6573  -53.5075  -20.7926 N   0  0  0  0  0  0  0  0  0  0  0  0
   -1.4763  -54.1020  -20.3965 H   0  0  0  0  0  0  0  0  0  0  0  0
    1.4648  -51.2075  -17.9765 C   0  0  0  0  0  0  0  0  0  0  0  0
    2.0106  -51.4757  -19.1905 C   0  0  0  0  0  0  0  0  0  0  0  0
    1.3316  -52.2377  -20.1597 C   0  0  0  0  0  0  0  0  0  0  0  0
    0.0948  -52.7376  -19.9150 C   0  0  0  0  0  0  0  0  0  0  0  0
   -0.4480  -52.4493  -18.6571 C   0  0  0  0  0  0  0  0  0  0  0  0
    0.2179  -51.7054  -17.7151 C   0  0  0  0  0  0  0  0  0  0  0  0
    4.9172  -46.4073  -12.7592 C   0  0  0  0  0  0  0  0  0  0  0  0
    4.1242  -47.0787  -13.7669 N   0  0  0  0  0  0  0  0  0  0  0  0
    4.1932  -48.4795  -13.9438 C   0  0  0  0  0  0  0  0  0  0  0  0
    4.9569  -49.1493  -13.2112 O   0  0  0  0  0  0  0  0  0  0  0  0
    3.4313  -49.1538  -14.9194 N   0  0  0  0  0  0  0  0  0  0  0  0
    2.5457  -48.3756  -15.7650 C   0  0  0  0  0  0  0  0  0  0  0  0
    1.5439  -49.2493  -16.4910 C   0  0  0  0  0  0  0  0  0  0  0  0
    2.1803  -50.4426  -17.0219 N   0  0  0  0  0  0  0  0  0  0  0  0
    3.4976  -50.8617  -16.5921 C   0  0  0  0  0  0  0  0  0  0  0  0
    3.5265  -50.5859  -15.0781 C   0  0  0  0  0  0  0  0  0  0  0  0
    3.4938  -46.4787  -14.3600 H   0  0  0  0  0  0  0  0  0  0  0  0
   -1.6969  -52.9315  -18.3584 O   0  0  0  0  0  0  0  0  0  0  0  0
   -2.1984  -52.8364  -17.0486 C   0  0  0  0  0  0  0  0  0  0  0  0
    0.5917  -51.5344  -25.0012 N   0  0  0  0  0  0  0  0  0  0  0  0
   -0.0090  -51.1672  -25.8011 H   0  0  0  0  0  0  0  0  0  0  0  0
    1.7997  -50.8055  -24.8193 C   0  0  0  0  0  0  0  0  0  0  0  0
    2.5810  -50.4899  -25.9397 C   0  0  0  0  0  0  0  0  0  0  0  0
    3.7502  -49.8035  -25.8093 C   0  0  0  0  0  0  0  0  0  0  0  0
    4.2048  -49.4004  -24.5971 C   0  0  0  0  0  0  0  0  0  0  0  0
    3.4587  -49.6926  -23.4404 C   0  0  0  0  0  0  0  0  0  0  0  0
    2.2797  -50.3861  -23.5886 C   0  0  0  0  0  0  0  0  0  0  0  0
    3.9940  -49.2091  -22.2392 N   0  0  0  0  0  0  0  0  0  0  0  0
    4.6758  -49.9600  -21.2677 C   0  0  0  0  0  0  0  0  0  0  0  0
    4.8660  -51.1865  -21.4351 O   0  0  0  0  0  0  0  0  0  0  0  0
    3.8724  -48.1718  -22.0248 H   0  0  0  0  0  0  0  0  0  0  0  0
    5.1699  -49.3098  -20.0515 C   0  0  0  0  0  0  0  0  0  0  0  0
    6.4373  -49.0539  -19.9036 C   0  0  0  0  0  0  0  0  0  0  0  0
 19 20  1  0  0  0
 20 21  1  0  0  0
 21 22  2  0  0  0
 21 23  1  0  0  0
 23 24  1  0  0  0
 24 25  1  0  0  0
 25 26  1  0  0  0
 26 27  1  0  0  0
 27 28  1  0  0  0
 26 13  1  0  0  0
 13 14  2  0  0  0
 14 15  1  0  0  0
 15 16  2  0  0  0
 16 11  1  0  0  0
 11  1  1  0  0  0
  1  2  2  0  0  0
  2  3  1  0  0  0
  3  4  2  0  0  0
  4  5  1  0  0  0
  5 32  1  0  0  0
 32 34  1  0  0  0
 34 35  2  0  0  0
 35 36  1  0  0  0
 36 37  2  0  0  0
 37 38  1  0  0  0
 38 40  1  0  0  0
 40 41  1  0  0  0
 41 42  2  0  0  0
 41 44  1  0  0  0
 44 45  2  0  0  0
 38 39  2  0  0  0
  5  6  2  0  0  0
  4  7  1  0  0  0
  7  8  1  0  0  0
  7  9  1  0  0  0
  7 10  1  0  0  0
 16 17  1  0  0  0
 17 30  1  0  0  0
 30 31  1  0  0  0
 17 18  2  0  0  0
 28 23  1  0  0  0
 18 13  1  0  0  0
  6  1  1  0  0  0
 39 34  1  0  0  0
 20 29  1  0  0  0
 11 12  1  0  0  0
 32 33  1  0  0  0
 40 43  1  0  0  0
M  END
> <minimizedAffinity>
-7.61897

> <CNNscore>
0.4229293764

> <CNNaffinity>
7.3891401291

> <CNN_VS>
3.1250844002

> <CNNaffinity_variance>
0.2247060239

$$$$
[H]C([H])=C([H])C(=O)N([H])c1c([H])c([H])c([H])c(N([H])c2nc(N([H])c3c([H])c([H])c(N4C([H])([H])C([H])([H])N(C(=O)N([H])C([H])([H])[H])C([H])([H])C4([H])[H])c([H])c3OC([H])([H])[H])nc([H])c2C(F)(F)F)c1[H]


 45 48  0  0  0  0  0  0  0  0999 V2000
    0.1501  -53.7338  -22.6851 C   0  0  0  0  0  0  0  0  0  0  0  0
   -0.8516  -54.2157  -23.4352 N   0  0  0  0  0  0  0  0  0  0  0  0
   -0.9477  -53.9680  -24.7432 C   0  0  0  0  0  0  0  0  0  0  0  0
   -0.0174  -53.1947  -25.4152 C   0  0  0  0  0  0  0  0  0  0  0  0
    1.0387  -52.6790  -24.6522 C   0  0  0  0  0  0  0  0  0  0  0  0
    1.0462  -52.9820  -23.3596 N   0  0  0  0  0  0  0  0  0  0  0  0
   -0.1349  -52.9473  -26.8739 C   0  0  0  0  0  0  0  0  0  0  0  0
    0.5115  -53.8963  -27.6453 F   0  0  0  0  0  0  0  0  0  0  0  0
   -1.4930  -53.0995  -27.2200 F   0  0  0  0  0  0  0  0  0  0  0  0
    0.1621  -51.6508  -27.2364 F   0  0  0  0  0  0  0  0  0  0  0  0
    0.3117  -53.9663  -21.2937 N   0  0  0  0  0  0  0  0  0  0  0  0
    0.4688  -55.0192  -21.0755 H   0  0  0  0  0  0  0  0  0  0  0  0
    0.4476  -51.1209  -18.1939 C   0  0  0  0  0  0  0  0  0  0  0  0
   -0.5703  -52.0175  -18.2544 C   0  0  0  0  0  0  0  0  0  0  0  0
   -0.6492  -52.9859  -19.2728 C   0  0  0  0  0  0  0  0  0  0  0  0
    0.2975  -53.0606  -20.2410 C   0  0  0  0  0  0  0  0  0  0  0  0
    1.3370  -52.1263  -20.1591 C   0  0  0  0  0  0  0  0  0  0  0  0
    1.4099  -51.1837  -19.1639 C   0  0  0  0  0  0  0  0  0  0  0  0
    1.3483  -45.5016  -12.7356 C   0  0  0  0  0  0  0  0  0  0  0  0
    1.4296  -46.4622  -13.8153 N   0  0  0  0  0  0  0  0  0  0  0  0
    0.2843  -47.1539  -14.2715 C   0  0  0  0  0  0  0  0  0  0  0  0
   -0.8212  -46.9274  -13.7280 O   0  0  0  0  0  0  0  0  0  0  0  0
    0.3404  -48.0943  -15.3201 N   0  0  0  0  0  0  0  0  0  0  0  0
    1.6219  -48.3529  -15.9493 C   0  0  0  0  0  0  0  0  0  0  0  0
    1.4682  -49.0848  -17.2664 C   0  0  0  0  0  0  0  0  0  0  0  0
    0.4913  -50.1547  -17.1580 N   0  0  0  0  0  0  0  0  0  0  0  0
   -0.4266  -50.2413  -16.0420 C   0  0  0  0  0  0  0  0  0  0  0  0
   -0.8470  -48.7874  -15.7614 C   0  0  0  0  0  0  0  0  0  0  0  0
    2.3774  -46.6214  -14.2457 H   0  0  0  0  0  0  0  0  0  0  0  0
    2.3209  -52.1583  -21.1143 O   0  0  0  0  0  0  0  0  0  0  0  0
    3.5838  -51.6008  -20.8493 C   0  0  0  0  0  0  0  0  0  0  0  0
    1.9756  -51.8607  -25.2891 N   0  0  0  0  0  0  0  0  0  0  0  0
    1.6940  -51.3658  -26.1898 H   0  0  0  0  0  0  0  0  0  0  0  0
    3.3102  -51.5816  -24.8831 C   0  0  0  0  0  0  0  0  0  0  0  0
    4.1911  -52.6483  -24.6565 C   0  0  0  0  0  0  0  0  0  0  0  0
    5.4739  -52.4263  -24.2558 C   0  0  0  0  0  0  0  0  0  0  0  0
    5.9487  -51.1716  -24.0596 C   0  0  0  0  0  0  0  0  0  0  0  0
    5.1049  -50.0658  -24.2723 C   0  0  0  0  0  0  0  0  0  0  0  0
    3.8123  -50.3063  -24.6773 C   0  0  0  0  0  0  0  0  0  0  0  0
    5.6942  -48.8102  -24.0732 N   0  0  0  0  0  0  0  0  0  0  0  0
    6.1505  -47.9350  -25.0723 C   0  0  0  0  0  0  0  0  0  0  0  0
    6.0407  -48.2431  -26.2812 O   0  0  0  0  0  0  0  0  0  0  0  0
    5.8221  -48.4768  -23.0686 H   0  0  0  0  0  0  0  0  0  0  0  0
    6.7575  -46.6536  -24.7037 C   0  0  0  0  0  0  0  0  0  0  0  0
    7.8425  -46.6150  -23.9861 C   0  0  0  0  0  0  0  0  0  0  0  0
 19 20  1  0  0  0
 20 21  1  0  0  0
 21 22  2  0  0  0
 21 23  1  0  0  0
 23 24  1  0  0  0
 24 25  1  0  0  0
 25 26  1  0  0  0
 26 27  1  0  0  0
 27 28  1  0  0  0
 26 13  1  0  0  0
 13 14  2  0  0  0
 14 15  1  0  0  0
 15 16  2  0  0  0
 16 11  1  0  0  0
 11  1  1  0  0  0
  1  2  2  0  0  0
  2  3  1  0  0  0
  3  4  2  0  0  0
  4  5  1  0  0  0
  5 32  1  0  0  0
 32 34  1  0  0  0
 34 35  2  0  0  0
 35 36  1  0  0  0
 36 37  2  0  0  0
 37 38  1  0  0  0
 38 40  1  0  0  0
 40 41  1  0  0  0
 41 42  2  0  0  0
 41 44  1  0  0  0
 44 45  2  0  0  0
 38 39  2  0  0  0
  5  6  2  0  0  0
  4  7  1  0  0  0
  7  8  1  0  0  0
  7  9  1  0  0  0
  7 10  1  0  0  0
 16 17  1  0  0  0
 17 30  1  0  0  0
 30 31  1  0  0  0
 17 18  2  0  0  0
 28 23  1  0  0  0
 18 13  1  0  0  0
  6  1  1  0  0  0
 39 34  1  0  0  0
 20 29  1  0  0  0
 11 12  1  0  0  0
 32 33  1  0  0  0
 40 43  1  0  0  0
M  END
> <minimizedAffinity>
-7.01974

> <CNNscore>
0.2954906523

> <CNNaffinity>
7.2905244827

> <CNN_VS>
2.1542818546

> <CNNaffinity_variance>
0.1979315132

$$$$
[H]C([H])=C([H])C(=O)N([H])c1c([H])c([H])c([H])c(N([H])c2nc(N([H])c3c([H])c([H])c(N4C([H])([H])C([H])([H])N(C(=O)N([H])C([H])([H])[H])C([H])([H])C4([H])[H])c([H])c3OC([H])([H])[H])nc([H])c2C(F)(F)F)c1[H]


 45 48  0  0  0  0  0  0  0  0999 V2000
    0.4995  -52.5725  -21.0942 C   0  0  0  0  0  0  0  0  0  0  0  0
   -0.4687  -53.2742  -20.4873 N   0  0  0  0  0  0  0  0  0  0  0  0
   -0.8205  -53.0565  -19.2183 C   0  0  0  0  0  0  0  0  0  0  0  0
   -0.2077  -52.0892  -18.4412 C   0  0  0  0  0  0  0  0  0  0  0  0
    0.8081  -51.3430  -19.0534 C   0  0  0  0  0  0  0  0  0  0  0  0
    1.0845  -51.6345  -20.3188 N   0  0  0  0  0  0  0  0  0  0  0  0
   -0.6279  -51.8526  -17.0375 C   0  0  0  0  0  0  0  0  0  0  0  0
   -1.1459  -50.5877  -16.8255 F   0  0  0  0  0  0  0  0  0  0  0  0
   -1.7141  -52.7109  -16.7715 F   0  0  0  0  0  0  0  0  0  0  0  0
    0.3250  -52.2175  -16.1105 F   0  0  0  0  0  0  0  0  0  0  0  0
    0.9147  -52.7513  -22.4402 N   0  0  0  0  0  0  0  0  0  0  0  0
    0.6839  -53.7485  -22.8054 H   0  0  0  0  0  0  0  0  0  0  0  0
    2.6341  -50.0486  -25.1721 C   0  0  0  0  0  0  0  0  0  0  0  0
    3.2445  -50.3028  -23.9862 C   0  0  0  0  0  0  0  0  0  0  0  0
    2.7032  -51.2020  -23.0484 C   0  0  0  0  0  0  0  0  0  0  0  0
    1.5404  -51.8545  -23.2964 C   0  0  0  0  0  0  0  0  0  0  0  0
    0.9283  -51.5767  -24.5246 C   0  0  0  0  0  0  0  0  0  0  0  0
    1.4601  -50.6991  -25.4362 C   0  0  0  0  0  0  0  0  0  0  0  0
    6.0555  -45.5518  -30.6724 C   0  0  0  0  0  0  0  0  0  0  0  0
    5.5482  -46.5804  -29.7894 N   0  0  0  0  0  0  0  0  0  0  0  0
    4.5041  -46.3143  -28.8743 C   0  0  0  0  0  0  0  0  0  0  0  0
    4.0106  -45.1639  -28.8306 O   0  0  0  0  0  0  0  0  0  0  0  0
    3.9957  -47.3000  -28.0044 N   0  0  0  0  0  0  0  0  0  0  0  0
    4.5676  -48.6322  -28.0590 C   0  0  0  0  0  0  0  0  0  0  0  0
    3.6968  -49.6513  -27.3539 C   0  0  0  0  0  0  0  0  0  0  0  0
    3.2042  -49.1315  -26.0899 N   0  0  0  0  0  0  0  0  0  0  0  0
    3.2718  -47.7225  -25.7646 C   0  0  0  0  0  0  0  0  0  0  0  0
    2.9305  -46.9962  -27.0780 C   0  0  0  0  0  0  0  0  0  0  0  0
    5.9894  -47.5340  -29.8599 H   0  0  0  0  0  0  0  0  0  0  0  0
   -0.2506  -52.2102  -24.8251 O   0  0  0  0  0  0  0  0  0  0  0  0
   -1.0535  -51.7483  -25.8824 C   0  0  0  0  0  0  0  0  0  0  0  0
    1.4766  -50.3842  -18.2873 N   0  0  0  0  0  0  0  0  0  0  0  0
    1.2927  -50.3487  -17.2383 H   0  0  0  0  0  0  0  0  0  0  0  0
    2.4114  -49.4083  -18.7317 C   0  0  0  0  0  0  0  0  0  0  0  0
    1.9721  -48.3768  -19.5734 C   0  0  0  0  0  0  0  0  0  0  0  0
    2.8361  -47.4285  -20.0312 C   0  0  0  0  0  0  0  0  0  0  0  0
    4.1494  -47.4436  -19.6945 C   0  0  0  0  0  0  0  0  0  0  0  0
    4.6417  -48.4580  -18.8529 C   0  0  0  0  0  0  0  0  0  0  0  0
    3.7567  -49.4082  -18.3984 C   0  0  0  0  0  0  0  0  0  0  0  0
    6.0042  -48.3719  -18.5375 N   0  0  0  0  0  0  0  0  0  0  0  0
    7.0768  -48.7474  -19.3628 C   0  0  0  0  0  0  0  0  0  0  0  0
    6.8629  -49.2028  -20.5097 O   0  0  0  0  0  0  0  0  0  0  0  0
    6.2672  -47.9928  -17.5764 H   0  0  0  0  0  0  0  0  0  0  0  0
    8.4544  -48.6066  -18.8847 C   0  0  0  0  0  0  0  0  0  0  0  0
    9.3156  -49.5684  -19.0488 C   0  0  0  0  0  0  0  0  0  0  0  0
 19 20  1  0  0  0
 20 21  1  0  0  0
 21 22  2  0  0  0
 21 23  1  0  0  0
 23 24  1  0  0  0
 24 25  1  0  0  0
 25 26  1  0  0  0
 26 27  1  0  0  0
 27 28  1  0  0  0
 26 13  1  0  0  0
 13 14  2  0  0  0
 14 15  1  0  0  0
 15 16  2  0  0  0
 16 11  1  0  0  0
 11  1  1  0  0  0
  1  2  2  0  0  0
  2  3  1  0  0  0
  3  4  2  0  0  0
  4  5  1  0  0  0
  5 32  1  0  0  0
 32 34  1  0  0  0
 34 35  2  0  0  0
 35 36  1  0  0  0
 36 37  2  0  0  0
 37 38  1  0  0  0
 38 40  1  0  0  0
 40 41  1  0  0  0
 41 42  2  0  0  0
 41 44  1  0  0  0
 44 45  2  0  0  0
 38 39  2  0  0  0
  5  6  2  0  0  0
  4  7  1  0  0  0
  7  8  1  0  0  0
  7  9  1  0  0  0
  7 10  1  0  0  0
 16 17  1  0  0  0
 17 30  1  0  0  0
 30 31  1  0  0  0
 17 18  2  0  0  0
 28 23  1  0  0  0
 18 13  1  0  0  0
  6  1  1  0  0  0
 39 34  1  0  0  0
 20 29  1  0  0  0
 11 12  1  0  0  0
 32 33  1  0  0  0
 40 43  1  0  0  0
M  END
> <minimizedAffinity>
-6.83235

> <CNNscore>
0.2574276924

> <CNNaffinity>
6.9777083397

> <CNN_VS>
1.7962553501

> <CNNaffinity_variance>
0.2105798274

$$$$
[H]C([H])=C([H])C(=O)N([H])c1c([H])c([H])c([H])c(N([H])c2nc(N([H])c3c([H])c([H])c(N4C([H])([H])C([H])([H])N(C(=O)N([H])C([H])([H])[H])C([H])([H])C4([H])[H])c([H])c3OC([H])([H])[H])nc([H])c2C(F)(F)F)c1[H]


 45 48  0  0  0  0  0  0  0  0999 V2000
   -0.5167  -52.7771  -22.5410 C   0  0  0  0  0  0  0  0  0  0  0  0
   -0.9188  -53.9870  -22.9566 N   0  0  0  0  0  0  0  0  0  0  0  0
   -0.6828  -54.4328  -24.1923 C   0  0  0  0  0  0  0  0  0  0  0  0
   -0.0053  -53.6741  -25.1307 C   0  0  0  0  0  0  0  0  0  0  0  0
    0.4245  -52.4052  -24.7199 C   0  0  0  0  0  0  0  0  0  0  0  0
    0.1418  -52.0532  -23.4714 N   0  0  0  0  0  0  0  0  0  0  0  0
    0.2615  -54.1977  -26.4935 C   0  0  0  0  0  0  0  0  0  0  0  0
    0.0736  -55.5637  -26.6031 F   0  0  0  0  0  0  0  0  0  0  0  0
   -0.7138  -53.6531  -27.3535 F   0  0  0  0  0  0  0  0  0  0  0  0
    1.4581  -53.7643  -27.0235 F   0  0  0  0  0  0  0  0  0  0  0  0
   -0.7306  -52.2489  -21.2405 N   0  0  0  0  0  0  0  0  0  0  0  0
   -1.6256  -52.6588  -20.7800 H   0  0  0  0  0  0  0  0  0  0  0  0
    1.5460  -49.5912  -18.9002 C   0  0  0  0  0  0  0  0  0  0  0  0
    1.3675  -49.3541  -20.2252 C   0  0  0  0  0  0  0  0  0  0  0  0
    0.6106  -50.2168  -21.0400 C   0  0  0  0  0  0  0  0  0  0  0  0
    0.0258  -51.3279  -20.5275 C   0  0  0  0  0  0  0  0  0  0  0  0
    0.2236  -51.5527  -19.1599 C   0  0  0  0  0  0  0  0  0  0  0  0
    0.9624  -50.7084  -18.3690 C   0  0  0  0  0  0  0  0  0  0  0  0
    5.4891  -44.9395  -13.9007 C   0  0  0  0  0  0  0  0  0  0  0  0
    4.6202  -45.8598  -14.6030 N   0  0  0  0  0  0  0  0  0  0  0  0
    4.9239  -46.3055  -15.9097 C   0  0  0  0  0  0  0  0  0  0  0  0
    5.9673  -45.8939  -16.4668 O   0  0  0  0  0  0  0  0  0  0  0  0
    4.0917  -47.2001  -16.6126 N   0  0  0  0  0  0  0  0  0  0  0  0
    2.8849  -47.6772  -15.9637 C   0  0  0  0  0  0  0  0  0  0  0  0
    2.3020  -48.8838  -16.6696 C   0  0  0  0  0  0  0  0  0  0  0  0
    2.3205  -48.7046  -18.1112 N   0  0  0  0  0  0  0  0  0  0  0  0
    3.1094  -47.6678  -18.7423 C   0  0  0  0  0  0  0  0  0  0  0  0
    4.4275  -47.6345  -17.9481 C   0  0  0  0  0  0  0  0  0  0  0  0
    3.7545  -46.1828  -14.0978 H   0  0  0  0  0  0  0  0  0  0  0  0
   -0.3465  -52.6632  -18.5911 O   0  0  0  0  0  0  0  0  0  0  0  0
   -1.0293  -52.5605  -17.3667 C   0  0  0  0  0  0  0  0  0  0  0  0
    1.0773  -51.5949  -25.6529 N   0  0  0  0  0  0  0  0  0  0  0  0
    0.6359  -51.4637  -26.6138 H   0  0  0  0  0  0  0  0  0  0  0  0
    2.3008  -50.8875  -25.4903 C   0  0  0  0  0  0  0  0  0  0  0  0
    2.5675  -49.7875  -26.3174 C   0  0  0  0  0  0  0  0  0  0  0  0
    3.7314  -49.0892  -26.2031 C   0  0  0  0  0  0  0  0  0  0  0  0
    4.6751  -49.4280  -25.2905 C   0  0  0  0  0  0  0  0  0  0  0  0
    4.4570  -50.5247  -24.4363 C   0  0  0  0  0  0  0  0  0  0  0  0
    3.2765  -51.2196  -24.5637 C   0  0  0  0  0  0  0  0  0  0  0  0
    5.4753  -50.7779  -23.5077 N   0  0  0  0  0  0  0  0  0  0  0  0
    5.6352  -50.1609  -22.2562 C   0  0  0  0  0  0  0  0  0  0  0  0
    4.8157  -49.2971  -21.8677 O   0  0  0  0  0  0  0  0  0  0  0  0
    6.2129  -51.5028  -23.7667 H   0  0  0  0  0  0  0  0  0  0  0  0
    6.7637  -50.5269  -21.3967 C   0  0  0  0  0  0  0  0  0  0  0  0
    7.7036  -49.6663  -21.1329 C   0  0  0  0  0  0  0  0  0  0  0  0
 19 20  1  0  0  0
 20 21  1  0  0  0
 21 22  2  0  0  0
 21 23  1  0  0  0
 23 24  1  0  0  0
 24 25  1  0  0  0
 25 26  1  0  0  0
 26 27  1  0  0  0
 27 28  1  0  0  0
 26 13  1  0  0  0
 13 14  2  0  0  0
 14 15  1  0  0  0
 15 16  2  0  0  0
 16 11  1  0  0  0
 11  1  1  0  0  0
  1  2  2  0  0  0
  2  3  1  0  0  0
  3  4  2  0  0  0
  4  5  1  0  0  0
  5 32  1  0  0  0
 32 34  1  0  0  0
 34 35  2  0  0  0
 35 36  1  0  0  0
 36 37  2  0  0  0
 37 38  1  0  0  0
 38 40  1  0  0  0
 40 41  1  0  0  0
 41 42  2  0  0  0
 41 44  1  0  0  0
 44 45  2  0  0  0
 38 39  2  0  0  0
  5  6  2  0  0  0
  4  7  1  0  0  0
  7  8  1  0  0  0
  7  9  1  0  0  0
  7 10  1  0  0  0
 16 17  1  0  0  0
 17 30  1  0  0  0
 30 31  1  0  0  0
 17 18  2  0  0  0
 28 23  1  0  0  0
 18 13  1  0  0  0
  6  1  1  0  0  0
 39 34  1  0  0  0
 20 29  1  0  0  0
 11 12  1  0  0  0
 32 33  1  0  0  0
 40 43  1  0  0  0
M  END
> <minimizedAffinity>
-7.57032

> <CNNscore>
0.2523629665

> <CNNaffinity>
7.2773475647

> <CNN_VS>
1.8365330696

> <CNNaffinity_variance>
0.2083275318

$$$$
[H]C([H])=C([H])C(=O)N([H])c1c([H])c([H])c([H])c(N([H])c2nc(N([H])c3c([H])c([H])c(N4C([H])([H])C([H])([H])N(C(=O)N([H])C([H])([H])[H])C([H])([H])C4([H])[H])c([H])c3OC([H])([H])[H])nc([H])c2C(F)(F)F)c1[H]


 45 48  0  0  0  0  0  0  0  0999 V2000
    0.6260  -52.7327  -21.6075 C   0  0  0  0  0  0  0  0  0  0  0  0
   -0.6214  -52.9527  -22.0477 N   0  0  0  0  0  0  0  0  0  0  0  0
   -0.9541  -52.8433  -23.3357 C   0  0  0  0  0  0  0  0  0  0  0  0
   -0.0313  -52.4944  -24.3062 C   0  0  0  0  0  0  0  0  0  0  0  0
    1.2793  -52.2586  -23.8702 C   0  0  0  0  0  0  0  0  0  0  0  0
    1.5103  -52.3933  -22.5698 N   0  0  0  0  0  0  0  0  0  0  0  0
   -0.4202  -52.3963  -25.7352 C   0  0  0  0  0  0  0  0  0  0  0  0
   -1.7367  -52.7491  -25.9711 F   0  0  0  0  0  0  0  0  0  0  0  0
   -0.3663  -51.0343  -26.0950 F   0  0  0  0  0  0  0  0  0  0  0  0
    0.4728  -53.0064  -26.5901 F   0  0  0  0  0  0  0  0  0  0  0  0
    1.0439  -52.8389  -20.2546 N   0  0  0  0  0  0  0  0  0  0  0  0
    1.2399  -53.8697  -19.9719 H   0  0  0  0  0  0  0  0  0  0  0  0
    1.8072  -49.7979  -17.4450 C   0  0  0  0  0  0  0  0  0  0  0  0
    0.5442  -50.2643  -17.6212 C   0  0  0  0  0  0  0  0  0  0  0  0
    0.2493  -51.2819  -18.5477 C   0  0  0  0  0  0  0  0  0  0  0  0
    1.2249  -51.8401  -19.3067 C   0  0  0  0  0  0  0  0  0  0  0  0
    2.5189  -51.3436  -19.1089 C   0  0  0  0  0  0  0  0  0  0  0  0
    2.8018  -50.3511  -18.2038 C   0  0  0  0  0  0  0  0  0  0  0  0
    3.7522  -43.7806  -12.7344 C   0  0  0  0  0  0  0  0  0  0  0  0
    3.5968  -44.7976  -13.7525 N   0  0  0  0  0  0  0  0  0  0  0  0
    2.4461  -45.6172  -13.8033 C   0  0  0  0  0  0  0  0  0  0  0  0
    1.5450  -45.4560  -12.9485 O   0  0  0  0  0  0  0  0  0  0  0  0
    2.2745  -46.6143  -14.7848 N   0  0  0  0  0  0  0  0  0  0  0  0
    3.3189  -46.7970  -15.7751 C   0  0  0  0  0  0  0  0  0  0  0  0
    2.8441  -47.6231  -16.9525 C   0  0  0  0  0  0  0  0  0  0  0  0
    2.0666  -48.7670  -16.5078 N   0  0  0  0  0  0  0  0  0  0  0  0
    1.5524  -48.8634  -15.1580 C   0  0  0  0  0  0  0  0  0  0  0  0
    1.0887  -47.4380  -14.8083 C   0  0  0  0  0  0  0  0  0  0  0  0
    4.3767  -44.8987  -14.4529 H   0  0  0  0  0  0  0  0  0  0  0  0
    3.5428  -51.8740  -19.8517 O   0  0  0  0  0  0  0  0  0  0  0  0
    4.2296  -51.0758  -20.7829 C   0  0  0  0  0  0  0  0  0  0  0  0
    2.2295  -51.8654  -24.8166 N   0  0  0  0  0  0  0  0  0  0  0  0
    2.6653  -52.6090  -25.4432 H   0  0  0  0  0  0  0  0  0  0  0  0
    2.7150  -50.5530  -25.0732 C   0  0  0  0  0  0  0  0  0  0  0  0
    3.1126  -50.2155  -26.3744 C   0  0  0  0  0  0  0  0  0  0  0  0
    3.5939  -48.9740  -26.6614 C   0  0  0  0  0  0  0  0  0  0  0  0
    3.7087  -48.0192  -25.7056 C   0  0  0  0  0  0  0  0  0  0  0  0
    3.3242  -48.3071  -24.3830 C   0  0  0  0  0  0  0  0  0  0  0  0
    2.8395  -49.5652  -24.1091 C   0  0  0  0  0  0  0  0  0  0  0  0
    3.4512  -47.2485  -23.4738 N   0  0  0  0  0  0  0  0  0  0  0  0
    4.4834  -47.0720  -22.5378 C   0  0  0  0  0  0  0  0  0  0  0  0
    5.4183  -47.9020  -22.4635 O   0  0  0  0  0  0  0  0  0  0  0  0
    2.6925  -46.4995  -23.4765 H   0  0  0  0  0  0  0  0  0  0  0  0
    4.4715  -45.9124  -21.6427 C   0  0  0  0  0  0  0  0  0  0  0  0
    4.2325  -46.0573  -20.3716 C   0  0  0  0  0  0  0  0  0  0  0  0
 19 20  1  0  0  0
 20 21  1  0  0  0
 21 22  2  0  0  0
 21 23  1  0  0  0
 23 24  1  0  0  0
 24 25  1  0  0  0
 25 26  1  0  0  0
 26 27  1  0  0  0
 27 28  1  0  0  0
 26 13  1  0  0  0
 13 14  2  0  0  0
 14 15  1  0  0  0
 15 16  2  0  0  0
 16 11  1  0  0  0
 11  1  1  0  0  0
  1  2  2  0  0  0
  2  3  1  0  0  0
  3  4  2  0  0  0
  4  5  1  0  0  0
  5 32  1  0  0  0
 32 34  1  0  0  0
 34 35  2  0  0  0
 35 36  1  0  0  0
 36 37  2  0  0  0
 37 38  1  0  0  0
 38 40  1  0  0  0
 40 41  1  0  0  0
 41 42  2  0  0  0
 41 44  1  0  0  0
 44 45  2  0  0  0
 38 39  2  0  0  0
  5  6  2  0  0  0
  4  7  1  0  0  0
  7  8  1  0  0  0
  7  9  1  0  0  0
  7 10  1  0  0  0
 16 17  1  0  0  0
 17 30  1  0  0  0
 30 31  1  0  0  0
 17 18  2  0  0  0
 28 23  1  0  0  0
 18 13  1  0  0  0
  6  1  1  0  0  0
 39 34  1  0  0  0
 20 29  1  0  0  0
 11 12  1  0  0  0
 32 33  1  0  0  0
 40 43  1  0  0  0
M  END
> <minimizedAffinity>
-6.70052

> <CNNscore>
0.2040452361

> <CNNaffinity>
6.6699056625

> <CNN_VS>
1.3609625101

> <CNNaffinity_variance>
0.2964748442

$$$$
[H]C([H])=C([H])C(=O)N([H])c1c([H])c([H])c([H])c(N([H])c2nc(N([H])c3c([H])c([H])c(N4C([H])([H])C([H])([H])N(C(=O)N([H])C([H])([H])[H])C([H])([H])C4([H])[H])c([H])c3OC([H])([H])[H])nc([H])c2C(F)(F)F)c1[H]


 45 48  0  0  0  0  0  0  0  0999 V2000
    0.6083  -53.0636  -22.2458 C   0  0  0  0  0  0  0  0  0  0  0  0
   -0.5927  -53.2467  -22.8135 N   0  0  0  0  0  0  0  0  0  0  0  0
   -0.7997  -53.0699  -24.1202 C   0  0  0  0  0  0  0  0  0  0  0  0
    0.2143  -52.6844  -24.9795 C   0  0  0  0  0  0  0  0  0  0  0  0
    1.4788  -52.4861  -24.4092 C   0  0  0  0  0  0  0  0  0  0  0  0
    1.5831  -52.6876  -23.1011 N   0  0  0  0  0  0  0  0  0  0  0  0
   -0.0352  -52.5113  -26.4323 C   0  0  0  0  0  0  0  0  0  0  0  0
   -1.1923  -53.1312  -26.8681 F   0  0  0  0  0  0  0  0  0  0  0  0
   -0.2807  -51.1416  -26.6583 F   0  0  0  0  0  0  0  0  0  0  0  0
    1.0648  -52.7902  -27.2151 F   0  0  0  0  0  0  0  0  0  0  0  0
    0.8939  -53.2414  -20.8663 N   0  0  0  0  0  0  0  0  0  0  0  0
    1.0518  -54.2876  -20.6179 H   0  0  0  0  0  0  0  0  0  0  0  0
    1.3990  -50.3125  -17.8847 C   0  0  0  0  0  0  0  0  0  0  0  0
    0.2159  -50.9677  -18.0056 C   0  0  0  0  0  0  0  0  0  0  0  0
    0.0092  -51.9553  -18.9870 C   0  0  0  0  0  0  0  0  0  0  0  0
    0.9933  -52.2927  -19.8570 C   0  0  0  0  0  0  0  0  0  0  0  0
    2.2040  -51.6041  -19.7144 C   0  0  0  0  0  0  0  0  0  0  0  0
    2.4011  -50.6418  -18.7556 C   0  0  0  0  0  0  0  0  0  0  0  0
    2.9550  -44.5401  -12.7429 C   0  0  0  0  0  0  0  0  0  0  0  0
    2.9023  -45.5286  -13.7988 N   0  0  0  0  0  0  0  0  0  0  0  0
    1.7150  -46.2431  -14.0783 C   0  0  0  0  0  0  0  0  0  0  0  0
    0.6901  -46.0124  -13.3963 O   0  0  0  0  0  0  0  0  0  0  0  0
    1.6413  -47.2108  -15.1006 N   0  0  0  0  0  0  0  0  0  0  0  0
    2.8294  -47.4741  -15.8906 C   0  0  0  0  0  0  0  0  0  0  0  0
    2.5089  -48.2427  -17.1557 C   0  0  0  0  0  0  0  0  0  0  0  0
    1.5696  -49.3184  -16.8892 N   0  0  0  0  0  0  0  0  0  0  0  0
    0.8117  -49.3836  -15.6575 C   0  0  0  0  0  0  0  0  0  0  0  0
    0.4143  -47.9267  -15.3596 C   0  0  0  0  0  0  0  0  0  0  0  0
    3.7854  -45.6904  -14.3493 H   0  0  0  0  0  0  0  0  0  0  0  0
    3.2327  -51.9072  -20.5696 O   0  0  0  0  0  0  0  0  0  0  0  0
    4.3142  -51.0217  -20.7188 C   0  0  0  0  0  0  0  0  0  0  0  0
    2.5181  -52.0580  -25.2397 N   0  0  0  0  0  0  0  0  0  0  0  0
    2.8999  -52.7330  -25.9705 H   0  0  0  0  0  0  0  0  0  0  0  0
    3.1634  -50.7902  -25.2478 C   0  0  0  0  0  0  0  0  0  0  0  0
    4.3280  -50.6130  -24.4879 C   0  0  0  0  0  0  0  0  0  0  0  0
    4.9709  -49.4126  -24.4582 C   0  0  0  0  0  0  0  0  0  0  0  0
    4.5130  -48.3452  -25.1577 C   0  0  0  0  0  0  0  0  0  0  0  0
    3.3473  -48.4697  -25.9358 C   0  0  0  0  0  0  0  0  0  0  0  0
    2.7096  -49.6886  -25.9559 C   0  0  0  0  0  0  0  0  0  0  0  0
    2.9703  -47.3219  -26.6455 N   0  0  0  0  0  0  0  0  0  0  0  0
    3.2176  -47.0620  -28.0034 C   0  0  0  0  0  0  0  0  0  0  0  0
    3.8219  -47.9025  -28.7083 O   0  0  0  0  0  0  0  0  0  0  0  0
    2.4502  -46.5587  -26.1129 H   0  0  0  0  0  0  0  0  0  0  0  0
    2.7674  -45.8035  -28.6032 C   0  0  0  0  0  0  0  0  0  0  0  0
    2.1257  -45.7999  -29.7355 C   0  0  0  0  0  0  0  0  0  0  0  0
 19 20  1  0  0  0
 20 21  1  0  0  0
 21 22  2  0  0  0
 21 23  1  0  0  0
 23 24  1  0  0  0
 24 25  1  0  0  0
 25 26  1  0  0  0
 26 27  1  0  0  0
 27 28  1  0  0  0
 26 13  1  0  0  0
 13 14  2  0  0  0
 14 15  1  0  0  0
 15 16  2  0  0  0
 16 11  1  0  0  0
 11  1  1  0  0  0
  1  2  2  0  0  0
  2  3  1  0  0  0
  3  4  2  0  0  0
  4  5  1  0  0  0
  5 32  1  0  0  0
 32 34  1  0  0  0
 34 35  2  0  0  0
 35 36  1  0  0  0
 36 37  2  0  0  0
 37 38  1  0  0  0
 38 40  1  0  0  0
 40 41  1  0  0  0
 41 42  2  0  0  0
 41 44  1  0  0  0
 44 45  2  0  0  0
 38 39  2  0  0  0
  5  6  2  0  0  0
  4  7  1  0  0  0
  7  8  1  0  0  0
  7  9  1  0  0  0
  7 10  1  0  0  0
 16 17  1  0  0  0
 17 30  1  0  0  0
 30 31  1  0  0  0
 17 18  2  0  0  0
 28 23  1  0  0  0
 18 13  1  0  0  0
  6  1  1  0  0  0
 39 34  1  0  0  0
 20 29  1  0  0  0
 11 12  1  0  0  0
 32 33  1  0  0  0
 40 43  1  0  0  0
M  END
> <minimizedAffinity>
-7.06404

> <CNNscore>
0.1554281712

> <CNNaffinity>
6.7805528641

> <CNN_VS>
1.0538889170

> <CNNaffinity_variance>
0.2323906422

$$$$
[H]C([H])=C([H])C(=O)N([H])c1c([H])c([H])c([H])c(N([H])c2nc(N([H])c3c([H])c([H])c(N4C([H])([H])C([H])([H])N(C(=O)N([H])C([H])([H])[H])C([H])([H])C4([H])[H])c([H])c3OC([H])([H])[H])nc([H])c2C(F)(F)F)c1[H]


 45 48  0  0  0  0  0  0  0  0999 V2000
   -0.0577  -52.3287  -22.8954 C   0  0  0  0  0  0  0  0  0  0  0  0
   -0.9808  -52.2707  -23.8663 N   0  0  0  0  0  0  0  0  0  0  0  0
   -0.6658  -52.3765  -25.1590 C   0  0  0  0  0  0  0  0  0  0  0  0
    0.6388  -52.5536  -25.5855 C   0  0  0  0  0  0  0  0  0  0  0  0
    1.6218  -52.6166  -24.5889 C   0  0  0  0  0  0  0  0  0  0  0  0
    1.2081  -52.5014  -23.3327 N   0  0  0  0  0  0  0  0  0  0  0  0
    0.9634  -52.6867  -27.0276 C   0  0  0  0  0  0  0  0  0  0  0  0
   -0.1154  -52.4416  -27.8579 F   0  0  0  0  0  0  0  0  0  0  0  0
    1.8773  -51.6632  -27.3510 F   0  0  0  0  0  0  0  0  0  0  0  0
    1.6377  -53.8497  -27.3333 F   0  0  0  0  0  0  0  0  0  0  0  0
   -0.3290  -52.2296  -21.5052 N   0  0  0  0  0  0  0  0  0  0  0  0
   -1.0811  -52.9471  -21.1880 H   0  0  0  0  0  0  0  0  0  0  0  0
    1.3050  -49.8033  -18.4774 C   0  0  0  0  0  0  0  0  0  0  0  0
    1.3550  -49.4045  -19.7744 C   0  0  0  0  0  0  0  0  0  0  0  0
    0.8171  -50.1856  -20.8144 C   0  0  0  0  0  0  0  0  0  0  0  0
    0.2231  -51.3775  -20.5577 C   0  0  0  0  0  0  0  0  0  0  0  0
    0.1833  -51.7689  -19.2140 C   0  0  0  0  0  0  0  0  0  0  0  0
    0.7091  -51.0036  -18.2031 C   0  0  0  0  0  0  0  0  0  0  0  0
    4.9340  -45.0810  -13.3093 C   0  0  0  0  0  0  0  0  0  0  0  0
    4.4748  -45.8899  -14.4182 N   0  0  0  0  0  0  0  0  0  0  0  0
    3.1593  -46.4059  -14.4565 C   0  0  0  0  0  0  0  0  0  0  0  0
    2.3785  -46.1551  -13.5099 O   0  0  0  0  0  0  0  0  0  0  0  0
    2.6914  -47.1968  -15.5255 N   0  0  0  0  0  0  0  0  0  0  0  0
    3.5973  -47.4837  -16.6218 C   0  0  0  0  0  0  0  0  0  0  0  0
    2.8650  -48.0135  -17.8372 C   0  0  0  0  0  0  0  0  0  0  0  0
    1.8633  -48.9944  -17.4565 N   0  0  0  0  0  0  0  0  0  0  0  0
    1.4256  -49.1472  -16.0851 C   0  0  0  0  0  0  0  0  0  0  0  0
    1.3426  -47.7124  -15.5339 C   0  0  0  0  0  0  0  0  0  0  0  0
    5.1623  -46.0752  -15.1942 H   0  0  0  0  0  0  0  0  0  0  0  0
   -0.4066  -52.9667  -18.8996 O   0  0  0  0  0  0  0  0  0  0  0  0
   -1.3132  -53.0503  -17.8287 C   0  0  0  0  0  0  0  0  0  0  0  0
    2.9551  -52.7550  -24.9842 N   0  0  0  0  0  0  0  0  0  0  0  0
    3.2482  -53.6448  -25.4921 H   0  0  0  0  0  0  0  0  0  0  0  0
    4.0214  -51.8320  -24.7977 C   0  0  0  0  0  0  0  0  0  0  0  0
    5.2426  -52.2949  -24.2883 C   0  0  0  0  0  0  0  0  0  0  0  0
    6.2857  -51.4432  -24.0834 C   0  0  0  0  0  0  0  0  0  0  0  0
    6.1861  -50.1198  -24.3612 C   0  0  0  0  0  0  0  0  0  0  0  0
    4.9815  -49.6039  -24.8736 C   0  0  0  0  0  0  0  0  0  0  0  0
    3.9374  -50.4767  -25.0755 C   0  0  0  0  0  0  0  0  0  0  0  0
    4.9853  -48.2317  -25.1574 N   0  0  0  0  0  0  0  0  0  0  0  0
    5.2650  -47.6374  -26.3988 C   0  0  0  0  0  0  0  0  0  0  0  0
    5.5362  -48.3484  -27.3935 O   0  0  0  0  0  0  0  0  0  0  0  0
    4.7630  -47.5603  -24.3597 H   0  0  0  0  0  0  0  0  0  0  0  0
    5.2397  -46.1791  -26.5363 C   0  0  0  0  0  0  0  0  0  0  0  0
    5.0496  -45.6251  -27.6984 C   0  0  0  0  0  0  0  0  0  0  0  0
 19 20  1  0  0  0
 20 21  1  0  0  0
 21 22  2  0  0  0
 21 23  1  0  0  0
 23 24  1  0  0  0
 24 25  1  0  0  0
 25 26  1  0  0  0
 26 27  1  0  0  0
 27 28  1  0  0  0
 26 13  1  0  0  0
 13 14  2  0  0  0
 14 15  1  0  0  0
 15 16  2  0  0  0
 16 11  1  0  0  0
 11  1  1  0  0  0
  1  2  2  0  0  0
  2  3  1  0  0  0
  3  4  2  0  0  0
  4  5  1  0  0  0
  5 32  1  0  0  0
 32 34  1  0  0  0
 34 35  2  0  0  0
 35 36  1  0  0  0
 36 37  2  0  0  0
 37 38  1  0  0  0
 38 40  1  0  0  0
 40 41  1  0  0  0
 41 42  2  0  0  0
 41 44  1  0  0  0
 44 45  2  0  0  0
 38 39  2  0  0  0
  5  6  2  0  0  0
  4  7  1  0  0  0
  7  8  1  0  0  0
  7  9  1  0  0  0
  7 10  1  0  0  0
 16 17  1  0  0  0
 17 30  1  0  0  0
 30 31  1  0  0  0
 17 18  2  0  0  0
 28 23  1  0  0  0
 18 13  1  0  0  0
  6  1  1  0  0  0
 39 34  1  0  0  0
 20 29  1  0  0  0
 11 12  1  0  0  0
 32 33  1  0  0  0
 40 43  1  0  0  0
M  END
> <minimizedAffinity>
-6.71106

> <CNNscore>
0.1421089321

> <CNNaffinity>
6.8930768967

> <CNN_VS>
0.9795678258

> <CNNaffinity_variance>
0.3238438368

$$$$
[H]C([H])=C([H])C(=O)N([H])c1c([H])c([H])c([H])c(N([H])c2nc(N([H])c3c([H])c([H])c(N4C([H])([H])C([H])([H])N(C(=O)N([H])C([H])([H])[H])C([H])([H])C4([H])[H])c([H])c3OC([H])([H])[H])nc([H])c2C(F)(F)F)c1[H]


 45 48  0  0  0  0  0  0  0  0999 V2000
   -1.2523  -52.3727  -17.2757 C   0  0  0  0  0  0  0  0  0  0  0  0
   -2.3901  -53.0789  -17.3457 N   0  0  0  0  0  0  0  0  0  0  0  0
   -3.4164  -52.8638  -16.5200 C   0  0  0  0  0  0  0  0  0  0  0  0
   -3.3753  -51.8945  -15.5331 C   0  0  0  0  0  0  0  0  0  0  0  0
   -2.1959  -51.1436  -15.4398 C   0  0  0  0  0  0  0  0  0  0  0  0
   -1.2326  -51.4328  -16.3064 N   0  0  0  0  0  0  0  0  0  0  0  0
   -4.5358  -51.6608  -14.6379 C   0  0  0  0  0  0  0  0  0  0  0  0
   -5.1600  -50.4457  -14.8545 F   0  0  0  0  0  0  0  0  0  0  0  0
   -5.5230  -52.6110  -14.9696 F   0  0  0  0  0  0  0  0  0  0  0  0
   -4.2627  -51.9082  -13.3094 F   0  0  0  0  0  0  0  0  0  0  0  0
   -0.1297  -52.5485  -18.1271 N   0  0  0  0  0  0  0  0  0  0  0  0
    0.8003  -52.5899  -17.5663 H   0  0  0  0  0  0  0  0  0  0  0  0
    0.0955  -52.7100  -22.3279 C   0  0  0  0  0  0  0  0  0  0  0  0
   -0.2624  -53.8119  -21.6198 C   0  0  0  0  0  0  0  0  0  0  0  0
   -0.3523  -53.7970  -20.2153 C   0  0  0  0  0  0  0  0  0  0  0  0
   -0.0822  -52.6707  -19.5097 C   0  0  0  0  0  0  0  0  0  0  0  0
    0.2852  -51.5473  -20.2600 C   0  0  0  0  0  0  0  0  0  0  0  0
    0.3714  -51.5665  -21.6298 C   0  0  0  0  0  0  0  0  0  0  0  0
   -0.1808  -52.9396  -30.2052 C   0  0  0  0  0  0  0  0  0  0  0  0
   -0.3974  -52.9089  -28.7744 N   0  0  0  0  0  0  0  0  0  0  0  0
    0.6441  -52.5712  -27.8803 C   0  0  0  0  0  0  0  0  0  0  0  0
    1.7755  -52.2930  -28.3398 O   0  0  0  0  0  0  0  0  0  0  0  0
    0.4560  -52.5365  -26.4837 N   0  0  0  0  0  0  0  0  0  0  0  0
   -0.8563  -52.8569  -25.9544 C   0  0  0  0  0  0  0  0  0  0  0  0
   -1.0040  -52.4277  -24.5094 C   0  0  0  0  0  0  0  0  0  0  0  0
    0.1827  -52.7632  -23.7414 N   0  0  0  0  0  0  0  0  0  0  0  0
    1.4287  -53.1295  -24.3810 C   0  0  0  0  0  0  0  0  0  0  0  0
    1.5410  -52.1910  -25.5958 C   0  0  0  0  0  0  0  0  0  0  0  0
   -1.3637  -53.1475  -28.4301 H   0  0  0  0  0  0  0  0  0  0  0  0
    0.5694  -50.3818  -19.5949 O   0  0  0  0  0  0  0  0  0  0  0  0
    1.0089  -49.2505  -20.3042 C   0  0  0  0  0  0  0  0  0  0  0  0
   -2.1030  -50.1826  -14.4294 N   0  0  0  0  0  0  0  0  0  0  0  0
   -2.6509  -50.3336  -13.5280 H   0  0  0  0  0  0  0  0  0  0  0  0
   -1.3434  -48.9798  -14.4356 C   0  0  0  0  0  0  0  0  0  0  0  0
   -0.0447  -48.9909  -13.9080 C   0  0  0  0  0  0  0  0  0  0  0  0
    0.7128  -47.8591  -13.8839 C   0  0  0  0  0  0  0  0  0  0  0  0
    0.2441  -46.6814  -14.3654 C   0  0  0  0  0  0  0  0  0  0  0  0
   -1.0537  -46.6160  -14.9050 C   0  0  0  0  0  0  0  0  0  0  0  0
   -1.8062  -47.7676  -14.9228 C   0  0  0  0  0  0  0  0  0  0  0  0
   -1.4370  -45.3641  -15.4044 N   0  0  0  0  0  0  0  0  0  0  0  0
   -2.0656  -44.3354  -14.6837 C   0  0  0  0  0  0  0  0  0  0  0  0
   -2.3287  -44.4843  -13.4684 O   0  0  0  0  0  0  0  0  0  0  0  0
   -1.2457  -45.1616  -16.4334 H   0  0  0  0  0  0  0  0  0  0  0  0
   -2.4160  -43.0798  -15.3521 C   0  0  0  0  0  0  0  0  0  0  0  0
   -1.8358  -42.7358  -16.4651 C   0  0  0  0  0  0  0  0  0  0  0  0
 19 20  1  0  0  0
 20 21  1  0  0  0
 21 22  2  0  0  0
 21 23  1  0  0  0
 23 24  1  0  0  0
 24 25  1  0  0  0
 25 26  1  0  0  0
 26 27  1  0  0  0
 27 28  1  0  0  0
 26 13  1  0  0  0
 13 14  2  0  0  0
 14 15  1  0  0  0
 15 16  2  0  0  0
 16 11  1  0  0  0
 11  1  1  0  0  0
  1  2  2  0  0  0
  2  3  1  0  0  0
  3  4  2  0  0  0
  4  5  1  0  0  0
  5 32  1  0  0  0
 32 34  1  0  0  0
 34 35  2  0  0  0
 35 36  1  0  0  0
 36 37  2  0  0  0
 37 38  1  0  0  0
 38 40  1  0  0  0
 40 41  1  0  0  0
 41 42  2  0  0  0
 41 44  1  0  0  0
 44 45  2  0  0  0
 38 39  2  0  0  0
  5  6  2  0  0  0
  4  7  1  0  0  0
  7  8  1  0  0  0
  7  9  1  0  0  0
  7 10  1  0  0  0
 16 17  1  0  0  0
 17 30  1  0  0  0
 30 31  1  0  0  0
 17 18  2  0  0  0
 28 23  1  0  0  0
 18 13  1  0  0  0
  6  1  1  0  0  0
 39 34  1  0  0  0
 20 29  1  0  0  0
 11 12  1  0  0  0
 32 33  1  0  0  0
 40 43  1  0  0  0
M  END
> <minimizedAffinity>
-7.76578

> <CNNscore>
0.1419820189

> <CNNaffinity>
6.8568406105

> <CNN_VS>
0.9735480547

> <CNNaffinity_variance>
0.0504317172

$$$$
[H]c1nc(N([H])c2c([H])c([H])c(OC([H])([H])c3c([H])c([H])c([H])c(F)c3[H])c(Cl)c2[H])c2c([H])c(-c3oc([C@@]([H])(N([H])[H])C([H])([H])S(=O)(=O)C([H])([H])[H])c([H])c3[H])c([H])c([H])c2n1


 42 46  0  0  0  0  0  0  0  0999 V2000
    1.3209  -51.5402  -24.4895 C   0  0  0  0  0  0  0  0  0  0  0  0
    0.5147  -51.9073  -25.5399 C   0  0  0  0  0  0  0  0  0  0  0  0
   -0.4322  -52.9060  -25.4314 C   0  0  0  0  0  0  0  0  0  0  0  0
   -0.5738  -53.5595  -24.2227 C   0  0  0  0  0  0  0  0  0  0  0  0
   -1.4796  -54.5358  -24.0657 N   0  0  0  0  0  0  0  0  0  0  0  0
   -1.6643  -55.2070  -22.9146 C   0  0  0  0  0  0  0  0  0  0  0  0
   -0.8841  -54.8620  -21.8744 N   0  0  0  0  0  0  0  0  0  0  0  0
    0.0490  -53.9051  -21.9205 C   0  0  0  0  0  0  0  0  0  0  0  0
    0.2166  -53.2317  -23.1171 C   0  0  0  0  0  0  0  0  0  0  0  0
    1.1446  -52.2260  -23.2871 C   0  0  0  0  0  0  0  0  0  0  0  0
    3.6106  -49.0163  -25.5494 C   0  0  0  0  0  0  0  0  0  0  0  0
    3.8603  -48.9178  -24.1753 C   0  0  0  0  0  0  0  0  0  0  0  0
    3.0228  -49.8609  -23.6193 C   0  0  0  0  0  0  0  0  0  0  0  0
    2.3157  -50.4823  -24.6246 C   0  0  0  0  0  0  0  0  0  0  0  0
    2.7086  -49.9397  -25.7287 O   0  0  0  0  0  0  0  0  0  0  0  0
    4.3077  -48.1683  -26.5463 C   0  0  0  0  0  0  0  0  0  0  0  0
    4.5244  -49.0471  -27.7096 N   0  0  0  0  0  0  0  0  0  0  0  0
    3.5455  -49.2374  -28.0703 H   0  0  0  0  0  0  0  0  0  0  0  0
    4.8350  -49.9689  -27.2924 H   0  0  0  0  0  0  0  0  0  0  0  0
    3.3715  -47.0775  -26.9874 C   0  0  0  0  0  0  0  0  0  0  0  0
    3.9323  -44.2982  -27.3813 C   0  0  0  0  0  0  0  0  0  0  0  0
    3.6177  -45.5478  -26.1263 S   0  0  0  0  0  0  0  0  0  0  0  0
    2.3795  -45.0867  -25.4087 O   0  0  0  0  0  0  0  0  0  0  0  0
    4.7873  -45.7040  -25.2143 O   0  0  0  0  0  0  0  0  0  0  0  0
    0.8529  -53.6138  -20.8023 N   0  0  0  0  0  0  0  0  0  0  0  0
    1.7596  -54.1672  -20.6520 H   0  0  0  0  0  0  0  0  0  0  0  0
    0.6157  -52.6378  -19.8051 C   0  0  0  0  0  0  0  0  0  0  0  0
   -0.3566  -52.8924  -18.8527 C   0  0  0  0  0  0  0  0  0  0  0  0
   -0.6093  -52.0084  -17.8598 C   0  0  0  0  0  0  0  0  0  0  0  0
    0.0815  -50.8254  -17.7500 C   0  0  0  0  0  0  0  0  0  0  0  0
    1.0412  -50.5842  -18.6970 C   0  0  0  0  0  0  0  0  0  0  0  0
    1.9695  -49.0962  -18.6296 Cl  0  0  0  0  0  0  0  0  0  0  0  0
    1.3295  -51.4788  -19.7400 C   0  0  0  0  0  0  0  0  0  0  0  0
   -0.1573  -49.9030  -16.7440 O   0  0  0  0  0  0  0  0  0  0  0  0
   -0.6118  -50.3652  -15.5056 C   0  0  0  0  0  0  0  0  0  0  0  0
   -2.0677  -50.1779  -15.3196 C   0  0  0  0  0  0  0  0  0  0  0  0
   -2.5499  -48.9040  -15.1093 C   0  0  0  0  0  0  0  0  0  0  0  0
   -3.8976  -48.6604  -14.9287 C   0  0  0  0  0  0  0  0  0  0  0  0
   -4.7947  -49.6952  -14.9554 C   0  0  0  0  0  0  0  0  0  0  0  0
   -4.3196  -50.9876  -15.1672 C   0  0  0  0  0  0  0  0  0  0  0  0
   -5.1857  -52.0292  -15.1986 F   0  0  0  0  0  0  0  0  0  0  0  0
   -2.9775  -51.2136  -15.3451 C   0  0  0  0  0  0  0  0  0  0  0  0
 21 22  1  0  0  0
 22 23  2  0  0  0
 22 24  2  0  0  0
 22 20  1  0  0  0
 20 16  1  0  0  0
 16 17  1  0  0  0
 16 11  1  0  0  0
 11 12  2  0  0  0
 12 13  1  0  0  0
 13 14  2  0  0  0
 14 15  1  0  0  0
 14  1  1  0  0  0
  1  2  2  0  0  0
  2  3  1  0  0  0
  3  4  2  0  0  0
  4  5  1  0  0  0
  5  6  2  0  0  0
  6  7  1  0  0  0
  7  8  2  0  0  0
  8 25  1  0  0  0
 25 27  1  0  0  0
 27 28  2  0  0  0
 28 29  1  0  0  0
 29 30  2  0  0  0
 30 34  1  0  0  0
 34 35  1  0  0  0
 35 36  1  0  0  0
 36 37  2  0  0  0
 37 38  1  0  0  0
 38 39  2  0  0  0
 39 40  1  0  0  0
 40 41  1  0  0  0
 40 42  2  0  0  0
 30 31  1  0  0  0
 31 32  1  0  0  0
 31 33  2  0  0  0
  8  9  1  0  0  0
  9 10  2  0  0  0
 15 11  1  0  0  0
 10  1  1  0  0  0
  9  4  1  0  0  0
 33 27  1  0  0  0
 42 36  1  0  0  0
 17 18  1  0  0  0
 17 19  1  0  0  0
 25 26  1  0  0  0
M  END
> <minimizedAffinity>
-8.45129

> <CNNscore>
0.5622870922

> <CNNaffinity>
7.5757689476

> <CNN_VS>
4.2597570419

> <CNNaffinity_variance>
0.3038819432

$$$$
[H]c1nc(N([H])c2c([H])c([H])c(OC([H])([H])c3c([H])c([H])c([H])c(F)c3[H])c(Cl)c2[H])c2c([H])c(-c3oc([C@@]([H])(N([H])[H])C([H])([H])S(=O)(=O)C([H])([H])[H])c([H])c3[H])c([H])c([H])c2n1


 42 46  0  0  0  0  0  0  0  0999 V2000
    1.3083  -51.3011  -24.1745 C   0  0  0  0  0  0  0  0  0  0  0  0
    0.5432  -51.6736  -25.2534 C   0  0  0  0  0  0  0  0  0  0  0  0
   -0.3629  -52.7134  -25.1935 C   0  0  0  0  0  0  0  0  0  0  0  0
   -0.5048  -53.4041  -24.0057 C   0  0  0  0  0  0  0  0  0  0  0  0
   -1.3719  -54.4211  -23.8957 N   0  0  0  0  0  0  0  0  0  0  0  0
   -1.5549  -55.1296  -22.7669 C   0  0  0  0  0  0  0  0  0  0  0  0
   -0.8145  -54.7800  -21.6995 N   0  0  0  0  0  0  0  0  0  0  0  0
    0.0781  -53.7840  -21.6984 C   0  0  0  0  0  0  0  0  0  0  0  0
    0.2449  -53.0729  -22.8730 C   0  0  0  0  0  0  0  0  0  0  0  0
    1.1332  -52.0251  -22.9947 C   0  0  0  0  0  0  0  0  0  0  0  0
    3.5754  -48.7105  -25.1157 C   0  0  0  0  0  0  0  0  0  0  0  0
    3.6716  -48.5367  -23.7299 C   0  0  0  0  0  0  0  0  0  0  0  0
    2.8253  -49.4965  -23.2174 C   0  0  0  0  0  0  0  0  0  0  0  0
    2.2603  -50.1993  -24.2584 C   0  0  0  0  0  0  0  0  0  0  0  0
    2.7428  -49.6875  -25.3414 O   0  0  0  0  0  0  0  0  0  0  0  0
    4.3339  -47.8730  -26.0760 C   0  0  0  0  0  0  0  0  0  0  0  0
    5.3661  -48.7676  -26.6299 N   0  0  0  0  0  0  0  0  0  0  0  0
    4.8125  -49.4813  -27.1855 H   0  0  0  0  0  0  0  0  0  0  0  0
    5.7269  -49.3072  -25.7938 H   0  0  0  0  0  0  0  0  0  0  0  0
    3.4218  -47.4980  -27.2111 C   0  0  0  0  0  0  0  0  0  0  0  0
    3.5461  -44.9455  -28.5007 C   0  0  0  0  0  0  0  0  0  0  0  0
    2.8237  -45.8323  -27.1125 S   0  0  0  0  0  0  0  0  0  0  0  0
    1.3365  -45.7429  -27.3150 O   0  0  0  0  0  0  0  0  0  0  0  0
    3.2637  -45.2504  -25.8117 O   0  0  0  0  0  0  0  0  0  0  0  0
    0.8425  -53.4891  -20.5538 N   0  0  0  0  0  0  0  0  0  0  0  0
    1.7711  -54.0036  -20.3986 H   0  0  0  0  0  0  0  0  0  0  0  0
    0.5374  -52.5558  -19.5344 C   0  0  0  0  0  0  0  0  0  0  0  0
    1.2311  -51.3578  -19.5095 C   0  0  0  0  0  0  0  0  0  0  0  0
    0.9645  -50.4163  -18.5749 C   0  0  0  0  0  0  0  0  0  0  0  0
    0.0001  -50.6026  -17.6136 C   0  0  0  0  0  0  0  0  0  0  0  0
   -0.6801  -51.7909  -17.6481 C   0  0  0  0  0  0  0  0  0  0  0  0
   -1.9282  -52.1089  -16.4557 Cl  0  0  0  0  0  0  0  0  0  0  0  0
   -0.4296  -52.7890  -18.6031 C   0  0  0  0  0  0  0  0  0  0  0  0
   -0.2927  -49.6557  -16.6454 O   0  0  0  0  0  0  0  0  0  0  0  0
    0.7104  -49.2866  -15.7446 C   0  0  0  0  0  0  0  0  0  0  0  0
    1.0892  -50.3810  -14.8237 C   0  0  0  0  0  0  0  0  0  0  0  0
    0.1945  -50.7651  -13.8482 C   0  0  0  0  0  0  0  0  0  0  0  0
    0.4860  -51.7796  -12.9571 C   0  0  0  0  0  0  0  0  0  0  0  0
    1.6876  -52.4334  -13.0261 C   0  0  0  0  0  0  0  0  0  0  0  0
    2.6005  -52.0543  -14.0077 C   0  0  0  0  0  0  0  0  0  0  0  0
    3.7964  -52.6850  -14.0982 F   0  0  0  0  0  0  0  0  0  0  0  0
    2.2963  -51.0444  -14.8860 C   0  0  0  0  0  0  0  0  0  0  0  0
 21 22  1  0  0  0
 22 23  2  0  0  0
 22 24  2  0  0  0
 22 20  1  0  0  0
 20 16  1  0  0  0
 16 17  1  0  0  0
 16 11  1  0  0  0
 11 12  2  0  0  0
 12 13  1  0  0  0
 13 14  2  0  0  0
 14 15  1  0  0  0
 14  1  1  0  0  0
  1  2  2  0  0  0
  2  3  1  0  0  0
  3  4  2  0  0  0
  4  5  1  0  0  0
  5  6  2  0  0  0
  6  7  1  0  0  0
  7  8  2  0  0  0
  8 25  1  0  0  0
 25 27  1  0  0  0
 27 28  2  0  0  0
 28 29  1  0  0  0
 29 30  2  0  0  0
 30 34  1  0  0  0
 34 35  1  0  0  0
 35 36  1  0  0  0
 36 37  2  0  0  0
 37 38  1  0  0  0
 38 39  2  0  0  0
 39 40  1  0  0  0
 40 41  1  0  0  0
 40 42  2  0  0  0
 30 31  1  0  0  0
 31 32  1  0  0  0
 31 33  2  0  0  0
  8  9  1  0  0  0
  9 10  2  0  0  0
 15 11  1  0  0  0
 10  1  1  0  0  0
  9  4  1  0  0  0
 33 27  1  0  0  0
 42 36  1  0  0  0
 17 18  1  0  0  0
 17 19  1  0  0  0
 25 26  1  0  0  0
M  END
> <minimizedAffinity>
-8.15322

> <CNNscore>
0.5156823397

> <CNNaffinity>
7.4545545578

> <CNN_VS>
3.8441822529

> <CNNaffinity_variance>
0.1832168102

$$$$
[H]c1nc(N([H])c2c([H])c([H])c(OC([H])([H])c3c([H])c([H])c([H])c(F)c3[H])c(Cl)c2[H])c2c([H])c(-c3oc([C@@]([H])(N([H])[H])C([H])([H])S(=O)(=O)C([H])([H])[H])c([H])c3[H])c([H])c([H])c2n1


 42 46  0  0  0  0  0  0  0  0999 V2000
    0.2685  -51.8579  -21.0682 C   0  0  0  0  0  0  0  0  0  0  0  0
   -0.3289  -52.7789  -20.2419 C   0  0  0  0  0  0  0  0  0  0  0  0
   -0.8827  -53.9503  -20.7184 C   0  0  0  0  0  0  0  0  0  0  0  0
   -0.8342  -54.2050  -22.0752 C   0  0  0  0  0  0  0  0  0  0  0  0
   -1.3568  -55.3285  -22.5877 N   0  0  0  0  0  0  0  0  0  0  0  0
   -1.3392  -55.6321  -23.8981 C   0  0  0  0  0  0  0  0  0  0  0  0
   -0.7586  -54.7423  -24.7234 N   0  0  0  0  0  0  0  0  0  0  0  0
   -0.2074  -53.5924  -24.3201 C   0  0  0  0  0  0  0  0  0  0  0  0
   -0.2402  -53.3070  -22.9671 C   0  0  0  0  0  0  0  0  0  0  0  0
    0.2957  -52.1548  -22.4313 C   0  0  0  0  0  0  0  0  0  0  0  0
    1.9359  -49.2854  -19.2409 C   0  0  0  0  0  0  0  0  0  0  0  0
    1.4535  -48.4815  -20.2806 C   0  0  0  0  0  0  0  0  0  0  0  0
    0.7686  -49.3632  -21.0890 C   0  0  0  0  0  0  0  0  0  0  0  0
    0.8479  -50.6259  -20.5449 C   0  0  0  0  0  0  0  0  0  0  0  0
    1.5452  -50.5086  -19.4644 O   0  0  0  0  0  0  0  0  0  0  0  0
    2.7438  -48.7394  -18.1238 C   0  0  0  0  0  0  0  0  0  0  0  0
    2.6951  -47.2765  -18.2973 N   0  0  0  0  0  0  0  0  0  0  0  0
    1.6793  -47.0326  -18.1152 H   0  0  0  0  0  0  0  0  0  0  0  0
    2.8191  -47.1278  -19.3379 H   0  0  0  0  0  0  0  0  0  0  0  0
    2.0463  -49.0523  -16.8290 C   0  0  0  0  0  0  0  0  0  0  0  0
    3.6855  -49.7168  -14.5782 C   0  0  0  0  0  0  0  0  0  0  0  0
    2.7639  -50.4173  -15.9550 S   0  0  0  0  0  0  0  0  0  0  0  0
    1.7267  -51.3064  -15.3269 O   0  0  0  0  0  0  0  0  0  0  0  0
    3.6640  -51.1534  -16.8889 O   0  0  0  0  0  0  0  0  0  0  0  0
    0.3581  -52.6906  -25.2411 N   0  0  0  0  0  0  0  0  0  0  0  0
   -0.1858  -52.4438  -26.1323 H   0  0  0  0  0  0  0  0  0  0  0  0
    1.6060  -52.0303  -25.1407 C   0  0  0  0  0  0  0  0  0  0  0  0
    1.6814  -50.7029  -25.5272 C   0  0  0  0  0  0  0  0  0  0  0  0
    2.8410  -50.0122  -25.4290 C   0  0  0  0  0  0  0  0  0  0  0  0
    3.9898  -50.5907  -24.9449 C   0  0  0  0  0  0  0  0  0  0  0  0
    3.9035  -51.9038  -24.5652 C   0  0  0  0  0  0  0  0  0  0  0  0
    5.3252  -52.7183  -23.9359 Cl  0  0  0  0  0  0  0  0  0  0  0  0
    2.7174  -52.6499  -24.6531 C   0  0  0  0  0  0  0  0  0  0  0  0
    5.1898  -49.9069  -24.8341 O   0  0  0  0  0  0  0  0  0  0  0  0
    5.3902  -49.0811  -23.7243 C   0  0  0  0  0  0  0  0  0  0  0  0
    4.6702  -47.7926  -23.8272 C   0  0  0  0  0  0  0  0  0  0  0  0
    3.7476  -47.4701  -22.8554 C   0  0  0  0  0  0  0  0  0  0  0  0
    3.0417  -46.2833  -22.8922 C   0  0  0  0  0  0  0  0  0  0  0  0
    3.2475  -45.3903  -23.9103 C   0  0  0  0  0  0  0  0  0  0  0  0
    4.1775  -45.7047  -24.8987 C   0  0  0  0  0  0  0  0  0  0  0  0
    4.4006  -44.8388  -25.9168 F   0  0  0  0  0  0  0  0  0  0  0  0
    4.8712  -46.8880  -24.8482 C   0  0  0  0  0  0  0  0  0  0  0  0
 21 22  1  0  0  0
 22 23  2  0  0  0
 22 24  2  0  0  0
 22 20  1  0  0  0
 20 16  1  0  0  0
 16 17  1  0  0  0
 16 11  1  0  0  0
 11 12  2  0  0  0
 12 13  1  0  0  0
 13 14  2  0  0  0
 14 15  1  0  0  0
 14  1  1  0  0  0
  1  2  2  0  0  0
  2  3  1  0  0  0
  3  4  2  0  0  0
  4  5  1  0  0  0
  5  6  2  0  0  0
  6  7  1  0  0  0
  7  8  2  0  0  0
  8 25  1  0  0  0
 25 27  1  0  0  0
 27 28  2  0  0  0
 28 29  1  0  0  0
 29 30  2  0  0  0
 30 34  1  0  0  0
 34 35  1  0  0  0
 35 36  1  0  0  0
 36 37  2  0  0  0
 37 38  1  0  0  0
 38 39  2  0  0  0
 39 40  1  0  0  0
 40 41  1  0  0  0
 40 42  2  0  0  0
 30 31  1  0  0  0
 31 32  1  0  0  0
 31 33  2  0  0  0
  8  9  1  0  0  0
  9 10  2  0  0  0
 15 11  1  0  0  0
 10  1  1  0  0  0
  9  4  1  0  0  0
 33 27  1  0  0  0
 42 36  1  0  0  0
 17 18  1  0  0  0
 17 19  1  0  0  0
 25 26  1  0  0  0
M  END
> <minimizedAffinity>
-8.34584

> <CNNscore>
0.4966582358

> <CNNaffinity>
7.4211997986

> <CNN_VS>
3.6858000755

> <CNNaffinity_variance>
0.1804917753

$$$$
[H]c1nc(N([H])c2c([H])c([H])c(OC([H])([H])c3c([H])c([H])c([H])c(F)c3[H])c(Cl)c2[H])c2c([H])c(-c3oc([C@@]([H])(N([H])[H])C([H])([H])S(=O)(=O)C([H])([H])[H])c([H])c3[H])c([H])c([H])c2n1


 42 46  0  0  0  0  0  0  0  0999 V2000
    1.3447  -51.6186  -24.7670 C   0  0  0  0  0  0  0  0  0  0  0  0
    0.5091  -52.0522  -25.7679 C   0  0  0  0  0  0  0  0  0  0  0  0
   -0.4462  -53.0275  -25.5629 C   0  0  0  0  0  0  0  0  0  0  0  0
   -0.5657  -53.5874  -24.3058 C   0  0  0  0  0  0  0  0  0  0  0  0
   -1.4784  -54.5373  -24.0551 N   0  0  0  0  0  0  0  0  0  0  0  0
   -1.6427  -55.1185  -22.8531 C   0  0  0  0  0  0  0  0  0  0  0  0
   -0.8335  -54.7073  -21.8602 N   0  0  0  0  0  0  0  0  0  0  0  0
    0.1091  -53.7688  -21.9995 C   0  0  0  0  0  0  0  0  0  0  0  0
    0.2551  -53.1886  -23.2466 C   0  0  0  0  0  0  0  0  0  0  0  0
    1.1900  -52.2106  -23.5130 C   0  0  0  0  0  0  0  0  0  0  0  0
    3.8328  -49.0654  -24.6023 C   0  0  0  0  0  0  0  0  0  0  0  0
    3.7478  -49.1416  -25.9976 C   0  0  0  0  0  0  0  0  0  0  0  0
    2.7975  -50.1155  -26.2176 C   0  0  0  0  0  0  0  0  0  0  0  0
    2.3479  -50.5868  -25.0041 C   0  0  0  0  0  0  0  0  0  0  0  0
    2.9955  -49.9291  -24.1009 O   0  0  0  0  0  0  0  0  0  0  0  0
    4.7512  -48.1276  -23.9123 C   0  0  0  0  0  0  0  0  0  0  0  0
    5.6422  -47.6186  -24.9704 N   0  0  0  0  0  0  0  0  0  0  0  0
    4.9993  -47.0482  -25.5916 H   0  0  0  0  0  0  0  0  0  0  0  0
    5.8804  -48.4713  -25.5505 H   0  0  0  0  0  0  0  0  0  0  0  0
    3.9530  -46.9570  -23.4087 C   0  0  0  0  0  0  0  0  0  0  0  0
    4.1610  -44.5798  -21.8277 C   0  0  0  0  0  0  0  0  0  0  0  0
    4.9225  -45.4909  -23.1788 S   0  0  0  0  0  0  0  0  0  0  0  0
    6.3205  -45.7935  -22.7153 O   0  0  0  0  0  0  0  0  0  0  0  0
    4.8934  -44.7039  -24.4452 O   0  0  0  0  0  0  0  0  0  0  0  0
    0.9431  -53.4057  -20.9253 N   0  0  0  0  0  0  0  0  0  0  0  0
    1.8786  -53.9144  -20.7948 H   0  0  0  0  0  0  0  0  0  0  0  0
    0.7031  -52.4075  -19.9510 C   0  0  0  0  0  0  0  0  0  0  0  0
   -0.0918  -52.7269  -18.8632 C   0  0  0  0  0  0  0  0  0  0  0  0
   -0.3347  -51.8220  -17.8868 C   0  0  0  0  0  0  0  0  0  0  0  0
    0.1916  -50.5532  -17.9278 C   0  0  0  0  0  0  0  0  0  0  0  0
    0.9767  -50.2484  -19.0080 C   0  0  0  0  0  0  0  0  0  0  0  0
    1.6879  -48.6491  -19.1376 Cl  0  0  0  0  0  0  0  0  0  0  0  0
    1.2495  -51.1623  -20.0383 C   0  0  0  0  0  0  0  0  0  0  0  0
   -0.0414  -49.6076  -16.9422 O   0  0  0  0  0  0  0  0  0  0  0  0
    1.0420  -49.1411  -16.1921 C   0  0  0  0  0  0  0  0  0  0  0  0
    1.7707  -50.2248  -15.4965 C   0  0  0  0  0  0  0  0  0  0  0  0
    3.1084  -50.4074  -15.7738 C   0  0  0  0  0  0  0  0  0  0  0  0
    3.8465  -51.4002  -15.1592 C   0  0  0  0  0  0  0  0  0  0  0  0
    3.2549  -52.2352  -14.2486 C   0  0  0  0  0  0  0  0  0  0  0  0
    1.9033  -52.0608  -13.9599 C   0  0  0  0  0  0  0  0  0  0  0  0
    1.2937  -52.8730  -13.0627 F   0  0  0  0  0  0  0  0  0  0  0  0
    1.1832  -51.0697  -14.5788 C   0  0  0  0  0  0  0  0  0  0  0  0
 21 22  1  0  0  0
 22 23  2  0  0  0
 22 24  2  0  0  0
 22 20  1  0  0  0
 20 16  1  0  0  0
 16 17  1  0  0  0
 16 11  1  0  0  0
 11 12  2  0  0  0
 12 13  1  0  0  0
 13 14  2  0  0  0
 14 15  1  0  0  0
 14  1  1  0  0  0
  1  2  2  0  0  0
  2  3  1  0  0  0
  3  4  2  0  0  0
  4  5  1  0  0  0
  5  6  2  0  0  0
  6  7  1  0  0  0
  7  8  2  0  0  0
  8 25  1  0  0  0
 25 27  1  0  0  0
 27 28  2  0  0  0
 28 29  1  0  0  0
 29 30  2  0  0  0
 30 34  1  0  0  0
 34 35  1  0  0  0
 35 36  1  0  0  0
 36 37  2  0  0  0
 37 38  1  0  0  0
 38 39  2  0  0  0
 39 40  1  0  0  0
 40 41  1  0  0  0
 40 42  2  0  0  0
 30 31  1  0  0  0
 31 32  1  0  0  0
 31 33  2  0  0  0
  8  9  1  0  0  0
  9 10  2  0  0  0
 15 11  1  0  0  0
 10  1  1  0  0  0
  9  4  1  0  0  0
 33 27  1  0  0  0
 42 36  1  0  0  0
 17 18  1  0  0  0
 17 19  1  0  0  0
 25 26  1  0  0  0
M  END
> <minimizedAffinity>
-7.46970

> <CNNscore>
0.3948042393

> <CNNaffinity>
7.3969306946

> <CNN_VS>
2.9203395844

> <CNNaffinity_variance>
0.1086665243

$$$$
[H]c1nc(N([H])c2c([H])c([H])c(OC([H])([H])c3c([H])c([H])c([H])c(F)c3[H])c(Cl)c2[H])c2c([H])c(-c3oc([C@@]([H])(N([H])[H])C([H])([H])S(=O)(=O)C([H])([H])[H])c([H])c3[H])c([H])c([H])c2n1


 42 46  0  0  0  0  0  0  0  0999 V2000
    1.6270  -51.8405  -24.6671 C   0  0  0  0  0  0  0  0  0  0  0  0
    0.8286  -52.3106  -25.6819 C   0  0  0  0  0  0  0  0  0  0  0  0
   -0.1845  -53.2226  -25.4636 C   0  0  0  0  0  0  0  0  0  0  0  0
   -0.4028  -53.6789  -24.1782 C   0  0  0  0  0  0  0  0  0  0  0  0
   -1.3747  -54.5641  -23.9136 N   0  0  0  0  0  0  0  0  0  0  0  0
   -1.6357  -55.0436  -22.6842 C   0  0  0  0  0  0  0  0  0  0  0  0
   -0.8644  -54.5953  -21.6773 N   0  0  0  0  0  0  0  0  0  0  0  0
    0.1304  -53.7143  -21.8283 C   0  0  0  0  0  0  0  0  0  0  0  0
    0.3757  -53.2384  -23.1037 C   0  0  0  0  0  0  0  0  0  0  0  0
    1.3720  -52.3273  -23.3846 C   0  0  0  0  0  0  0  0  0  0  0  0
    4.5938  -49.8586  -24.7479 C   0  0  0  0  0  0  0  0  0  0  0  0
    3.8940  -49.1727  -25.7478 C   0  0  0  0  0  0  0  0  0  0  0  0
    2.6932  -49.8445  -25.8303 C   0  0  0  0  0  0  0  0  0  0  0  0
    2.6924  -50.8769  -24.9187 C   0  0  0  0  0  0  0  0  0  0  0  0
    3.8351  -50.8276  -24.3190 O   0  0  0  0  0  0  0  0  0  0  0  0
    5.9598  -49.4678  -24.3237 C   0  0  0  0  0  0  0  0  0  0  0  0
    6.7841  -49.5808  -25.5404 N   0  0  0  0  0  0  0  0  0  0  0  0
    6.4082  -48.8179  -26.1739 H   0  0  0  0  0  0  0  0  0  0  0  0
    6.4648  -50.4817  -25.9952 H   0  0  0  0  0  0  0  0  0  0  0  0
    5.9451  -48.0151  -23.9357 C   0  0  0  0  0  0  0  0  0  0  0  0
    7.5449  -45.9230  -22.8140 C   0  0  0  0  0  0  0  0  0  0  0  0
    7.5383  -47.2442  -24.0347 S   0  0  0  0  0  0  0  0  0  0  0  0
    8.6505  -48.1691  -23.6245 O   0  0  0  0  0  0  0  0  0  0  0  0
    7.7160  -46.7061  -25.4142 O   0  0  0  0  0  0  0  0  0  0  0  0
    0.9196  -53.3089  -20.7355 N   0  0  0  0  0  0  0  0  0  0  0  0
    1.9639  -53.5542  -20.7253 H   0  0  0  0  0  0  0  0  0  0  0  0
    0.5000  -52.5811  -19.5964 C   0  0  0  0  0  0  0  0  0  0  0  0
    1.2020  -51.4392  -19.2493 C   0  0  0  0  0  0  0  0  0  0  0  0
    0.8315  -50.6884  -18.1862 C   0  0  0  0  0  0  0  0  0  0  0  0
   -0.2506  -51.0205  -17.4067 C   0  0  0  0  0  0  0  0  0  0  0  0
   -0.9378  -52.1515  -17.7595 C   0  0  0  0  0  0  0  0  0  0  0  0
   -2.3327  -52.6467  -16.8162 Cl  0  0  0  0  0  0  0  0  0  0  0  0
   -0.5815  -52.9532  -18.8556 C   0  0  0  0  0  0  0  0  0  0  0  0
   -0.6512  -50.2699  -16.3131 O   0  0  0  0  0  0  0  0  0  0  0  0
   -0.3307  -50.7286  -15.0322 C   0  0  0  0  0  0  0  0  0  0  0  0
    1.1190  -50.6649  -14.7433 C   0  0  0  0  0  0  0  0  0  0  0  0
    1.7350  -49.4323  -14.7143 C   0  0  0  0  0  0  0  0  0  0  0  0
    3.0847  -49.3032  -14.4505 C   0  0  0  0  0  0  0  0  0  0  0  0
    3.8491  -50.4138  -14.2090 C   0  0  0  0  0  0  0  0  0  0  0  0
    3.2382  -51.6656  -14.2355 C   0  0  0  0  0  0  0  0  0  0  0  0
    3.9713  -52.7805  -13.9996 F   0  0  0  0  0  0  0  0  0  0  0  0
    1.8958  -51.7776  -14.4990 C   0  0  0  0  0  0  0  0  0  0  0  0
 21 22  1  0  0  0
 22 23  2  0  0  0
 22 24  2  0  0  0
 22 20  1  0  0  0
 20 16  1  0  0  0
 16 17  1  0  0  0
 16 11  1  0  0  0
 11 12  2  0  0  0
 12 13  1  0  0  0
 13 14  2  0  0  0
 14 15  1  0  0  0
 14  1  1  0  0  0
  1  2  2  0  0  0
  2  3  1  0  0  0
  3  4  2  0  0  0
  4  5  1  0  0  0
  5  6  2  0  0  0
  6  7  1  0  0  0
  7  8  2  0  0  0
  8 25  1  0  0  0
 25 27  1  0  0  0
 27 28  2  0  0  0
 28 29  1  0  0  0
 29 30  2  0  0  0
 30 34  1  0  0  0
 34 35  1  0  0  0
 35 36  1  0  0  0
 36 37  2  0  0  0
 37 38  1  0  0  0
 38 39  2  0  0  0
 39 40  1  0  0  0
 40 41  1  0  0  0
 40 42  2  0  0  0
 30 31  1  0  0  0
 31 32  1  0  0  0
 31 33  2  0  0  0
  8  9  1  0  0  0
  9 10  2  0  0  0
 15 11  1  0  0  0
 10  1  1  0  0  0
  9  4  1  0  0  0
 33 27  1  0  0  0
 42 36  1  0  0  0
 17 18  1  0  0  0
 17 19  1  0  0  0
 25 26  1  0  0  0
M  END
> <minimizedAffinity>
-7.47989

> <CNNscore>
0.3703780770

> <CNNaffinity>
7.3380441666

> <CNN_VS>
2.7178506851

> <CNNaffinity_variance>
0.1831752360

$$$$
[H]c1nc(N([H])c2c([H])c([H])c(OC([H])([H])c3c([H])c([H])c([H])c(F)c3[H])c(Cl)c2[H])c2c([H])c(-c3oc([C@@]([H])(N([H])[H])C([H])([H])S(=O)(=O)C([H])([H])[H])c([H])c3[H])c([H])c([H])c2n1


 42 46  0  0  0  0  0  0  0  0999 V2000
    1.3530  -51.3665  -24.7866 C   0  0  0  0  0  0  0  0  0  0  0  0
    0.5337  -51.7839  -25.8076 C   0  0  0  0  0  0  0  0  0  0  0  0
   -0.3731  -52.8135  -25.6541 C   0  0  0  0  0  0  0  0  0  0  0  0
   -0.4592  -53.4466  -24.4294 C   0  0  0  0  0  0  0  0  0  0  0  0
   -1.3244  -54.4513  -24.2289 N   0  0  0  0  0  0  0  0  0  0  0  0
   -1.4546  -55.1047  -23.0603 C   0  0  0  0  0  0  0  0  0  0  0  0
   -0.6606  -54.7104  -22.0484 N   0  0  0  0  0  0  0  0  0  0  0  0
    0.2355  -53.7218  -22.1383 C   0  0  0  0  0  0  0  0  0  0  0  0
    0.3472  -53.0678  -23.3520 C   0  0  0  0  0  0  0  0  0  0  0  0
    1.2332  -52.0331  -23.5667 C   0  0  0  0  0  0  0  0  0  0  0  0
    3.6358  -48.6392  -24.4911 C   0  0  0  0  0  0  0  0  0  0  0  0
    3.7015  -48.7765  -25.8828 C   0  0  0  0  0  0  0  0  0  0  0  0
    2.8459  -49.8232  -26.1518 C   0  0  0  0  0  0  0  0  0  0  0  0
    2.3048  -50.2765  -24.9692 C   0  0  0  0  0  0  0  0  0  0  0  0
    2.8100  -49.5394  -24.0369 O   0  0  0  0  0  0  0  0  0  0  0  0
    4.4133  -47.6121  -23.7566 C   0  0  0  0  0  0  0  0  0  0  0  0
    4.9495  -46.7206  -24.8007 N   0  0  0  0  0  0  0  0  0  0  0  0
    4.0872  -46.2519  -25.2024 H   0  0  0  0  0  0  0  0  0  0  0  0
    5.2750  -47.3742  -25.5671 H   0  0  0  0  0  0  0  0  0  0  0  0
    3.4639  -46.7945  -22.9252 C   0  0  0  0  0  0  0  0  0  0  0  0
    3.9288  -46.1052  -20.1861 C   0  0  0  0  0  0  0  0  0  0  0  0
    4.2784  -45.6159  -21.8814 S   0  0  0  0  0  0  0  0  0  0  0  0
    5.7754  -45.6724  -22.0102 O   0  0  0  0  0  0  0  0  0  0  0  0
    3.7255  -44.2630  -22.1782 O   0  0  0  0  0  0  0  0  0  0  0  0
    1.0571  -53.3788  -21.0480 N   0  0  0  0  0  0  0  0  0  0  0  0
    2.0182  -53.8453  -20.9506 H   0  0  0  0  0  0  0  0  0  0  0  0
    0.7727  -52.4522  -20.0166 C   0  0  0  0  0  0  0  0  0  0  0  0
   -0.1497  -52.8084  -19.0474 C   0  0  0  0  0  0  0  0  0  0  0  0
   -0.4426  -51.9746  -18.0226 C   0  0  0  0  0  0  0  0  0  0  0  0
    0.1568  -50.7444  -17.8958 C   0  0  0  0  0  0  0  0  0  0  0  0
    1.0678  -50.4026  -18.8598 C   0  0  0  0  0  0  0  0  0  0  0  0
    1.8790  -48.8486  -18.7724 Cl  0  0  0  0  0  0  0  0  0  0  0  0
    1.3956  -51.2429  -19.9358 C   0  0  0  0  0  0  0  0  0  0  0  0
   -0.1248  -49.8716  -16.8572 O   0  0  0  0  0  0  0  0  0  0  0  0
   -0.5569  -50.3995  -15.6372 C   0  0  0  0  0  0  0  0  0  0  0  0
   -2.0096  -50.2257  -15.4162 C   0  0  0  0  0  0  0  0  0  0  0  0
   -2.4828  -48.9772  -15.0744 C   0  0  0  0  0  0  0  0  0  0  0  0
   -3.8270  -48.7473  -14.8545 C   0  0  0  0  0  0  0  0  0  0  0  0
   -4.7297  -49.7707  -14.9735 C   0  0  0  0  0  0  0  0  0  0  0  0
   -4.2638  -51.0375  -15.3185 C   0  0  0  0  0  0  0  0  0  0  0  0
   -5.1356  -52.0673  -15.4432 F   0  0  0  0  0  0  0  0  0  0  0  0
   -2.9250  -51.2501  -15.5339 C   0  0  0  0  0  0  0  0  0  0  0  0
 21 22  1  0  0  0
 22 23  2  0  0  0
 22 24  2  0  0  0
 22 20  1  0  0  0
 20 16  1  0  0  0
 16 17  1  0  0  0
 16 11  1  0  0  0
 11 12  2  0  0  0
 12 13  1  0  0  0
 13 14  2  0  0  0
 14 15  1  0  0  0
 14  1  1  0  0  0
  1  2  2  0  0  0
  2  3  1  0  0  0
  3  4  2  0  0  0
  4  5  1  0  0  0
  5  6  2  0  0  0
  6  7  1  0  0  0
  7  8  2  0  0  0
  8 25  1  0  0  0
 25 27  1  0  0  0
 27 28  2  0  0  0
 28 29  1  0  0  0
 29 30  2  0  0  0
 30 34  1  0  0  0
 34 35  1  0  0  0
 35 36  1  0  0  0
 36 37  2  0  0  0
 37 38  1  0  0  0
 38 39  2  0  0  0
 39 40  1  0  0  0
 40 41  1  0  0  0
 40 42  2  0  0  0
 30 31  1  0  0  0
 31 32  1  0  0  0
 31 33  2  0  0  0
  8  9  1  0  0  0
  9 10  2  0  0  0
 15 11  1  0  0  0
 10  1  1  0  0  0
  9  4  1  0  0  0
 33 27  1  0  0  0
 42 36  1  0  0  0
 17 18  1  0  0  0
 17 19  1  0  0  0
 25 26  1  0  0  0
M  END
> <minimizedAffinity>
-8.31585

> <CNNscore>
0.3456042409

> <CNNaffinity>
7.4079918861

> <CNN_VS>
2.5602333546

> <CNNaffinity_variance>
0.2178817987

$$$$
[H]c1nc(N([H])c2c([H])c([H])c(OC([H])([H])c3c([H])c([H])c([H])c(F)c3[H])c(Cl)c2[H])c2c([H])c(-c3oc([C@@]([H])(N([H])[H])C([H])([H])S(=O)(=O)C([H])([H])[H])c([H])c3[H])c([H])c([H])c2n1


 42 46  0  0  0  0  0  0  0  0999 V2000
    1.3338  -51.5576  -24.6409 C   0  0  0  0  0  0  0  0  0  0  0  0
    0.5190  -51.9637  -25.6701 C   0  0  0  0  0  0  0  0  0  0  0  0
   -0.4296  -52.9547  -25.5153 C   0  0  0  0  0  0  0  0  0  0  0  0
   -0.5638  -53.5596  -24.2807 C   0  0  0  0  0  0  0  0  0  0  0  0
   -1.4708  -54.5264  -24.0785 N   0  0  0  0  0  0  0  0  0  0  0  0
   -1.6487  -55.1510  -22.9005 C   0  0  0  0  0  0  0  0  0  0  0  0
   -0.8599  -54.7673  -21.8805 N   0  0  0  0  0  0  0  0  0  0  0  0
    0.0752  -53.8155  -21.9712 C   0  0  0  0  0  0  0  0  0  0  0  0
    0.2356  -53.1905  -23.1947 C   0  0  0  0  0  0  0  0  0  0  0  0
    1.1647  -52.1948  -23.4111 C   0  0  0  0  0  0  0  0  0  0  0  0
    3.8326  -49.0263  -24.3486 C   0  0  0  0  0  0  0  0  0  0  0  0
    3.6963  -48.9823  -25.7413 C   0  0  0  0  0  0  0  0  0  0  0  0
    2.7362  -49.9343  -26.0092 C   0  0  0  0  0  0  0  0  0  0  0  0
    2.3301  -50.5085  -24.8250 C   0  0  0  0  0  0  0  0  0  0  0  0
    3.0120  -49.9306  -23.8930 O   0  0  0  0  0  0  0  0  0  0  0  0
    4.7780  -48.1508  -23.6148 C   0  0  0  0  0  0  0  0  0  0  0  0
    3.9316  -47.3395  -22.7215 N   0  0  0  0  0  0  0  0  0  0  0  0
    3.5387  -48.0447  -22.0338 H   0  0  0  0  0  0  0  0  0  0  0  0
    3.1022  -47.0641  -23.3187 H   0  0  0  0  0  0  0  0  0  0  0  0
    5.6461  -49.0099  -22.7377 C   0  0  0  0  0  0  0  0  0  0  0  0
    7.4294  -48.7258  -24.9588 C   0  0  0  0  0  0  0  0  0  0  0  0
    7.3628  -48.9544  -23.1758 S   0  0  0  0  0  0  0  0  0  0  0  0
    8.0653  -47.7582  -22.5957 O   0  0  0  0  0  0  0  0  0  0  0  0
    7.9935  -50.2442  -22.7726 O   0  0  0  0  0  0  0  0  0  0  0  0
    0.8879  -53.4825  -20.8713 N   0  0  0  0  0  0  0  0  0  0  0  0
    1.7958  -54.0301  -20.7074 H   0  0  0  0  0  0  0  0  0  0  0  0
    0.6589  -52.4693  -19.9098 C   0  0  0  0  0  0  0  0  0  0  0  0
   -0.1352  -52.7676  -18.8154 C   0  0  0  0  0  0  0  0  0  0  0  0
   -0.3679  -51.8478  -17.8506 C   0  0  0  0  0  0  0  0  0  0  0  0
    0.1685  -50.5839  -17.9103 C   0  0  0  0  0  0  0  0  0  0  0  0
    0.9526  -50.3000  -18.9968 C   0  0  0  0  0  0  0  0  0  0  0  0
    1.6763  -48.7083  -19.1501 Cl  0  0  0  0  0  0  0  0  0  0  0  0
    1.2150  -51.2298  -20.0155 C   0  0  0  0  0  0  0  0  0  0  0  0
   -0.0539  -49.6234  -16.9368 O   0  0  0  0  0  0  0  0  0  0  0  0
    1.0368  -49.1487  -16.2027 C   0  0  0  0  0  0  0  0  0  0  0  0
    1.7713  -50.2246  -15.5010 C   0  0  0  0  0  0  0  0  0  0  0  0
    3.0954  -50.4383  -15.8183 C   0  0  0  0  0  0  0  0  0  0  0  0
    3.8380  -51.4258  -15.2005 C   0  0  0  0  0  0  0  0  0  0  0  0
    3.2647  -52.2240  -14.2463 C   0  0  0  0  0  0  0  0  0  0  0  0
    1.9269  -52.0178  -13.9167 C   0  0  0  0  0  0  0  0  0  0  0  0
    1.3355  -52.7932  -12.9759 F   0  0  0  0  0  0  0  0  0  0  0  0
    1.2022  -51.0325  -14.5394 C   0  0  0  0  0  0  0  0  0  0  0  0
 21 22  1  0  0  0
 22 23  2  0  0  0
 22 24  2  0  0  0
 22 20  1  0  0  0
 20 16  1  0  0  0
 16 17  1  0  0  0
 16 11  1  0  0  0
 11 12  2  0  0  0
 12 13  1  0  0  0
 13 14  2  0  0  0
 14 15  1  0  0  0
 14  1  1  0  0  0
  1  2  2  0  0  0
  2  3  1  0  0  0
  3  4  2  0  0  0
  4  5  1  0  0  0
  5  6  2  0  0  0
  6  7  1  0  0  0
  7  8  2  0  0  0
  8 25  1  0  0  0
 25 27  1  0  0  0
 27 28  2  0  0  0
 28 29  1  0  0  0
 29 30  2  0  0  0
 30 34  1  0  0  0
 34 35  1  0  0  0
 35 36  1  0  0  0
 36 37  2  0  0  0
 37 38  1  0  0  0
 38 39  2  0  0  0
 39 40  1  0  0  0
 40 41  1  0  0  0
 40 42  2  0  0  0
 30 31  1  0  0  0
 31 32  1  0  0  0
 31 33  2  0  0  0
  8  9  1  0  0  0
  9 10  2  0  0  0
 15 11  1  0  0  0
 10  1  1  0  0  0
  9  4  1  0  0  0
 33 27  1  0  0  0
 42 36  1  0  0  0
 17 18  1  0  0  0
 17 19  1  0  0  0
 25 26  1  0  0  0
M  END
> <minimizedAffinity>
-7.67127

> <CNNscore>
0.3429953158

> <CNNaffinity>
7.3202772141

> <CNN_VS>
2.5108208656

> <CNNaffinity_variance>
0.2298486680

$$$$
[H]c1nc(N([H])c2c([H])c([H])c(OC([H])([H])c3c([H])c([H])c([H])c(F)c3[H])c(Cl)c2[H])c2c([H])c(-c3oc([C@@]([H])(N([H])[H])C([H])([H])S(=O)(=O)C([H])([H])[H])c([H])c3[H])c([H])c([H])c2n1


 42 46  0  0  0  0  0  0  0  0999 V2000
   -0.0245  -51.9727  -20.0760 C   0  0  0  0  0  0  0  0  0  0  0  0
   -0.7145  -53.0524  -19.5800 C   0  0  0  0  0  0  0  0  0  0  0  0
   -1.1655  -54.0765  -20.3885 C   0  0  0  0  0  0  0  0  0  0  0  0
   -0.9136  -54.0127  -21.7452 C   0  0  0  0  0  0  0  0  0  0  0  0
   -1.3296  -54.9823  -22.5728 N   0  0  0  0  0  0  0  0  0  0  0  0
   -1.1139  -54.9764  -23.9006 C   0  0  0  0  0  0  0  0  0  0  0  0
   -0.4399  -53.9271  -24.4052 N   0  0  0  0  0  0  0  0  0  0  0  0
    0.0196  -52.9071  -23.6724 C   0  0  0  0  0  0  0  0  0  0  0  0
   -0.2168  -52.9402  -22.3100 C   0  0  0  0  0  0  0  0  0  0  0  0
    0.2082  -51.9483  -21.4515 C   0  0  0  0  0  0  0  0  0  0  0  0
    0.7942  -49.7504  -17.4061 C   0  0  0  0  0  0  0  0  0  0  0  0
    1.3979  -49.0205  -18.4370 C   0  0  0  0  0  0  0  0  0  0  0  0
    1.1566  -49.7782  -19.5629 C   0  0  0  0  0  0  0  0  0  0  0  0
    0.4436  -50.9007  -19.2047 C   0  0  0  0  0  0  0  0  0  0  0  0
    0.2656  -50.8212  -17.9281 O   0  0  0  0  0  0  0  0  0  0  0  0
    0.8102  -49.2947  -15.9951 C   0  0  0  0  0  0  0  0  0  0  0  0
   -0.0898  -48.1279  -15.9609 N   0  0  0  0  0  0  0  0  0  0  0  0
   -1.0467  -48.5390  -16.1603 H   0  0  0  0  0  0  0  0  0  0  0  0
    0.1496  -47.5817  -16.8354 H   0  0  0  0  0  0  0  0  0  0  0  0
    0.1823  -50.3597  -15.1393 C   0  0  0  0  0  0  0  0  0  0  0  0
    0.5145  -52.5849  -13.3693 C   0  0  0  0  0  0  0  0  0  0  0  0
    1.3138  -51.0988  -13.9923 S   0  0  0  0  0  0  0  0  0  0  0  0
    2.5757  -51.5756  -14.6567 O   0  0  0  0  0  0  0  0  0  0  0  0
    1.5742  -50.1244  -12.8938 O   0  0  0  0  0  0  0  0  0  0  0  0
    0.6925  -51.8239  -24.2686 N   0  0  0  0  0  0  0  0  0  0  0  0
    0.1729  -51.2151  -24.9829 H   0  0  0  0  0  0  0  0  0  0  0  0
    2.0252  -51.4078  -24.0360 C   0  0  0  0  0  0  0  0  0  0  0  0
    2.2422  -50.1185  -23.5802 C   0  0  0  0  0  0  0  0  0  0  0  0
    3.4923  -49.6732  -23.3152 C   0  0  0  0  0  0  0  0  0  0  0  0
    4.5971  -50.4728  -23.4843 C   0  0  0  0  0  0  0  0  0  0  0  0
    4.3706  -51.7463  -23.9350 C   0  0  0  0  0  0  0  0  0  0  0  0
    5.7274  -52.8328  -24.1780 Cl  0  0  0  0  0  0  0  0  0  0  0  0
    3.0878  -52.2409  -24.2194 C   0  0  0  0  0  0  0  0  0  0  0  0
    5.8874  -50.0422  -23.2209 O   0  0  0  0  0  0  0  0  0  0  0  0
    6.0756  -48.7404  -22.7478 C   0  0  0  0  0  0  0  0  0  0  0  0
    6.7934  -48.6952  -21.4548 C   0  0  0  0  0  0  0  0  0  0  0  0
    7.9695  -49.4020  -21.3252 C   0  0  0  0  0  0  0  0  0  0  0  0
    8.6883  -49.4018  -20.1456 C   0  0  0  0  0  0  0  0  0  0  0  0
    8.2400  -48.6887  -19.0654 C   0  0  0  0  0  0  0  0  0  0  0  0
    7.0524  -47.9702  -19.1838 C   0  0  0  0  0  0  0  0  0  0  0  0
    6.5867  -47.2561  -18.1306 F   0  0  0  0  0  0  0  0  0  0  0  0
    6.3494  -47.9802  -20.3626 C   0  0  0  0  0  0  0  0  0  0  0  0
 21 22  1  0  0  0
 22 23  2  0  0  0
 22 24  2  0  0  0
 22 20  1  0  0  0
 20 16  1  0  0  0
 16 17  1  0  0  0
 16 11  1  0  0  0
 11 12  2  0  0  0
 12 13  1  0  0  0
 13 14  2  0  0  0
 14 15  1  0  0  0
 14  1  1  0  0  0
  1  2  2  0  0  0
  2  3  1  0  0  0
  3  4  2  0  0  0
  4  5  1  0  0  0
  5  6  2  0  0  0
  6  7  1  0  0  0
  7  8  2  0  0  0
  8 25  1  0  0  0
 25 27  1  0  0  0
 27 28  2  0  0  0
 28 29  1  0  0  0
 29 30  2  0  0  0
 30 34  1  0  0  0
 34 35  1  0  0  0
 35 36  1  0  0  0
 36 37  2  0  0  0
 37 38  1  0  0  0
 38 39  2  0  0  0
 39 40  1  0  0  0
 40 41  1  0  0  0
 40 42  2  0  0  0
 30 31  1  0  0  0
 31 32  1  0  0  0
 31 33  2  0  0  0
  8  9  1  0  0  0
  9 10  2  0  0  0
 15 11  1  0  0  0
 10  1  1  0  0  0
  9  4  1  0  0  0
 33 27  1  0  0  0
 42 36  1  0  0  0
 17 18  1  0  0  0
 17 19  1  0  0  0
 25 26  1  0  0  0
M  END
> <minimizedAffinity>
-7.87004

> <CNNscore>
0.2941196263

> <CNNaffinity>
7.1391458511

> <CNN_VS>
2.0997629166

> <CNNaffinity_variance>
0.1619622409

$$$$
[H]c1nc(N([H])c2c([H])c([H])c(OC([H])([H])c3c([H])c([H])c([H])c(F)c3[H])c(Cl)c2[H])c2c([H])c(-c3oc([C@@]([H])(N([H])[H])C([H])([H])S(=O)(=O)C([H])([H])[H])c([H])c3[H])c([H])c([H])c2n1


 42 46  0  0  0  0  0  0  0  0999 V2000
    0.3889  -51.6539  -20.8264 C   0  0  0  0  0  0  0  0  0  0  0  0
   -0.2021  -52.5629  -19.9824 C   0  0  0  0  0  0  0  0  0  0  0  0
   -0.7905  -53.7243  -20.4414 C   0  0  0  0  0  0  0  0  0  0  0  0
   -0.7846  -53.9812  -21.7987 C   0  0  0  0  0  0  0  0  0  0  0  0
   -1.3419  -55.0954  -22.2947 N   0  0  0  0  0  0  0  0  0  0  0  0
   -1.3664  -55.4006  -23.6046 C   0  0  0  0  0  0  0  0  0  0  0  0
   -0.7928  -54.5225  -24.4471 N   0  0  0  0  0  0  0  0  0  0  0  0
   -0.2095  -53.3826  -24.0611 C   0  0  0  0  0  0  0  0  0  0  0  0
   -0.1992  -53.0952  -22.7081 C   0  0  0  0  0  0  0  0  0  0  0  0
    0.3725  -51.9526  -22.1893 C   0  0  0  0  0  0  0  0  0  0  0  0
    2.1366  -49.1068  -19.0391 C   0  0  0  0  0  0  0  0  0  0  0  0
    1.6725  -48.3027  -20.0870 C   0  0  0  0  0  0  0  0  0  0  0  0
    0.9593  -49.1749  -20.8812 C   0  0  0  0  0  0  0  0  0  0  0  0
    1.0052  -50.4323  -20.3213 C   0  0  0  0  0  0  0  0  0  0  0  0
    1.7105  -50.3211  -19.2452 O   0  0  0  0  0  0  0  0  0  0  0  0
    2.9647  -48.5698  -17.9324 C   0  0  0  0  0  0  0  0  0  0  0  0
    3.8670  -49.6744  -17.5605 N   0  0  0  0  0  0  0  0  0  0  0  0
    4.4917  -49.7893  -18.4097 H   0  0  0  0  0  0  0  0  0  0  0  0
    3.2510  -50.5351  -17.5685 H   0  0  0  0  0  0  0  0  0  0  0  0
    3.8257  -47.4610  -18.4712 C   0  0  0  0  0  0  0  0  0  0  0  0
    6.6720  -47.5797  -18.7523 C   0  0  0  0  0  0  0  0  0  0  0  0
    5.1194  -48.0309  -19.5407 S   0  0  0  0  0  0  0  0  0  0  0  0
    5.1526  -49.5299  -19.6538 O   0  0  0  0  0  0  0  0  0  0  0  0
    4.9687  -47.3569  -20.8624 O   0  0  0  0  0  0  0  0  0  0  0  0
    0.3467  -52.4923  -24.9988 N   0  0  0  0  0  0  0  0  0  0  0  0
   -0.2509  -52.1656  -25.8277 H   0  0  0  0  0  0  0  0  0  0  0  0
    1.6499  -51.9402  -24.9907 C   0  0  0  0  0  0  0  0  0  0  0  0
    1.8162  -50.6385  -25.4324 C   0  0  0  0  0  0  0  0  0  0  0  0
    3.0340  -50.0485  -25.4229 C   0  0  0  0  0  0  0  0  0  0  0  0
    4.1548  -50.7077  -24.9780 C   0  0  0  0  0  0  0  0  0  0  0  0
    3.9786  -51.9945  -24.5430 C   0  0  0  0  0  0  0  0  0  0  0  0
    5.3589  -52.9075  -23.9585 Cl  0  0  0  0  0  0  0  0  0  0  0  0
    2.7302  -52.6370  -24.5387 C   0  0  0  0  0  0  0  0  0  0  0  0
    5.4129  -50.1276  -24.9579 O   0  0  0  0  0  0  0  0  0  0  0  0
    5.5565  -48.8589  -24.3891 C   0  0  0  0  0  0  0  0  0  0  0  0
    6.6726  -48.7845  -23.4206 C   0  0  0  0  0  0  0  0  0  0  0  0
    6.9422  -49.8844  -22.6350 C   0  0  0  0  0  0  0  0  0  0  0  0
    7.9697  -49.8807  -21.7117 C   0  0  0  0  0  0  0  0  0  0  0  0
    8.7526  -48.7675  -21.5563 C   0  0  0  0  0  0  0  0  0  0  0  0
    8.4902  -47.6492  -22.3447 C   0  0  0  0  0  0  0  0  0  0  0  0
    9.2497  -46.5351  -22.2112 F   0  0  0  0  0  0  0  0  0  0  0  0
    7.4656  -47.6683  -23.2577 C   0  0  0  0  0  0  0  0  0  0  0  0
 21 22  1  0  0  0
 22 23  2  0  0  0
 22 24  2  0  0  0
 22 20  1  0  0  0
 20 16  1  0  0  0
 16 17  1  0  0  0
 16 11  1  0  0  0
 11 12  2  0  0  0
 12 13  1  0  0  0
 13 14  2  0  0  0
 14 15  1  0  0  0
 14  1  1  0  0  0
  1  2  2  0  0  0
  2  3  1  0  0  0
  3  4  2  0  0  0
  4  5  1  0  0  0
  5  6  2  0  0  0
  6  7  1  0  0  0
  7  8  2  0  0  0
  8 25  1  0  0  0
 25 27  1  0  0  0
 27 28  2  0  0  0
 28 29  1  0  0  0
 29 30  2  0  0  0
 30 34  1  0  0  0
 34 35  1  0  0  0
 35 36  1  0  0  0
 36 37  2  0  0  0
 37 38  1  0  0  0
 38 39  2  0  0  0
 39 40  1  0  0  0
 40 41  1  0  0  0
 40 42  2  0  0  0
 30 31  1  0  0  0
 31 32  1  0  0  0
 31 33  2  0  0  0
  8  9  1  0  0  0
  9 10  2  0  0  0
 15 11  1  0  0  0
 10  1  1  0  0  0
  9  4  1  0  0  0
 33 27  1  0  0  0
 42 36  1  0  0  0
 17 18  1  0  0  0
 17 19  1  0  0  0
 25 26  1  0  0  0
M  END
> <minimizedAffinity>
-7.72016

> <CNNscore>
0.2880111039

> <CNNaffinity>
7.0326271057

> <CNN_VS>
2.0254747868

> <CNNaffinity_variance>
0.2744755149

$$$$
[H]c1nc(N([H])c2c([H])c([H])c(F)c(Cl)c2[H])c2c([H])c(OC([H])([H])C([H])([H])N(C([H])([H])C([H])([H])OC([H])([H])[H])C([H])([H])C([H])([H])OC([H])([H])[H])c(OC([H])([H])[H])c([H])c2n1


 34 36  0  0  0  0  0  0  0  0999 V2000
    0.6064  -50.9734  -20.3616 C   0  0  0  0  0  0  0  0  0  0  0  0
    0.5029  -51.3760  -21.6980 C   0  0  0  0  0  0  0  0  0  0  0  0
   -0.0981  -52.5704  -21.9969 C   0  0  0  0  0  0  0  0  0  0  0  0
   -0.2200  -53.0257  -23.3199 C   0  0  0  0  0  0  0  0  0  0  0  0
   -0.8178  -54.2065  -23.4440 N   0  0  0  0  0  0  0  0  0  0  0  0
   -1.2844  -54.9495  -22.4622 C   0  0  0  0  0  0  0  0  0  0  0  0
   -1.1837  -54.5413  -21.1870 N   0  0  0  0  0  0  0  0  0  0  0  0
   -0.5946  -53.3615  -20.9686 C   0  0  0  0  0  0  0  0  0  0  0  0
   -0.4831  -52.9438  -19.6366 C   0  0  0  0  0  0  0  0  0  0  0  0
    0.1178  -51.7473  -19.3244 C   0  0  0  0  0  0  0  0  0  0  0  0
    0.2709  -52.2512  -24.3755 N   0  0  0  0  0  0  0  0  0  0  0  0
    0.8744  -51.4134  -24.1100 H   0  0  0  0  0  0  0  0  0  0  0  0
    0.0781  -52.4081  -25.7495 C   0  0  0  0  0  0  0  0  0  0  0  0
    1.2024  -52.5686  -26.5962 C   0  0  0  0  0  0  0  0  0  0  0  0
    1.0937  -52.7231  -27.9503 C   0  0  0  0  0  0  0  0  0  0  0  0
   -0.1374  -52.7295  -28.5582 C   0  0  0  0  0  0  0  0  0  0  0  0
   -0.1918  -52.8872  -29.8979 F   0  0  0  0  0  0  0  0  0  0  0  0
   -1.2286  -52.5749  -27.7525 C   0  0  0  0  0  0  0  0  0  0  0  0
   -2.8287  -52.5749  -28.4729 Cl  0  0  0  0  0  0  0  0  0  0  0  0
   -1.1440  -52.4136  -26.3577 C   0  0  0  0  0  0  0  0  0  0  0  0
    0.2558  -51.2815  -18.0077 O   0  0  0  0  0  0  0  0  0  0  0  0
   -0.6794  -51.7589  -17.0615 C   0  0  0  0  0  0  0  0  0  0  0  0
    1.2073  -49.7803  -20.0501 O   0  0  0  0  0  0  0  0  0  0  0  0
    1.2555  -48.7240  -21.0184 C   0  0  0  0  0  0  0  0  0  0  0  0
    2.6068  -48.6266  -21.6568 C   0  0  0  0  0  0  0  0  0  0  0  0
    3.5368  -47.7082  -21.1737 N   0  0  0  0  0  0  0  0  0  0  0  0
    3.5574  -47.2243  -19.8723 C   0  0  0  0  0  0  0  0  0  0  0  0
    4.1141  -48.1340  -18.8181 C   0  0  0  0  0  0  0  0  0  0  0  0
    4.5003  -47.1415  -16.7499 C   0  0  0  0  0  0  0  0  0  0  0  0
    5.0265  -47.4045  -18.0035 O   0  0  0  0  0  0  0  0  0  0  0  0
    4.0334  -46.7712  -22.1664 C   0  0  0  0  0  0  0  0  0  0  0  0
    2.9731  -45.8730  -22.6991 C   0  0  0  0  0  0  0  0  0  0  0  0
    2.7541  -46.0128  -24.0555 O   0  0  0  0  0  0  0  0  0  0  0  0
    2.1176  -44.9590  -24.6575 C   0  0  0  0  0  0  0  0  0  0  0  0
 29 30  1  0  0  0
 30 28  1  0  0  0
 28 27  1  0  0  0
 27 26  1  0  0  0
 26 31  1  0  0  0
 31 32  1  0  0  0
 32 33  1  0  0  0
 33 34  1  0  0  0
 26 25  1  0  0  0
 25 24  1  0  0  0
 24 23  1  0  0  0
 23  1  1  0  0  0
  1  2  2  0  0  0
  2  3  1  0  0  0
  3  4  2  0  0  0
  4 11  1  0  0  0
 11 13  1  0  0  0
 13 14  2  0  0  0
 14 15  1  0  0  0
 15 16  2  0  0  0
 16 17  1  0  0  0
 16 18  1  0  0  0
 18 19  1  0  0  0
 18 20  2  0  0  0
  4  5  1  0  0  0
  5  6  2  0  0  0
  6  7  1  0  0  0
  7  8  2  0  0  0
  8  9  1  0  0  0
  9 10  2  0  0  0
 10 21  1  0  0  0
 21 22  1  0  0  0
 10  1  1  0  0  0
  8  3  1  0  0  0
 20 13  1  0  0  0
 11 12  1  0  0  0
M  END
> <minimizedAffinity>
-6.82015

> <CNNscore>
0.9242011905

> <CNNaffinity>
7.4346261024

> <CNN_VS>
6.8710904121

> <CNNaffinity_variance>
0.1240936741

$$$$
[H]c1nc(N([H])c2c([H])c([H])c(F)c(Cl)c2[H])c2c([H])c(OC([H])([H])C([H])([H])N(C([H])([H])C([H])([H])OC([H])([H])[H])C([H])([H])C([H])([H])OC([H])([H])[H])c(OC([H])([H])[H])c([H])c2n1


 34 36  0  0  0  0  0  0  0  0999 V2000
    0.5412  -50.7528  -20.2827 C   0  0  0  0  0  0  0  0  0  0  0  0
    0.3984  -51.1447  -21.6187 C   0  0  0  0  0  0  0  0  0  0  0  0
   -0.0786  -52.3965  -21.9059 C   0  0  0  0  0  0  0  0  0  0  0  0
   -0.2328  -52.8430  -23.2286 C   0  0  0  0  0  0  0  0  0  0  0  0
   -0.6969  -54.0836  -23.3413 N   0  0  0  0  0  0  0  0  0  0  0  0
   -1.0096  -54.8907  -22.3491 C   0  0  0  0  0  0  0  0  0  0  0  0
   -0.8740  -54.4927  -21.0739 N   0  0  0  0  0  0  0  0  0  0  0  0
   -0.4123  -53.2556  -20.8665 C   0  0  0  0  0  0  0  0  0  0  0  0
   -0.2635  -52.8477  -19.5351 C   0  0  0  0  0  0  0  0  0  0  0  0
    0.2140  -51.5940  -19.2345 C   0  0  0  0  0  0  0  0  0  0  0  0
    0.0954  -52.0007  -24.2953 N   0  0  0  0  0  0  0  0  0  0  0  0
    0.4945  -51.0453  -24.0413 H   0  0  0  0  0  0  0  0  0  0  0  0
   -0.0320  -52.2238  -25.6677 C   0  0  0  0  0  0  0  0  0  0  0  0
    1.1328  -52.3827  -26.4581 C   0  0  0  0  0  0  0  0  0  0  0  0
    1.0884  -52.5997  -27.8073 C   0  0  0  0  0  0  0  0  0  0  0  0
   -0.1141  -52.6745  -28.4657 C   0  0  0  0  0  0  0  0  0  0  0  0
   -0.1048  -52.8922  -29.7980 F   0  0  0  0  0  0  0  0  0  0  0  0
   -1.2440  -52.5222  -27.7146 C   0  0  0  0  0  0  0  0  0  0  0  0
   -2.8102  -52.6080  -28.5011 Cl  0  0  0  0  0  0  0  0  0  0  0  0
   -1.2256  -52.2975  -26.3261 C   0  0  0  0  0  0  0  0  0  0  0  0
    0.3826  -51.1350  -17.9189 O   0  0  0  0  0  0  0  0  0  0  0  0
   -0.6393  -51.4552  -16.9965 C   0  0  0  0  0  0  0  0  0  0  0  0
    1.0192  -49.5024  -19.9829 O   0  0  0  0  0  0  0  0  0  0  0  0
    1.2381  -48.5456  -21.0280 C   0  0  0  0  0  0  0  0  0  0  0  0
    2.6876  -48.1896  -21.1506 C   0  0  0  0  0  0  0  0  0  0  0  0
    3.3359  -48.3362  -22.3754 N   0  0  0  0  0  0  0  0  0  0  0  0
    3.1406  -47.5045  -23.4702 C   0  0  0  0  0  0  0  0  0  0  0  0
    3.7014  -46.1169  -23.3776 C   0  0  0  0  0  0  0  0  0  0  0  0
    2.0258  -44.9225  -24.4628 C   0  0  0  0  0  0  0  0  0  0  0  0
    2.6314  -45.1865  -23.2457 O   0  0  0  0  0  0  0  0  0  0  0  0
    3.6755  -49.7059  -22.7199 C   0  0  0  0  0  0  0  0  0  0  0  0
    3.2383  -50.0854  -24.0909 C   0  0  0  0  0  0  0  0  0  0  0  0
    3.8951  -51.1888  -24.5996 O   0  0  0  0  0  0  0  0  0  0  0  0
    3.8507  -52.3105  -23.8135 C   0  0  0  0  0  0  0  0  0  0  0  0
 29 30  1  0  0  0
 30 28  1  0  0  0
 28 27  1  0  0  0
 27 26  1  0  0  0
 26 31  1  0  0  0
 31 32  1  0  0  0
 32 33  1  0  0  0
 33 34  1  0  0  0
 26 25  1  0  0  0
 25 24  1  0  0  0
 24 23  1  0  0  0
 23  1  1  0  0  0
  1  2  2  0  0  0
  2  3  1  0  0  0
  3  4  2  0  0  0
  4 11  1  0  0  0
 11 13  1  0  0  0
 13 14  2  0  0  0
 14 15  1  0  0  0
 15 16  2  0  0  0
 16 17  1  0  0  0
 16 18  1  0  0  0
 18 19  1  0  0  0
 18 20  2  0  0  0
  4  5  1  0  0  0
  5  6  2  0  0  0
  6  7  1  0  0  0
  7  8  2  0  0  0
  8  9  1  0  0  0
  9 10  2  0  0  0
 10 21  1  0  0  0
 21 22  1  0  0  0
 10  1  1  0  0  0
  8  3  1  0  0  0
 20 13  1  0  0  0
 11 12  1  0  0  0
M  END
> <minimizedAffinity>
-7.18761

> <CNNscore>
0.9103311300

> <CNNaffinity>
7.3803167343

> <CNN_VS>
6.7185320854

> <CNNaffinity_variance>
0.0868315771

$$$$
[H]c1nc(N([H])c2c([H])c([H])c(F)c(Cl)c2[H])c2c([H])c(OC([H])([H])C([H])([H])N(C([H])([H])C([H])([H])OC([H])([H])[H])C([H])([H])C([H])([H])OC([H])([H])[H])c(OC([H])([H])[H])c([H])c2n1


 34 36  0  0  0  0  0  0  0  0999 V2000
    0.5682  -50.9129  -20.3696 C   0  0  0  0  0  0  0  0  0  0  0  0
    0.4596  -51.3087  -21.7076 C   0  0  0  0  0  0  0  0  0  0  0  0
   -0.0985  -52.5235  -22.0073 C   0  0  0  0  0  0  0  0  0  0  0  0
   -0.2232  -52.9728  -23.3322 C   0  0  0  0  0  0  0  0  0  0  0  0
   -0.7759  -54.1753  -23.4570 N   0  0  0  0  0  0  0  0  0  0  0  0
   -1.1974  -54.9439  -22.4745 C   0  0  0  0  0  0  0  0  0  0  0  0
   -1.0927  -54.5421  -21.1976 N   0  0  0  0  0  0  0  0  0  0  0  0
   -0.5472  -53.3418  -20.9783 C   0  0  0  0  0  0  0  0  0  0  0  0
   -0.4312  -52.9306  -19.6447 C   0  0  0  0  0  0  0  0  0  0  0  0
    0.1269  -51.7137  -19.3316 C   0  0  0  0  0  0  0  0  0  0  0  0
    0.2200  -52.1712  -24.3886 N   0  0  0  0  0  0  0  0  0  0  0  0
    0.7682  -51.2959  -24.1238 H   0  0  0  0  0  0  0  0  0  0  0  0
    0.0413  -52.3434  -25.7626 C   0  0  0  0  0  0  0  0  0  0  0  0
    1.1757  -52.4692  -26.6017 C   0  0  0  0  0  0  0  0  0  0  0  0
    1.0807  -52.6360  -27.9554 C   0  0  0  0  0  0  0  0  0  0  0  0
   -0.1456  -52.6899  -28.5703 C   0  0  0  0  0  0  0  0  0  0  0  0
   -0.1863  -52.8578  -29.9093 F   0  0  0  0  0  0  0  0  0  0  0  0
   -1.2466  -52.5690  -27.7721 C   0  0  0  0  0  0  0  0  0  0  0  0
   -2.8412  -52.6302  -28.5017 Cl  0  0  0  0  0  0  0  0  0  0  0  0
   -1.1762  -52.3961  -26.3779 C   0  0  0  0  0  0  0  0  0  0  0  0
    0.2672  -51.2532  -18.0132 O   0  0  0  0  0  0  0  0  0  0  0  0
   -0.6548  -51.7490  -17.0636 C   0  0  0  0  0  0  0  0  0  0  0  0
    1.1265  -49.6995  -20.0572 O   0  0  0  0  0  0  0  0  0  0  0  0
    1.2630  -48.6889  -21.0651 C   0  0  0  0  0  0  0  0  0  0  0  0
    2.7021  -48.3707  -21.3311 C   0  0  0  0  0  0  0  0  0  0  0  0
    3.5903  -49.3952  -21.6527 N   0  0  0  0  0  0  0  0  0  0  0  0
    4.4852  -49.9666  -20.7577 C   0  0  0  0  0  0  0  0  0  0  0  0
    5.9042  -49.4853  -20.8154 C   0  0  0  0  0  0  0  0  0  0  0  0
    5.8881  -47.9394  -19.0771 C   0  0  0  0  0  0  0  0  0  0  0  0
    6.3482  -49.1758  -19.4982 O   0  0  0  0  0  0  0  0  0  0  0  0
    4.0477  -49.3885  -23.0314 C   0  0  0  0  0  0  0  0  0  0  0  0
    3.1059  -50.0721  -23.9591 C   0  0  0  0  0  0  0  0  0  0  0  0
    3.2014  -51.4497  -23.9346 O   0  0  0  0  0  0  0  0  0  0  0  0
    4.4667  -51.9518  -24.0929 C   0  0  0  0  0  0  0  0  0  0  0  0
 29 30  1  0  0  0
 30 28  1  0  0  0
 28 27  1  0  0  0
 27 26  1  0  0  0
 26 31  1  0  0  0
 31 32  1  0  0  0
 32 33  1  0  0  0
 33 34  1  0  0  0
 26 25  1  0  0  0
 25 24  1  0  0  0
 24 23  1  0  0  0
 23  1  1  0  0  0
  1  2  2  0  0  0
  2  3  1  0  0  0
  3  4  2  0  0  0
  4 11  1  0  0  0
 11 13  1  0  0  0
 13 14  2  0  0  0
 14 15  1  0  0  0
 15 16  2  0  0  0
 16 17  1  0  0  0
 16 18  1  0  0  0
 18 19  1  0  0  0
 18 20  2  0  0  0
  4  5  1  0  0  0
  5  6  2  0  0  0
  6  7  1  0  0  0
  7  8  2  0  0  0
  8  9  1  0  0  0
  9 10  2  0  0  0
 10 21  1  0  0  0
 21 22  1  0  0  0
 10  1  1  0  0  0
  8  3  1  0  0  0
 20 13  1  0  0  0
 11 12  1  0  0  0
M  END
> <minimizedAffinity>
-6.98342

> <CNNscore>
0.8880215883

> <CNNaffinity>
7.3207769394

> <CNN_VS>
6.5010080338

> <CNNaffinity_variance>
0.1268384159

$$$$
[H]c1nc(N([H])c2c([H])c([H])c(F)c(Cl)c2[H])c2c([H])c(OC([H])([H])C([H])([H])N(C([H])([H])C([H])([H])OC([H])([H])[H])C([H])([H])C([H])([H])OC([H])([H])[H])c(OC([H])([H])[H])c([H])c2n1


 34 36  0  0  0  0  0  0  0  0999 V2000
    0.9636  -51.1594  -20.3902 C   0  0  0  0  0  0  0  0  0  0  0  0
    0.7831  -51.5355  -21.7261 C   0  0  0  0  0  0  0  0  0  0  0  0
    0.0768  -52.6732  -22.0158 C   0  0  0  0  0  0  0  0  0  0  0  0
   -0.1260  -53.1005  -23.3383 C   0  0  0  0  0  0  0  0  0  0  0  0
   -0.8222  -54.2271  -23.4533 N   0  0  0  0  0  0  0  0  0  0  0  0
   -1.3150  -54.9418  -22.4634 C   0  0  0  0  0  0  0  0  0  0  0  0
   -1.1387  -54.5592  -21.1884 N   0  0  0  0  0  0  0  0  0  0  0  0
   -0.4482  -53.4341  -20.9789 C   0  0  0  0  0  0  0  0  0  0  0  0
   -0.2586  -53.0435  -19.6475 C   0  0  0  0  0  0  0  0  0  0  0  0
    0.4483  -51.9039  -19.3444 C   0  0  0  0  0  0  0  0  0  0  0  0
    0.3910  -52.3554  -24.4025 N   0  0  0  0  0  0  0  0  0  0  0  0
    1.0628  -51.5672  -24.1490 H   0  0  0  0  0  0  0  0  0  0  0  0
    0.1480  -52.4853  -25.7713 C   0  0  0  0  0  0  0  0  0  0  0  0
    1.2390  -52.6551  -26.6588 C   0  0  0  0  0  0  0  0  0  0  0  0
    1.0806  -52.7848  -28.0106 C   0  0  0  0  0  0  0  0  0  0  0  0
   -0.1704  -52.7553  -28.5756 C   0  0  0  0  0  0  0  0  0  0  0  0
   -0.2740  -52.8895  -29.9150 F   0  0  0  0  0  0  0  0  0  0  0  0
   -1.2298  -52.5913  -27.7303 C   0  0  0  0  0  0  0  0  0  0  0  0
   -2.8533  -52.5458  -28.3948 Cl  0  0  0  0  0  0  0  0  0  0  0  0
   -1.0941  -52.4551  -26.3369 C   0  0  0  0  0  0  0  0  0  0  0  0
    0.6677  -51.4673  -18.0287 O   0  0  0  0  0  0  0  0  0  0  0  0
   -0.4779  -51.2488  -17.2304 C   0  0  0  0  0  0  0  0  0  0  0  0
    1.6702  -50.0231  -20.0878 O   0  0  0  0  0  0  0  0  0  0  0  0
    1.3335  -48.7780  -20.7139 C   0  0  0  0  0  0  0  0  0  0  0  0
    2.5289  -48.1483  -21.3600 C   0  0  0  0  0  0  0  0  0  0  0  0
    2.7877  -48.3770  -22.7100 N   0  0  0  0  0  0  0  0  0  0  0  0
    3.4339  -49.5022  -23.2046 C   0  0  0  0  0  0  0  0  0  0  0  0
    4.4217  -50.1722  -22.2969 C   0  0  0  0  0  0  0  0  0  0  0  0
    3.9590  -52.0190  -23.6338 C   0  0  0  0  0  0  0  0  0  0  0  0
    4.9416  -51.3300  -22.9428 O   0  0  0  0  0  0  0  0  0  0  0  0
    2.9962  -47.1746  -23.4980 C   0  0  0  0  0  0  0  0  0  0  0  0
    3.2229  -45.9644  -22.6621 C   0  0  0  0  0  0  0  0  0  0  0  0
    2.9348  -44.7786  -23.3088 O   0  0  0  0  0  0  0  0  0  0  0  0
    2.1377  -44.8951  -24.4175 C   0  0  0  0  0  0  0  0  0  0  0  0
 29 30  1  0  0  0
 30 28  1  0  0  0
 28 27  1  0  0  0
 27 26  1  0  0  0
 26 31  1  0  0  0
 31 32  1  0  0  0
 32 33  1  0  0  0
 33 34  1  0  0  0
 26 25  1  0  0  0
 25 24  1  0  0  0
 24 23  1  0  0  0
 23  1  1  0  0  0
  1  2  2  0  0  0
  2  3  1  0  0  0
  3  4  2  0  0  0
  4 11  1  0  0  0
 11 13  1  0  0  0
 13 14  2  0  0  0
 14 15  1  0  0  0
 15 16  2  0  0  0
 16 17  1  0  0  0
 16 18  1  0  0  0
 18 19  1  0  0  0
 18 20  2  0  0  0
  4  5  1  0  0  0
  5  6  2  0  0  0
  6  7  1  0  0  0
  7  8  2  0  0  0
  8  9  1  0  0  0
  9 10  2  0  0  0
 10 21  1  0  0  0
 21 22  1  0  0  0
 10  1  1  0  0  0
  8  3  1  0  0  0
 20 13  1  0  0  0
 11 12  1  0  0  0
M  END
> <minimizedAffinity>
-7.16669

> <CNNscore>
0.8856191635

> <CNNaffinity>
7.4068360329

> <CNN_VS>
6.5596361160

> <CNNaffinity_variance>
0.1290995777

$$$$
[H]c1nc(N([H])c2c([H])c([H])c(F)c(Cl)c2[H])c2c([H])c(OC([H])([H])C([H])([H])N(C([H])([H])C([H])([H])OC([H])([H])[H])C([H])([H])C([H])([H])OC([H])([H])[H])c(OC([H])([H])[H])c([H])c2n1


 34 36  0  0  0  0  0  0  0  0999 V2000
    0.6956  -51.1184  -20.1161 C   0  0  0  0  0  0  0  0  0  0  0  0
    0.5641  -51.4630  -21.4662 C   0  0  0  0  0  0  0  0  0  0  0  0
   -0.1060  -52.6084  -21.8066 C   0  0  0  0  0  0  0  0  0  0  0  0
   -0.2589  -53.0050  -23.1453 C   0  0  0  0  0  0  0  0  0  0  0  0
   -0.9244  -54.1439  -23.3106 N   0  0  0  0  0  0  0  0  0  0  0  0
   -1.4295  -54.8958  -22.3550 C   0  0  0  0  0  0  0  0  0  0  0  0
   -1.3006  -54.5431  -21.0658 N   0  0  0  0  0  0  0  0  0  0  0  0
   -0.6435  -53.4085  -20.8062 C   0  0  0  0  0  0  0  0  0  0  0  0
   -0.5032  -53.0492  -19.4600 C   0  0  0  0  0  0  0  0  0  0  0  0
    0.1670  -51.9020  -19.1062 C   0  0  0  0  0  0  0  0  0  0  0  0
    0.2719  -52.2203  -24.1736 N   0  0  0  0  0  0  0  0  0  0  0  0
    0.8092  -51.3484  -23.8774 H   0  0  0  0  0  0  0  0  0  0  0  0
    0.1947  -52.4058  -25.5553 C   0  0  0  0  0  0  0  0  0  0  0  0
   -1.0262  -52.1465  -26.2252 C   0  0  0  0  0  0  0  0  0  0  0  0
   -1.1799  -52.3090  -27.5741 C   0  0  0  0  0  0  0  0  0  0  0  0
   -0.1334  -52.7395  -28.3516 C   0  0  0  0  0  0  0  0  0  0  0  0
   -0.3352  -52.8823  -29.6789 F   0  0  0  0  0  0  0  0  0  0  0  0
    1.0484  -52.9935  -27.7171 C   0  0  0  0  0  0  0  0  0  0  0  0
    2.4217  -53.5465  -28.6591 Cl  0  0  0  0  0  0  0  0  0  0  0  0
    1.2324  -52.8350  -26.3316 C   0  0  0  0  0  0  0  0  0  0  0  0
    0.3365  -51.4956  -17.7735 O   0  0  0  0  0  0  0  0  0  0  0  0
   -0.7707  -51.6616  -16.9109 C   0  0  0  0  0  0  0  0  0  0  0  0
    1.3656  -49.9747  -19.7630 O   0  0  0  0  0  0  0  0  0  0  0  0
    2.0316  -49.1926  -20.7633 C   0  0  0  0  0  0  0  0  0  0  0  0
    2.3736  -47.8265  -20.2535 C   0  0  0  0  0  0  0  0  0  0  0  0
    3.5088  -47.6450  -19.4660 N   0  0  0  0  0  0  0  0  0  0  0  0
    3.4834  -47.3833  -18.1025 C   0  0  0  0  0  0  0  0  0  0  0  0
    3.2273  -48.5470  -17.1922 C   0  0  0  0  0  0  0  0  0  0  0  0
    1.6860  -48.0270  -15.5292 C   0  0  0  0  0  0  0  0  0  0  0  0
    1.8577  -48.5446  -16.8021 O   0  0  0  0  0  0  0  0  0  0  0  0
    4.6423  -47.0636  -20.1640 C   0  0  0  0  0  0  0  0  0  0  0  0
    5.9377  -47.3090  -19.4736 C   0  0  0  0  0  0  0  0  0  0  0  0
    7.0073  -47.4617  -20.3338 O   0  0  0  0  0  0  0  0  0  0  0  0
    6.7990  -47.0142  -21.6123 C   0  0  0  0  0  0  0  0  0  0  0  0
 29 30  1  0  0  0
 30 28  1  0  0  0
 28 27  1  0  0  0
 27 26  1  0  0  0
 26 31  1  0  0  0
 31 32  1  0  0  0
 32 33  1  0  0  0
 33 34  1  0  0  0
 26 25  1  0  0  0
 25 24  1  0  0  0
 24 23  1  0  0  0
 23  1  1  0  0  0
  1  2  2  0  0  0
  2  3  1  0  0  0
  3  4  2  0  0  0
  4 11  1  0  0  0
 11 13  1  0  0  0
 13 14  2  0  0  0
 14 15  1  0  0  0
 15 16  2  0  0  0
 16 17  1  0  0  0
 16 18  1  0  0  0
 18 19  1  0  0  0
 18 20  2  0  0  0
  4  5  1  0  0  0
  5  6  2  0  0  0
  6  7  1  0  0  0
  7  8  2  0  0  0
  8  9  1  0  0  0
  9 10  2  0  0  0
 10 21  1  0  0  0
 21 22  1  0  0  0
 10  1  1  0  0  0
  8  3  1  0  0  0
 20 13  1  0  0  0
 11 12  1  0  0  0
M  END
> <minimizedAffinity>
-6.14144

> <CNNscore>
0.8065320253

> <CNNaffinity>
7.1936097145

> <CNN_VS>
5.8018765450

> <CNNaffinity_variance>
0.1917409599

$$$$
[H]c1nc(N([H])c2c([H])c([H])c(F)c(Cl)c2[H])c2c([H])c(OC([H])([H])C([H])([H])N(C([H])([H])C([H])([H])OC([H])([H])[H])C([H])([H])C([H])([H])OC([H])([H])[H])c(OC([H])([H])[H])c([H])c2n1


 34 36  0  0  0  0  0  0  0  0999 V2000
    0.4098  -50.8218  -20.5570 C   0  0  0  0  0  0  0  0  0  0  0  0
    0.2371  -51.2453  -21.8797 C   0  0  0  0  0  0  0  0  0  0  0  0
   -0.2464  -52.5032  -22.1264 C   0  0  0  0  0  0  0  0  0  0  0  0
   -0.4301  -52.9810  -23.4343 C   0  0  0  0  0  0  0  0  0  0  0  0
   -0.8967  -54.2236  -23.5071 N   0  0  0  0  0  0  0  0  0  0  0  0
   -1.1873  -55.0067  -22.4892 C   0  0  0  0  0  0  0  0  0  0  0  0
   -1.0233  -54.5785  -21.2271 N   0  0  0  0  0  0  0  0  0  0  0  0
   -0.5569  -53.3371  -21.0596 C   0  0  0  0  0  0  0  0  0  0  0  0
   -0.3784  -52.8978  -19.7420 C   0  0  0  0  0  0  0  0  0  0  0  0
    0.1059  -51.6376  -19.4820 C   0  0  0  0  0  0  0  0  0  0  0  0
   -0.1256  -52.1646  -24.5278 N   0  0  0  0  0  0  0  0  0  0  0  0
    0.2104  -51.1776  -24.3052 H   0  0  0  0  0  0  0  0  0  0  0  0
   -0.2058  -52.4503  -25.8921 C   0  0  0  0  0  0  0  0  0  0  0  0
   -1.4081  -52.1793  -26.5905 C   0  0  0  0  0  0  0  0  0  0  0  0
   -1.5636  -52.4356  -27.9245 C   0  0  0  0  0  0  0  0  0  0  0  0
   -0.5375  -52.9779  -28.6580 C   0  0  0  0  0  0  0  0  0  0  0  0
   -0.7401  -53.2105  -29.9724 F   0  0  0  0  0  0  0  0  0  0  0  0
    0.6262  -53.2443  -27.9957 C   0  0  0  0  0  0  0  0  0  0  0  0
    1.9730  -53.9382  -28.8810 Cl  0  0  0  0  0  0  0  0  0  0  0  0
    0.8116  -52.9908  -26.6245 C   0  0  0  0  0  0  0  0  0  0  0  0
    0.3038  -51.1476  -18.1818 O   0  0  0  0  0  0  0  0  0  0  0  0
   -0.4791  -51.7258  -17.1569 C   0  0  0  0  0  0  0  0  0  0  0  0
    0.8945  -49.5650  -20.2977 O   0  0  0  0  0  0  0  0  0  0  0  0
    1.8817  -48.9823  -21.1588 C   0  0  0  0  0  0  0  0  0  0  0  0
    3.2013  -49.6790  -21.0304 C   0  0  0  0  0  0  0  0  0  0  0  0
    3.9279  -49.5737  -19.8460 N   0  0  0  0  0  0  0  0  0  0  0  0
    5.0862  -48.8215  -19.7012 C   0  0  0  0  0  0  0  0  0  0  0  0
    5.6057  -48.1315  -20.9270 C   0  0  0  0  0  0  0  0  0  0  0  0
    6.2751  -45.9049  -20.8529 C   0  0  0  0  0  0  0  0  0  0  0  0
    5.1940  -46.7684  -20.9079 O   0  0  0  0  0  0  0  0  0  0  0  0
    3.8692  -50.7486  -18.9939 C   0  0  0  0  0  0  0  0  0  0  0  0
    3.6450  -50.4161  -17.5607 C   0  0  0  0  0  0  0  0  0  0  0  0
    3.7487  -51.5023  -16.7141 O   0  0  0  0  0  0  0  0  0  0  0  0
    3.7465  -51.2043  -15.3764 C   0  0  0  0  0  0  0  0  0  0  0  0
 29 30  1  0  0  0
 30 28  1  0  0  0
 28 27  1  0  0  0
 27 26  1  0  0  0
 26 31  1  0  0  0
 31 32  1  0  0  0
 32 33  1  0  0  0
 33 34  1  0  0  0
 26 25  1  0  0  0
 25 24  1  0  0  0
 24 23  1  0  0  0
 23  1  1  0  0  0
  1  2  2  0  0  0
  2  3  1  0  0  0
  3  4  2  0  0  0
  4 11  1  0  0  0
 11 13  1  0  0  0
 13 14  2  0  0  0
 14 15  1  0  0  0
 15 16  2  0  0  0
 16 17  1  0  0  0
 16 18  1  0  0  0
 18 19  1  0  0  0
 18 20  2  0  0  0
  4  5  1  0  0  0
  5  6  2  0  0  0
  6  7  1  0  0  0
  7  8  2  0  0  0
  8  9  1  0  0  0
  9 10  2  0  0  0
 10 21  1  0  0  0
 21 22  1  0  0  0
 10  1  1  0  0  0
  8  3  1  0  0  0
 20 13  1  0  0  0
 11 12  1  0  0  0
M  END
> <minimizedAffinity>
-6.69688

> <CNNscore>
0.8037944436

> <CNNaffinity>
7.1353082657

> <CNN_VS>
5.7353210449

> <CNNaffinity_variance>
0.1147963554

$$$$
[H]c1nc(N([H])c2c([H])c([H])c(F)c(Cl)c2[H])c2c([H])c(OC([H])([H])C([H])([H])N(C([H])([H])C([H])([H])OC([H])([H])[H])C([H])([H])C([H])([H])OC([H])([H])[H])c(OC([H])([H])[H])c([H])c2n1


 34 36  0  0  0  0  0  0  0  0999 V2000
    0.4899  -50.7958  -20.2936 C   0  0  0  0  0  0  0  0  0  0  0  0
    0.3652  -51.1889  -21.6311 C   0  0  0  0  0  0  0  0  0  0  0  0
   -0.1329  -52.4311  -21.9242 C   0  0  0  0  0  0  0  0  0  0  0  0
   -0.2704  -52.8785  -23.2484 C   0  0  0  0  0  0  0  0  0  0  0  0
   -0.7587  -54.1092  -23.3668 N   0  0  0  0  0  0  0  0  0  0  0  0
   -1.1085  -54.9061  -22.3788 C   0  0  0  0  0  0  0  0  0  0  0  0
   -0.9897  -54.5070  -21.1022 N   0  0  0  0  0  0  0  0  0  0  0  0
   -0.5057  -53.2794  -20.8892 C   0  0  0  0  0  0  0  0  0  0  0  0
   -0.3746  -52.8705  -19.5563 C   0  0  0  0  0  0  0  0  0  0  0  0
    0.1238  -51.6263  -19.2498 C   0  0  0  0  0  0  0  0  0  0  0  0
    0.0971  -52.0470  -24.3107 N   0  0  0  0  0  0  0  0  0  0  0  0
    0.5361  -51.1106  -24.0517 H   0  0  0  0  0  0  0  0  0  0  0  0
   -0.0354  -52.2591  -25.6844 C   0  0  0  0  0  0  0  0  0  0  0  0
    1.1264  -52.4130  -26.4802 C   0  0  0  0  0  0  0  0  0  0  0  0
    1.0769  -52.6193  -27.8309 C   0  0  0  0  0  0  0  0  0  0  0  0
   -0.1280  -52.6876  -28.4855 C   0  0  0  0  0  0  0  0  0  0  0  0
   -0.1237  -52.8947  -29.8196 F   0  0  0  0  0  0  0  0  0  0  0  0
   -1.2550  -52.5399  -27.7293 C   0  0  0  0  0  0  0  0  0  0  0  0
   -2.8241  -52.6177  -28.5109 Cl  0  0  0  0  0  0  0  0  0  0  0  0
   -1.2314  -52.3262  -26.3391 C   0  0  0  0  0  0  0  0  0  0  0  0
    0.2760  -51.1668  -17.9324 O   0  0  0  0  0  0  0  0  0  0  0  0
   -0.6543  -51.6420  -16.9803 C   0  0  0  0  0  0  0  0  0  0  0  0
    0.9886  -49.5551  -19.9878 O   0  0  0  0  0  0  0  0  0  0  0  0
    1.2370  -48.6021  -21.0299 C   0  0  0  0  0  0  0  0  0  0  0  0
    2.6896  -48.2471  -21.1134 C   0  0  0  0  0  0  0  0  0  0  0  0
    3.5392  -48.9922  -21.9286 N   0  0  0  0  0  0  0  0  0  0  0  0
    3.4441  -49.0526  -23.3126 C   0  0  0  0  0  0  0  0  0  0  0  0
    4.6689  -48.6825  -24.0945 C   0  0  0  0  0  0  0  0  0  0  0  0
    4.0696  -50.7076  -25.0700 C   0  0  0  0  0  0  0  0  0  0  0  0
    5.1004  -49.8092  -24.8510 O   0  0  0  0  0  0  0  0  0  0  0  0
    4.0624  -50.1997  -21.3134 C   0  0  0  0  0  0  0  0  0  0  0  0
    5.4102  -50.0081  -20.7122 C   0  0  0  0  0  0  0  0  0  0  0  0
    6.4044  -50.7427  -21.3279 O   0  0  0  0  0  0  0  0  0  0  0  0
    7.3925  -50.0050  -21.9260 C   0  0  0  0  0  0  0  0  0  0  0  0
 29 30  1  0  0  0
 30 28  1  0  0  0
 28 27  1  0  0  0
 27 26  1  0  0  0
 26 31  1  0  0  0
 31 32  1  0  0  0
 32 33  1  0  0  0
 33 34  1  0  0  0
 26 25  1  0  0  0
 25 24  1  0  0  0
 24 23  1  0  0  0
 23  1  1  0  0  0
  1  2  2  0  0  0
  2  3  1  0  0  0
  3  4  2  0  0  0
  4 11  1  0  0  0
 11 13  1  0  0  0
 13 14  2  0  0  0
 14 15  1  0  0  0
 15 16  2  0  0  0
 16 17  1  0  0  0
 16 18  1  0  0  0
 18 19  1  0  0  0
 18 20  2  0  0  0
  4  5  1  0  0  0
  5  6  2  0  0  0
  6  7  1  0  0  0
  7  8  2  0  0  0
  8  9  1  0  0  0
  9 10  2  0  0  0
 10 21  1  0  0  0
 21 22  1  0  0  0
 10  1  1  0  0  0
  8  3  1  0  0  0
 20 13  1  0  0  0
 11 12  1  0  0  0
M  END
> <minimizedAffinity>
-7.08308

> <CNNscore>
0.7740529180

> <CNNaffinity>
7.1159811020

> <CNN_VS>
5.5081458092

> <CNNaffinity_variance>
0.1212005988

$$$$
[H]c1nc(N([H])c2c([H])c([H])c(F)c(Cl)c2[H])c2c([H])c(OC([H])([H])C([H])([H])N(C([H])([H])C([H])([H])OC([H])([H])[H])C([H])([H])C([H])([H])OC([H])([H])[H])c(OC([H])([H])[H])c([H])c2n1


 34 36  0  0  0  0  0  0  0  0999 V2000
    1.1290  -51.7187  -25.5157 C   0  0  0  0  0  0  0  0  0  0  0  0
    1.0875  -51.9969  -24.1447 C   0  0  0  0  0  0  0  0  0  0  0  0
    0.3389  -53.0521  -23.6941 C   0  0  0  0  0  0  0  0  0  0  0  0
    0.2556  -53.3693  -22.3284 C   0  0  0  0  0  0  0  0  0  0  0  0
   -0.5180  -54.4141  -22.0510 N   0  0  0  0  0  0  0  0  0  0  0  0
   -1.1835  -55.1429  -22.9226 C   0  0  0  0  0  0  0  0  0  0  0  0
   -1.1234  -54.8654  -24.2350 N   0  0  0  0  0  0  0  0  0  0  0  0
   -0.3664  -53.8280  -24.6054 C   0  0  0  0  0  0  0  0  0  0  0  0
   -0.3140  -53.5361  -25.9740 C   0  0  0  0  0  0  0  0  0  0  0  0
    0.4339  -52.4799  -26.4381 C   0  0  0  0  0  0  0  0  0  0  0  0
    0.9540  -52.6059  -21.3879 N   0  0  0  0  0  0  0  0  0  0  0  0
    1.9379  -52.2991  -21.6607 H   0  0  0  0  0  0  0  0  0  0  0  0
    0.5522  -52.1853  -20.1186 C   0  0  0  0  0  0  0  0  0  0  0  0
    1.2006  -51.0806  -19.5136 C   0  0  0  0  0  0  0  0  0  0  0  0
    0.8659  -50.6139  -18.2729 C   0  0  0  0  0  0  0  0  0  0  0  0
   -0.1351  -51.2101  -17.5466 C   0  0  0  0  0  0  0  0  0  0  0  0
   -0.4292  -50.7107  -16.3272 F   0  0  0  0  0  0  0  0  0  0  0  0
   -0.7671  -52.2764  -18.1188 C   0  0  0  0  0  0  0  0  0  0  0  0
   -2.0548  -53.0794  -17.2377 Cl  0  0  0  0  0  0  0  0  0  0  0  0
   -0.4416  -52.7763  -19.3927 C   0  0  0  0  0  0  0  0  0  0  0  0
    0.5211  -52.1437  -27.7980 O   0  0  0  0  0  0  0  0  0  0  0  0
   -0.4670  -52.6835  -28.6524 C   0  0  0  0  0  0  0  0  0  0  0  0
    1.8739  -50.6639  -25.9785 O   0  0  0  0  0  0  0  0  0  0  0  0
    3.3060  -50.7254  -25.9474 C   0  0  0  0  0  0  0  0  0  0  0  0
    3.9096  -49.3659  -25.7728 C   0  0  0  0  0  0  0  0  0  0  0  0
    4.0993  -48.8513  -24.4918 N   0  0  0  0  0  0  0  0  0  0  0  0
    4.5024  -49.6037  -23.3965 C   0  0  0  0  0  0  0  0  0  0  0  0
    3.4403  -49.9944  -22.4127 C   0  0  0  0  0  0  0  0  0  0  0  0
    4.8098  -51.8728  -22.5001 C   0  0  0  0  0  0  0  0  0  0  0  0
    3.7942  -51.2343  -21.8083 O   0  0  0  0  0  0  0  0  0  0  0  0
    3.2440  -47.7251  -24.1596 C   0  0  0  0  0  0  0  0  0  0  0  0
    3.9813  -46.6080  -23.5089 C   0  0  0  0  0  0  0  0  0  0  0  0
    3.1751  -45.5495  -23.1387 O   0  0  0  0  0  0  0  0  0  0  0  0
    2.4691  -44.9666  -24.1584 C   0  0  0  0  0  0  0  0  0  0  0  0
 29 30  1  0  0  0
 30 28  1  0  0  0
 28 27  1  0  0  0
 27 26  1  0  0  0
 26 31  1  0  0  0
 31 32  1  0  0  0
 32 33  1  0  0  0
 33 34  1  0  0  0
 26 25  1  0  0  0
 25 24  1  0  0  0
 24 23  1  0  0  0
 23  1  1  0  0  0
  1  2  2  0  0  0
  2  3  1  0  0  0
  3  4  2  0  0  0
  4 11  1  0  0  0
 11 13  1  0  0  0
 13 14  2  0  0  0
 14 15  1  0  0  0
 15 16  2  0  0  0
 16 17  1  0  0  0
 16 18  1  0  0  0
 18 19  1  0  0  0
 18 20  2  0  0  0
  4  5  1  0  0  0
  5  6  2  0  0  0
  6  7  1  0  0  0
  7  8  2  0  0  0
  8  9  1  0  0  0
  9 10  2  0  0  0
 10 21  1  0  0  0
 21 22  1  0  0  0
 10  1  1  0  0  0
  8  3  1  0  0  0
 20 13  1  0  0  0
 11 12  1  0  0  0
M  END
> <minimizedAffinity>
-6.37849

> <CNNscore>
0.7056483030

> <CNNaffinity>
7.1554460526

> <CNN_VS>
5.0492281914

> <CNNaffinity_variance>
0.1323039234

$$$$
[H]c1nc(N([H])c2c([H])c([H])c(F)c(Cl)c2[H])c2c([H])c(OC([H])([H])C([H])([H])N(C([H])([H])C([H])([H])OC([H])([H])[H])C([H])([H])C([H])([H])OC([H])([H])[H])c(OC([H])([H])[H])c([H])c2n1


 34 36  0  0  0  0  0  0  0  0999 V2000
    0.4512  -50.9392  -20.0569 C   0  0  0  0  0  0  0  0  0  0  0  0
    0.3187  -51.2593  -21.4129 C   0  0  0  0  0  0  0  0  0  0  0  0
   -0.2232  -52.4659  -21.7701 C   0  0  0  0  0  0  0  0  0  0  0  0
   -0.3705  -52.8405  -23.1157 C   0  0  0  0  0  0  0  0  0  0  0  0
   -0.9031  -54.0448  -23.2978 N   0  0  0  0  0  0  0  0  0  0  0  0
   -1.2867  -54.8771  -22.3524 C   0  0  0  0  0  0  0  0  0  0  0  0
   -1.1597  -54.5476  -21.0570 N   0  0  0  0  0  0  0  0  0  0  0  0
   -0.6320  -53.3510  -20.7805 C   0  0  0  0  0  0  0  0  0  0  0  0
   -0.4925  -53.0151  -19.4282 C   0  0  0  0  0  0  0  0  0  0  0  0
    0.0497  -51.8073  -19.0576 C   0  0  0  0  0  0  0  0  0  0  0  0
    0.0325  -51.9705  -24.1334 N   0  0  0  0  0  0  0  0  0  0  0  0
   -0.2287  -50.9440  -24.0125 H   0  0  0  0  0  0  0  0  0  0  0  0
    0.7304  -52.2512  -25.3097 C   0  0  0  0  0  0  0  0  0  0  0  0
    2.1384  -52.4002  -25.2650 C   0  0  0  0  0  0  0  0  0  0  0  0
    2.8901  -52.6710  -26.3745 C   0  0  0  0  0  0  0  0  0  0  0  0
    2.2974  -52.8130  -27.6048 C   0  0  0  0  0  0  0  0  0  0  0  0
    3.0829  -53.0820  -28.6693 F   0  0  0  0  0  0  0  0  0  0  0  0
    0.9408  -52.6708  -27.6607 C   0  0  0  0  0  0  0  0  0  0  0  0
    0.1273  -52.8414  -29.2061 Cl  0  0  0  0  0  0  0  0  0  0  0  0
    0.1449  -52.3917  -26.5349 C   0  0  0  0  0  0  0  0  0  0  0  0
    0.2121  -51.4208  -17.7181 O   0  0  0  0  0  0  0  0  0  0  0  0
   -0.8532  -51.7138  -16.8366 C   0  0  0  0  0  0  0  0  0  0  0  0
    0.9936  -49.7347  -19.6871 O   0  0  0  0  0  0  0  0  0  0  0  0
    2.0875  -49.1796  -20.4293 C   0  0  0  0  0  0  0  0  0  0  0  0
    3.3423  -49.1438  -19.6124 C   0  0  0  0  0  0  0  0  0  0  0  0
    4.3889  -48.3033  -19.9865 N   0  0  0  0  0  0  0  0  0  0  0  0
    5.5296  -48.7230  -20.6580 C   0  0  0  0  0  0  0  0  0  0  0  0
    5.6266  -50.1831  -20.9854 C   0  0  0  0  0  0  0  0  0  0  0  0
    4.5121  -51.6314  -22.4248 C   0  0  0  0  0  0  0  0  0  0  0  0
    5.1368  -50.4014  -22.3046 O   0  0  0  0  0  0  0  0  0  0  0  0
    4.5999  -47.1700  -19.1027 C   0  0  0  0  0  0  0  0  0  0  0  0
    4.2581  -47.4674  -17.6851 C   0  0  0  0  0  0  0  0  0  0  0  0
    4.1936  -46.3466  -16.8806 O   0  0  0  0  0  0  0  0  0  0  0  0
    4.3723  -45.1512  -17.5266 C   0  0  0  0  0  0  0  0  0  0  0  0
 29 30  1  0  0  0
 30 28  1  0  0  0
 28 27  1  0  0  0
 27 26  1  0  0  0
 26 31  1  0  0  0
 31 32  1  0  0  0
 32 33  1  0  0  0
 33 34  1  0  0  0
 26 25  1  0  0  0
 25 24  1  0  0  0
 24 23  1  0  0  0
 23  1  1  0  0  0
  1  2  2  0  0  0
  2  3  1  0  0  0
  3  4  2  0  0  0
  4 11  1  0  0  0
 11 13  1  0  0  0
 13 14  2  0  0  0
 14 15  1  0  0  0
 15 16  2  0  0  0
 16 17  1  0  0  0
 16 18  1  0  0  0
 18 19  1  0  0  0
 18 20  2  0  0  0
  4  5  1  0  0  0
  5  6  2  0  0  0
  6  7  1  0  0  0
  7  8  2  0  0  0
  8  9  1  0  0  0
  9 10  2  0  0  0
 10 21  1  0  0  0
 21 22  1  0  0  0
 10  1  1  0  0  0
  8  3  1  0  0  0
 20 13  1  0  0  0
 11 12  1  0  0  0
M  END
> <minimizedAffinity>
-6.16564

> <CNNscore>
0.6203619242

> <CNNaffinity>
6.8820242882

> <CNN_VS>
4.2693457603

> <CNNaffinity_variance>
0.1496336758

$$$$
[H]/C(=N\N1C([H])([H])C([H])([H])C([H])([H])[C@@]1([H])C([H])([H])OC([H])([H])[H])c1c(N([H])[H])nc([H])nc1N([H])c1c([H])c([H])c2c(c([H])nn2C([H])([H])c2c([H])c([H])c([H])c(F)c2[H])c1[H]


 38 42  0  0  0  0  0  0  0  0999 V2000
   -0.3394  -53.5979  -23.2601 C   0  0  0  0  0  0  0  0  0  0  0  0
   -1.1106  -54.7586  -23.1406 C   0  0  0  0  0  0  0  0  0  0  0  0
   -1.0426  -55.6906  -24.2095 N   0  0  0  0  0  0  0  0  0  0  0  0
   -1.8659  -54.9460  -22.0522 N   0  0  0  0  0  0  0  0  0  0  0  0
   -1.9221  -54.0562  -21.0468 C   0  0  0  0  0  0  0  0  0  0  0  0
   -1.1837  -52.9472  -21.1633 N   0  0  0  0  0  0  0  0  0  0  0  0
   -0.3873  -52.6815  -22.2413 C   0  0  0  0  0  0  0  0  0  0  0  0
   -0.3152  -56.4310  -24.1543 H   0  0  0  0  0  0  0  0  0  0  0  0
   -1.6630  -55.6915  -25.0431 H   0  0  0  0  0  0  0  0  0  0  0  0
    0.0611  -52.6135  -25.4148 N   0  0  0  0  0  0  0  0  0  0  0  0
    0.4752  -53.4003  -24.4321 C   0  0  0  0  0  0  0  0  0  0  0  0
    0.5063  -52.6364  -27.9537 C   0  0  0  0  0  0  0  0  0  0  0  0
    1.7564  -53.3442  -28.4140 C   0  0  0  0  0  0  0  0  0  0  0  0
    2.8356  -52.6561  -27.6065 C   0  0  0  0  0  0  0  0  0  0  0  0
    2.1548  -51.8298  -26.5607 C   0  0  0  0  0  0  0  0  0  0  0  0
    0.8048  -52.3954  -26.5520 N   0  0  0  0  0  0  0  0  0  0  0  0
   -0.7324  -53.4396  -28.1477 C   0  0  0  0  0  0  0  0  0  0  0  0
   -2.7896  -52.4519  -27.9881 C   0  0  0  0  0  0  0  0  0  0  0  0
   -1.7110  -52.7384  -28.7923 O   0  0  0  0  0  0  0  0  0  0  0  0
    0.3483  -51.4868  -22.3528 N   0  0  0  0  0  0  0  0  0  0  0  0
    0.3259  -50.9060  -23.2535 H   0  0  0  0  0  0  0  0  0  0  0  0
    1.1414  -51.0159  -21.2666 C   0  0  0  0  0  0  0  0  0  0  0  0
    0.4861  -50.5945  -20.0895 C   0  0  0  0  0  0  0  0  0  0  0  0
    1.1531  -50.0954  -19.0062 C   0  0  0  0  0  0  0  0  0  0  0  0
    2.5233  -49.9778  -19.0127 C   0  0  0  0  0  0  0  0  0  0  0  0
    3.4270  -49.5376  -18.1233 N   0  0  0  0  0  0  0  0  0  0  0  0
    4.6571  -49.6394  -18.6386 N   0  0  0  0  0  0  0  0  0  0  0  0
    4.5165  -50.1614  -19.8938 C   0  0  0  0  0  0  0  0  0  0  0  0
    3.1882  -50.3807  -20.1481 C   0  0  0  0  0  0  0  0  0  0  0  0
    2.5061  -50.8893  -21.2529 C   0  0  0  0  0  0  0  0  0  0  0  0
    3.1331  -49.0252  -16.8023 C   0  0  0  0  0  0  0  0  0  0  0  0
    2.8927  -50.1034  -15.8138 C   0  0  0  0  0  0  0  0  0  0  0  0
    1.6955  -50.1117  -15.1388 C   0  0  0  0  0  0  0  0  0  0  0  0
    1.4251  -51.0859  -14.2150 C   0  0  0  0  0  0  0  0  0  0  0  0
    2.3368  -52.0795  -13.9358 C   0  0  0  0  0  0  0  0  0  0  0  0
    3.5372  -52.0736  -14.6106 C   0  0  0  0  0  0  0  0  0  0  0  0
    4.4607  -53.0393  -14.3602 F   0  0  0  0  0  0  0  0  0  0  0  0
    3.8048  -51.0923  -15.5384 C   0  0  0  0  0  0  0  0  0  0  0  0
 18 19  1  0  0  0
 19 17  1  0  0  0
 17 12  1  0  0  0
 12 13  1  0  0  0
 13 14  1  0  0  0
 14 15  1  0  0  0
 15 16  1  0  0  0
 16 10  1  0  0  0
 10 11  2  0  0  0
 11  1  1  0  0  0
  1  2  2  0  0  0
  2  3  1  0  0  0
  2  4  1  0  0  0
  4  5  2  0  0  0
  5  6  1  0  0  0
  6  7  2  0  0  0
  7 20  1  0  0  0
 20 22  1  0  0  0
 22 23  2  0  0  0
 23 24  1  0  0  0
 24 25  2  0  0  0
 25 26  1  0  0  0
 26 31  1  0  0  0
 31 32  1  0  0  0
 32 33  2  0  0  0
 33 34  1  0  0  0
 34 35  2  0  0  0
 35 36  1  0  0  0
 36 37  1  0  0  0
 36 38  2  0  0  0
 26 27  1  0  0  0
 27 28  2  0  0  0
 28 29  1  0  0  0
 29 30  2  0  0  0
 16 12  1  0  0  0
  7  1  1  0  0  0
 30 22  1  0  0  0
 29 25  1  0  0  0
 38 32  1  0  0  0
  3  8  1  0  0  0
  3  9  1  0  0  0
 20 21  1  0  0  0
M  END
> <minimizedAffinity>
-8.39489

> <CNNscore>
0.8338427544

> <CNNaffinity>
7.6558380127

> <CNN_VS>
6.3837652206

> <CNNaffinity_variance>
0.2819204926

$$$$
[H]/C(=N\N1C([H])([H])C([H])([H])C([H])([H])[C@@]1([H])C([H])([H])OC([H])([H])[H])c1c(N([H])[H])nc([H])nc1N([H])c1c([H])c([H])c2c(c([H])nn2C([H])([H])c2c([H])c([H])c([H])c(F)c2[H])c1[H]


 38 42  0  0  0  0  0  0  0  0999 V2000
   -0.4862  -53.4001  -23.0875 C   0  0  0  0  0  0  0  0  0  0  0  0
   -1.2102  -54.5835  -22.9097 C   0  0  0  0  0  0  0  0  0  0  0  0
   -1.3021  -55.4567  -24.0253 N   0  0  0  0  0  0  0  0  0  0  0  0
   -1.7763  -54.8452  -21.7260 N   0  0  0  0  0  0  0  0  0  0  0  0
   -1.6824  -54.0105  -20.6770 C   0  0  0  0  0  0  0  0  0  0  0  0
   -0.9896  -52.8796  -20.8495 N   0  0  0  0  0  0  0  0  0  0  0  0
   -0.3824  -52.5393  -22.0253 C   0  0  0  0  0  0  0  0  0  0  0  0
   -0.5642  -56.1815  -24.1289 H   0  0  0  0  0  0  0  0  0  0  0  0
   -2.0492  -55.4291  -24.7471 H   0  0  0  0  0  0  0  0  0  0  0  0
    1.3925  -53.4380  -24.5846 N   0  0  0  0  0  0  0  0  0  0  0  0
    0.1247  -53.1224  -24.3626 C   0  0  0  0  0  0  0  0  0  0  0  0
    3.2712  -52.5256  -26.0955 C   0  0  0  0  0  0  0  0  0  0  0  0
    2.8535  -51.5894  -27.2022 C   0  0  0  0  0  0  0  0  0  0  0  0
    1.8113  -52.4022  -27.9394 C   0  0  0  0  0  0  0  0  0  0  0  0
    1.4869  -53.5912  -27.0903 C   0  0  0  0  0  0  0  0  0  0  0  0
    2.0173  -53.1918  -25.7858 N   0  0  0  0  0  0  0  0  0  0  0  0
    3.8557  -51.8251  -24.9188 C   0  0  0  0  0  0  0  0  0  0  0  0
    5.9273  -51.5947  -23.9759 C   0  0  0  0  0  0  0  0  0  0  0  0
    4.9612  -52.4617  -24.4313 O   0  0  0  0  0  0  0  0  0  0  0  0
    0.3072  -51.3231  -22.1876 N   0  0  0  0  0  0  0  0  0  0  0  0
    0.1889  -50.7350  -23.0759 H   0  0  0  0  0  0  0  0  0  0  0  0
    1.1804  -50.8398  -21.1704 C   0  0  0  0  0  0  0  0  0  0  0  0
    0.6155  -50.3945  -19.9559 C   0  0  0  0  0  0  0  0  0  0  0  0
    1.3628  -49.8822  -18.9329 C   0  0  0  0  0  0  0  0  0  0  0  0
    2.7295  -49.7740  -19.0416 C   0  0  0  0  0  0  0  0  0  0  0  0
    3.6984  -49.3254  -18.2283 N   0  0  0  0  0  0  0  0  0  0  0  0
    4.8868  -49.4441  -18.8304 N   0  0  0  0  0  0  0  0  0  0  0  0
    4.6517  -49.9858  -20.0629 C   0  0  0  0  0  0  0  0  0  0  0  0
    3.3071  -50.2002  -20.2157 C   0  0  0  0  0  0  0  0  0  0  0  0
    2.5431  -50.7223  -21.2588 C   0  0  0  0  0  0  0  0  0  0  0  0
    3.5049  -48.7893  -16.8983 C   0  0  0  0  0  0  0  0  0  0  0  0
    3.1622  -49.8363  -15.9065 C   0  0  0  0  0  0  0  0  0  0  0  0
    2.0334  -49.6633  -15.1419 C   0  0  0  0  0  0  0  0  0  0  0  0
    1.6737  -50.6014  -14.2111 C   0  0  0  0  0  0  0  0  0  0  0  0
    2.4258  -51.7381  -14.0139 C   0  0  0  0  0  0  0  0  0  0  0  0
    3.5574  -51.9140  -14.7787 C   0  0  0  0  0  0  0  0  0  0  0  0
    4.3236  -53.0244  -14.6107 F   0  0  0  0  0  0  0  0  0  0  0  0
    3.9151  -50.9683  -15.7131 C   0  0  0  0  0  0  0  0  0  0  0  0
 18 19  1  0  0  0
 19 17  1  0  0  0
 17 12  1  0  0  0
 12 13  1  0  0  0
 13 14  1  0  0  0
 14 15  1  0  0  0
 15 16  1  0  0  0
 16 10  1  0  0  0
 10 11  2  0  0  0
 11  1  1  0  0  0
  1  2  2  0  0  0
  2  3  1  0  0  0
  2  4  1  0  0  0
  4  5  2  0  0  0
  5  6  1  0  0  0
  6  7  2  0  0  0
  7 20  1  0  0  0
 20 22  1  0  0  0
 22 23  2  0  0  0
 23 24  1  0  0  0
 24 25  2  0  0  0
 25 26  1  0  0  0
 26 31  1  0  0  0
 31 32  1  0  0  0
 32 33  2  0  0  0
 33 34  1  0  0  0
 34 35  2  0  0  0
 35 36  1  0  0  0
 36 37  1  0  0  0
 36 38  2  0  0  0
 26 27  1  0  0  0
 27 28  2  0  0  0
 28 29  1  0  0  0
 29 30  2  0  0  0
 16 12  1  0  0  0
  7  1  1  0  0  0
 30 22  1  0  0  0
 29 25  1  0  0  0
 38 32  1  0  0  0
  3  8  1  0  0  0
  3  9  1  0  0  0
 20 21  1  0  0  0
M  END
> <minimizedAffinity>
-7.52345

> <CNNscore>
0.6964188814

> <CNNaffinity>
7.4998474121

> <CNN_VS>
5.2230353355

> <CNNaffinity_variance>
0.0959395766

$$$$
[H]/C(=N\N1C([H])([H])C([H])([H])C([H])([H])[C@@]1([H])C([H])([H])OC([H])([H])[H])c1c(N([H])[H])nc([H])nc1N([H])c1c([H])c([H])c2c(c([H])nn2C([H])([H])c2c([H])c([H])c([H])c(F)c2[H])c1[H]


 38 42  0  0  0  0  0  0  0  0999 V2000
   -0.1089  -53.6354  -22.6352 C   0  0  0  0  0  0  0  0  0  0  0  0
   -1.0712  -54.5730  -23.0239 C   0  0  0  0  0  0  0  0  0  0  0  0
   -0.9377  -55.1338  -24.3213 N   0  0  0  0  0  0  0  0  0  0  0  0
   -2.0583  -54.9006  -22.1822 N   0  0  0  0  0  0  0  0  0  0  0  0
   -2.1742  -54.3627  -20.9562 C   0  0  0  0  0  0  0  0  0  0  0  0
   -1.2529  -53.4664  -20.5869 N   0  0  0  0  0  0  0  0  0  0  0  0
   -0.2152  -53.0785  -21.3868 C   0  0  0  0  0  0  0  0  0  0  0  0
   -0.3725  -56.0013  -24.4127 H   0  0  0  0  0  0  0  0  0  0  0  0
   -1.3607  -54.7458  -25.1875 H   0  0  0  0  0  0  0  0  0  0  0  0
    0.7195  -52.5048  -24.5867 N   0  0  0  0  0  0  0  0  0  0  0  0
    0.9546  -53.2867  -23.5428 C   0  0  0  0  0  0  0  0  0  0  0  0
    1.6724  -51.9723  -26.9218 C   0  0  0  0  0  0  0  0  0  0  0  0
    2.8903  -52.7535  -27.3487 C   0  0  0  0  0  0  0  0  0  0  0  0
    3.8581  -52.4919  -26.2151 C   0  0  0  0  0  0  0  0  0  0  0  0
    3.0868  -51.8452  -25.1074 C   0  0  0  0  0  0  0  0  0  0  0  0
    1.7034  -52.1457  -25.4792 N   0  0  0  0  0  0  0  0  0  0  0  0
    0.4086  -52.4683  -27.5333 C   0  0  0  0  0  0  0  0  0  0  0  0
   -0.6865  -52.7414  -29.5232 C   0  0  0  0  0  0  0  0  0  0  0  0
    0.5268  -52.6709  -28.8787 O   0  0  0  0  0  0  0  0  0  0  0  0
    0.7169  -52.1037  -20.9844 N   0  0  0  0  0  0  0  0  0  0  0  0
    1.4920  -51.7734  -21.6471 H   0  0  0  0  0  0  0  0  0  0  0  0
    0.6515  -51.5270  -19.6830 C   0  0  0  0  0  0  0  0  0  0  0  0
   -0.1779  -52.1383  -18.7182 C   0  0  0  0  0  0  0  0  0  0  0  0
   -0.3356  -51.6439  -17.4539 C   0  0  0  0  0  0  0  0  0  0  0  0
    0.3205  -50.5032  -17.0543 C   0  0  0  0  0  0  0  0  0  0  0  0
    0.3615  -49.8014  -15.9109 N   0  0  0  0  0  0  0  0  0  0  0  0
    1.1743  -48.7489  -16.0539 N   0  0  0  0  0  0  0  0  0  0  0  0
    1.6578  -48.7951  -17.3313 C   0  0  0  0  0  0  0  0  0  0  0  0
    1.1356  -49.8859  -17.9753 C   0  0  0  0  0  0  0  0  0  0  0  0
    1.2951  -50.3913  -19.2651 C   0  0  0  0  0  0  0  0  0  0  0  0
   -0.3595  -50.1196  -14.6974 C   0  0  0  0  0  0  0  0  0  0  0  0
   -1.8219  -49.9205  -14.8348 C   0  0  0  0  0  0  0  0  0  0  0  0
   -2.2919  -48.6385  -14.9908 C   0  0  0  0  0  0  0  0  0  0  0  0
   -3.6344  -48.4013  -15.1214 C   0  0  0  0  0  0  0  0  0  0  0  0
   -4.5480  -49.4316  -15.1007 C   0  0  0  0  0  0  0  0  0  0  0  0
   -4.0798  -50.7172  -14.9446 C   0  0  0  0  0  0  0  0  0  0  0  0
   -4.9533  -51.7586  -14.9196 F   0  0  0  0  0  0  0  0  0  0  0  0
   -2.7294  -50.9509  -14.8136 C   0  0  0  0  0  0  0  0  0  0  0  0
 18 19  1  0  0  0
 19 17  1  0  0  0
 17 12  1  0  0  0
 12 13  1  0  0  0
 13 14  1  0  0  0
 14 15  1  0  0  0
 15 16  1  0  0  0
 16 10  1  0  0  0
 10 11  2  0  0  0
 11  1  1  0  0  0
  1  2  2  0  0  0
  2  3  1  0  0  0
  2  4  1  0  0  0
  4  5  2  0  0  0
  5  6  1  0  0  0
  6  7  2  0  0  0
  7 20  1  0  0  0
 20 22  1  0  0  0
 22 23  2  0  0  0
 23 24  1  0  0  0
 24 25  2  0  0  0
 25 26  1  0  0  0
 26 31  1  0  0  0
 31 32  1  0  0  0
 32 33  2  0  0  0
 33 34  1  0  0  0
 34 35  2  0  0  0
 35 36  1  0  0  0
 36 37  1  0  0  0
 36 38  2  0  0  0
 26 27  1  0  0  0
 27 28  2  0  0  0
 28 29  1  0  0  0
 29 30  2  0  0  0
 16 12  1  0  0  0
  7  1  1  0  0  0
 30 22  1  0  0  0
 29 25  1  0  0  0
 38 32  1  0  0  0
  3  8  1  0  0  0
  3  9  1  0  0  0
 20 21  1  0  0  0
M  END
> <minimizedAffinity>
-8.05104

> <CNNscore>
0.6795051098

> <CNNaffinity>
7.4041509628

> <CNN_VS>
5.0311584473

> <CNNaffinity_variance>
0.1285769343

$$$$
[H]/C(=N\N1C([H])([H])C([H])([H])C([H])([H])[C@@]1([H])C([H])([H])OC([H])([H])[H])c1c(N([H])[H])nc([H])nc1N([H])c1c([H])c([H])c2c(c([H])nn2C([H])([H])c2c([H])c([H])c([H])c(F)c2[H])c1[H]


 38 42  0  0  0  0  0  0  0  0999 V2000
   -0.2701  -53.5558  -23.2156 C   0  0  0  0  0  0  0  0  0  0  0  0
   -1.1020  -54.6732  -23.0905 C   0  0  0  0  0  0  0  0  0  0  0  0
   -1.1045  -55.5987  -24.1671 N   0  0  0  0  0  0  0  0  0  0  0  0
   -1.8472  -54.8274  -21.9901 N   0  0  0  0  0  0  0  0  0  0  0  0
   -1.8363  -53.9442  -20.9774 C   0  0  0  0  0  0  0  0  0  0  0  0
   -1.0400  -52.8766  -21.0993 N   0  0  0  0  0  0  0  0  0  0  0  0
   -0.2493  -52.6464  -22.1896 C   0  0  0  0  0  0  0  0  0  0  0  0
   -0.4183  -56.3785  -24.1304 H   0  0  0  0  0  0  0  0  0  0  0  0
   -1.7386  -55.5586  -24.9894 H   0  0  0  0  0  0  0  0  0  0  0  0
    0.3217  -52.3768  -25.2237 N   0  0  0  0  0  0  0  0  0  0  0  0
    0.5333  -53.3938  -24.4007 C   0  0  0  0  0  0  0  0  0  0  0  0
    0.9435  -52.7550  -27.6965 C   0  0  0  0  0  0  0  0  0  0  0  0
    2.3664  -53.1684  -27.9797 C   0  0  0  0  0  0  0  0  0  0  0  0
    3.1634  -52.0726  -27.3057 C   0  0  0  0  0  0  0  0  0  0  0  0
    2.2136  -51.2819  -26.4615 C   0  0  0  0  0  0  0  0  0  0  0  0
    1.0636  -52.1822  -26.3663 N   0  0  0  0  0  0  0  0  0  0  0  0
   -0.0219  -53.8874  -27.7496 C   0  0  0  0  0  0  0  0  0  0  0  0
   -0.9215  -52.4651  -29.2993 C   0  0  0  0  0  0  0  0  0  0  0  0
   -1.0445  -53.6579  -28.6252 O   0  0  0  0  0  0  0  0  0  0  0  0
    0.5491  -51.4932  -22.3058 N   0  0  0  0  0  0  0  0  0  0  0  0
    0.7276  -51.0385  -23.2599 H   0  0  0  0  0  0  0  0  0  0  0  0
    1.1395  -50.8972  -21.1539 C   0  0  0  0  0  0  0  0  0  0  0  0
    0.7824  -49.5716  -20.8257 C   0  0  0  0  0  0  0  0  0  0  0  0
    1.3174  -48.8998  -19.7626 C   0  0  0  0  0  0  0  0  0  0  0  0
    2.2487  -49.4969  -18.9457 C   0  0  0  0  0  0  0  0  0  0  0  0
    2.9295  -49.0995  -17.8594 N   0  0  0  0  0  0  0  0  0  0  0  0
    3.7273  -50.0870  -17.4379 N   0  0  0  0  0  0  0  0  0  0  0  0
    3.5380  -51.1377  -18.2911 C   0  0  0  0  0  0  0  0  0  0  0  0
    2.6160  -50.7894  -19.2429 C   0  0  0  0  0  0  0  0  0  0  0  0
    2.0696  -51.4733  -20.3283 C   0  0  0  0  0  0  0  0  0  0  0  0
    2.8295  -47.8020  -17.2267 C   0  0  0  0  0  0  0  0  0  0  0  0
    2.1640  -47.8633  -15.9036 C   0  0  0  0  0  0  0  0  0  0  0  0
    2.8165  -47.3221  -14.8218 C   0  0  0  0  0  0  0  0  0  0  0  0
    2.2446  -47.3538  -13.5778 C   0  0  0  0  0  0  0  0  0  0  0  0
    1.0079  -47.9244  -13.3736 C   0  0  0  0  0  0  0  0  0  0  0  0
    0.3519  -48.4674  -14.4558 C   0  0  0  0  0  0  0  0  0  0  0  0
   -0.8706  -49.0388  -14.2909 F   0  0  0  0  0  0  0  0  0  0  0  0
    0.9307  -48.4332  -15.7045 C   0  0  0  0  0  0  0  0  0  0  0  0
 18 19  1  0  0  0
 19 17  1  0  0  0
 17 12  1  0  0  0
 12 13  1  0  0  0
 13 14  1  0  0  0
 14 15  1  0  0  0
 15 16  1  0  0  0
 16 10  1  0  0  0
 10 11  2  0  0  0
 11  1  1  0  0  0
  1  2  2  0  0  0
  2  3  1  0  0  0
  2  4  1  0  0  0
  4  5  2  0  0  0
  5  6  1  0  0  0
  6  7  2  0  0  0
  7 20  1  0  0  0
 20 22  1  0  0  0
 22 23  2  0  0  0
 23 24  1  0  0  0
 24 25  2  0  0  0
 25 26  1  0  0  0
 26 31  1  0  0  0
 31 32  1  0  0  0
 32 33  2  0  0  0
 33 34  1  0  0  0
 34 35  2  0  0  0
 35 36  1  0  0  0
 36 37  1  0  0  0
 36 38  2  0  0  0
 26 27  1  0  0  0
 27 28  2  0  0  0
 28 29  1  0  0  0
 29 30  2  0  0  0
 16 12  1  0  0  0
  7  1  1  0  0  0
 30 22  1  0  0  0
 29 25  1  0  0  0
 38 32  1  0  0  0
  3  8  1  0  0  0
  3  9  1  0  0  0
 20 21  1  0  0  0
M  END
> <minimizedAffinity>
-7.43509

> <CNNscore>
0.6462641954

> <CNNaffinity>
7.3473253250

> <CNN_VS>
4.7483134270

> <CNNaffinity_variance>
0.1883762181

$$$$
[H]/C(=N\N1C([H])([H])C([H])([H])C([H])([H])[C@@]1([H])C([H])([H])OC([H])([H])[H])c1c(N([H])[H])nc([H])nc1N([H])c1c([H])c([H])c2c(c([H])nn2C([H])([H])c2c([H])c([H])c([H])c(F)c2[H])c1[H]


 38 42  0  0  0  0  0  0  0  0999 V2000
    0.1117  -53.4208  -22.7356 C   0  0  0  0  0  0  0  0  0  0  0  0
   -0.9243  -54.3486  -22.8837 C   0  0  0  0  0  0  0  0  0  0  0  0
   -1.1427  -54.8685  -24.1866 N   0  0  0  0  0  0  0  0  0  0  0  0
   -1.6548  -54.7050  -21.8208 N   0  0  0  0  0  0  0  0  0  0  0  0
   -1.4385  -54.2057  -20.5921 C   0  0  0  0  0  0  0  0  0  0  0  0
   -0.4472  -53.3187  -20.4530 N   0  0  0  0  0  0  0  0  0  0  0  0
    0.3434  -52.9033  -21.4871 C   0  0  0  0  0  0  0  0  0  0  0  0
   -0.6268  -55.7312  -24.4512 H   0  0  0  0  0  0  0  0  0  0  0  0
   -1.7781  -54.4550  -24.8973 H   0  0  0  0  0  0  0  0  0  0  0  0
    0.3397  -52.4037  -24.9003 N   0  0  0  0  0  0  0  0  0  0  0  0
    0.8984  -53.0412  -23.8815 C   0  0  0  0  0  0  0  0  0  0  0  0
    1.0189  -52.5050  -27.3849 C   0  0  0  0  0  0  0  0  0  0  0  0
    2.4872  -52.6913  -27.6768 C   0  0  0  0  0  0  0  0  0  0  0  0
    3.1182  -51.5476  -26.9127 C   0  0  0  0  0  0  0  0  0  0  0  0
    2.0626  -50.9638  -26.0268 C   0  0  0  0  0  0  0  0  0  0  0  0
    1.0512  -52.0218  -26.0146 N   0  0  0  0  0  0  0  0  0  0  0  0
    0.2239  -53.7549  -27.5350 C   0  0  0  0  0  0  0  0  0  0  0  0
   -1.0583  -52.6358  -29.0637 C   0  0  0  0  0  0  0  0  0  0  0  0
   -1.0351  -53.5166  -28.0072 O   0  0  0  0  0  0  0  0  0  0  0  0
    1.3541  -51.9388  -21.3167 N   0  0  0  0  0  0  0  0  0  0  0  0
    1.9894  -51.6541  -22.1318 H   0  0  0  0  0  0  0  0  0  0  0  0
    1.5569  -51.3120  -20.0531 C   0  0  0  0  0  0  0  0  0  0  0  0
    0.6371  -50.3254  -19.6373 C   0  0  0  0  0  0  0  0  0  0  0  0
    0.7620  -49.6425  -18.4602 C   0  0  0  0  0  0  0  0  0  0  0  0
    1.8125  -49.8899  -17.6078 C   0  0  0  0  0  0  0  0  0  0  0  0
    2.1871  -49.3930  -16.4186 N   0  0  0  0  0  0  0  0  0  0  0  0
    3.3114  -49.9920  -16.0107 N   0  0  0  0  0  0  0  0  0  0  0  0
    3.6506  -50.8946  -16.9792 C   0  0  0  0  0  0  0  0  0  0  0  0
    2.7252  -50.8468  -17.9885 C   0  0  0  0  0  0  0  0  0  0  0  0
    2.5966  -51.5425  -19.1902 C   0  0  0  0  0  0  0  0  0  0  0  0
    1.4929  -48.3633  -15.6759 C   0  0  0  0  0  0  0  0  0  0  0  0
    0.1297  -48.7774  -15.2664 C   0  0  0  0  0  0  0  0  0  0  0  0
   -0.0082  -49.9407  -14.5477 C   0  0  0  0  0  0  0  0  0  0  0  0
   -1.2461  -50.3671  -14.1461 C   0  0  0  0  0  0  0  0  0  0  0  0
   -2.3822  -49.6494  -14.4475 C   0  0  0  0  0  0  0  0  0  0  0  0
   -2.2470  -48.4834  -15.1675 C   0  0  0  0  0  0  0  0  0  0  0  0
   -3.3471  -47.7495  -15.4827 F   0  0  0  0  0  0  0  0  0  0  0  0
   -1.0005  -48.0586  -15.5691 C   0  0  0  0  0  0  0  0  0  0  0  0
 18 19  1  0  0  0
 19 17  1  0  0  0
 17 12  1  0  0  0
 12 13  1  0  0  0
 13 14  1  0  0  0
 14 15  1  0  0  0
 15 16  1  0  0  0
 16 10  1  0  0  0
 10 11  2  0  0  0
 11  1  1  0  0  0
  1  2  2  0  0  0
  2  3  1  0  0  0
  2  4  1  0  0  0
  4  5  2  0  0  0
  5  6  1  0  0  0
  6  7  2  0  0  0
  7 20  1  0  0  0
 20 22  1  0  0  0
 22 23  2  0  0  0
 23 24  1  0  0  0
 24 25  2  0  0  0
 25 26  1  0  0  0
 26 31  1  0  0  0
 31 32  1  0  0  0
 32 33  2  0  0  0
 33 34  1  0  0  0
 34 35  2  0  0  0
 35 36  1  0  0  0
 36 37  1  0  0  0
 36 38  2  0  0  0
 26 27  1  0  0  0
 27 28  2  0  0  0
 28 29  1  0  0  0
 29 30  2  0  0  0
 16 12  1  0  0  0
  7  1  1  0  0  0
 30 22  1  0  0  0
 29 25  1  0  0  0
 38 32  1  0  0  0
  3  8  1  0  0  0
  3  9  1  0  0  0
 20 21  1  0  0  0
M  END
> <minimizedAffinity>
-7.99342

> <CNNscore>
0.5938212872

> <CNNaffinity>
7.3134827614

> <CNN_VS>
4.3429017067

> <CNNaffinity_variance>
0.1054953113

$$$$
[H]/C(=N\N1C([H])([H])C([H])([H])C([H])([H])[C@@]1([H])C([H])([H])OC([H])([H])[H])c1c(N([H])[H])nc([H])nc1N([H])c1c([H])c([H])c2c(c([H])nn2C([H])([H])c2c([H])c([H])c([H])c(F)c2[H])c1[H]


 38 42  0  0  0  0  0  0  0  0999 V2000
   -0.5554  -53.4467  -23.0263 C   0  0  0  0  0  0  0  0  0  0  0  0
   -1.2604  -54.5159  -22.4642 C   0  0  0  0  0  0  0  0  0  0  0  0
   -1.7820  -55.4861  -23.3598 N   0  0  0  0  0  0  0  0  0  0  0  0
   -1.4152  -54.5858  -21.1370 N   0  0  0  0  0  0  0  0  0  0  0  0
   -0.9168  -53.6609  -20.2992 C   0  0  0  0  0  0  0  0  0  0  0  0
   -0.2430  -52.6396  -20.8391 N   0  0  0  0  0  0  0  0  0  0  0  0
   -0.0414  -52.4957  -22.1829 C   0  0  0  0  0  0  0  0  0  0  0  0
   -1.1747  -56.2961  -23.5959 H   0  0  0  0  0  0  0  0  0  0  0  0
   -2.7235  -55.4512  -23.7983 H   0  0  0  0  0  0  0  0  0  0  0  0
    0.7185  -53.8289  -25.0273 N   0  0  0  0  0  0  0  0  0  0  0  0
   -0.3880  -53.3757  -24.4557 C   0  0  0  0  0  0  0  0  0  0  0  0
    1.8781  -53.0361  -27.1886 C   0  0  0  0  0  0  0  0  0  0  0  0
    0.9885  -52.4488  -28.2561 C   0  0  0  0  0  0  0  0  0  0  0  0
   -0.0294  -53.5477  -28.4718 C   0  0  0  0  0  0  0  0  0  0  0  0
    0.1432  -54.5418  -27.3664 C   0  0  0  0  0  0  0  0  0  0  0  0
    0.9219  -53.7818  -26.3875 N   0  0  0  0  0  0  0  0  0  0  0  0
    2.6109  -52.0079  -26.3994 C   0  0  0  0  0  0  0  0  0  0  0  0
    3.2456  -49.8104  -26.3579 C   0  0  0  0  0  0  0  0  0  0  0  0
    2.8866  -50.8891  -27.1324 O   0  0  0  0  0  0  0  0  0  0  0  0
    0.6389  -51.3887  -22.7239 N   0  0  0  0  0  0  0  0  0  0  0  0
    0.5028  -51.1031  -23.7481 H   0  0  0  0  0  0  0  0  0  0  0  0
    1.5260  -50.6154  -21.9205 C   0  0  0  0  0  0  0  0  0  0  0  0
    1.0429  -49.4199  -21.3463 C   0  0  0  0  0  0  0  0  0  0  0  0
    1.8227  -48.5914  -20.5892 C   0  0  0  0  0  0  0  0  0  0  0  0
    3.1429  -48.8904  -20.3465 C   0  0  0  0  0  0  0  0  0  0  0  0
    4.1261  -48.2870  -19.6604 N   0  0  0  0  0  0  0  0  0  0  0  0
    5.2471  -49.0123  -19.7420 N   0  0  0  0  0  0  0  0  0  0  0  0
    4.9534  -50.1068  -20.5059 C   0  0  0  0  0  0  0  0  0  0  0  0
    3.6408  -50.0501  -20.8949 C   0  0  0  0  0  0  0  0  0  0  0  0
    2.8439  -50.8941  -21.6676 C   0  0  0  0  0  0  0  0  0  0  0  0
    4.0098  -47.0393  -18.9369 C   0  0  0  0  0  0  0  0  0  0  0  0
    4.1409  -47.2166  -17.4711 C   0  0  0  0  0  0  0  0  0  0  0  0
    5.1013  -46.4879  -16.8111 C   0  0  0  0  0  0  0  0  0  0  0  0
    5.2630  -46.6160  -15.4572 C   0  0  0  0  0  0  0  0  0  0  0  0
    4.4746  -47.4719  -14.7207 C   0  0  0  0  0  0  0  0  0  0  0  0
    3.5115  -48.2033  -15.3794 C   0  0  0  0  0  0  0  0  0  0  0  0
    2.7153  -49.0580  -14.6838 F   0  0  0  0  0  0  0  0  0  0  0  0
    3.3526  -48.0713  -16.7405 C   0  0  0  0  0  0  0  0  0  0  0  0
 18 19  1  0  0  0
 19 17  1  0  0  0
 17 12  1  0  0  0
 12 13  1  0  0  0
 13 14  1  0  0  0
 14 15  1  0  0  0
 15 16  1  0  0  0
 16 10  1  0  0  0
 10 11  2  0  0  0
 11  1  1  0  0  0
  1  2  2  0  0  0
  2  3  1  0  0  0
  2  4  1  0  0  0
  4  5  2  0  0  0
  5  6  1  0  0  0
  6  7  2  0  0  0
  7 20  1  0  0  0
 20 22  1  0  0  0
 22 23  2  0  0  0
 23 24  1  0  0  0
 24 25  2  0  0  0
 25 26  1  0  0  0
 26 31  1  0  0  0
 31 32  1  0  0  0
 32 33  2  0  0  0
 33 34  1  0  0  0
 34 35  2  0  0  0
 35 36  1  0  0  0
 36 37  1  0  0  0
 36 38  2  0  0  0
 26 27  1  0  0  0
 27 28  2  0  0  0
 28 29  1  0  0  0
 29 30  2  0  0  0
 16 12  1  0  0  0
  7  1  1  0  0  0
 30 22  1  0  0  0
 29 25  1  0  0  0
 38 32  1  0  0  0
  3  8  1  0  0  0
  3  9  1  0  0  0
 20 21  1  0  0  0
M  END
> <minimizedAffinity>
-7.28307

> <CNNscore>
0.5803980231

> <CNNaffinity>
7.3010263443

> <CNN_VS>
4.2375011444

> <CNNaffinity_variance>
0.1432099044

$$$$
[H]/C(=N\N1C([H])([H])C([H])([H])C([H])([H])[C@@]1([H])C([H])([H])OC([H])([H])[H])c1c(N([H])[H])nc([H])nc1N([H])c1c([H])c([H])c2c(c([H])nn2C([H])([H])c2c([H])c([H])c([H])c(F)c2[H])c1[H]


 38 42  0  0  0  0  0  0  0  0999 V2000
    0.1732  -53.1331  -24.0110 C   0  0  0  0  0  0  0  0  0  0  0  0
   -0.6443  -53.9172  -24.8314 C   0  0  0  0  0  0  0  0  0  0  0  0
   -0.6652  -53.5979  -26.2146 N   0  0  0  0  0  0  0  0  0  0  0  0
   -1.3596  -54.9146  -24.2988 N   0  0  0  0  0  0  0  0  0  0  0  0
   -1.3316  -55.2071  -22.9876 C   0  0  0  0  0  0  0  0  0  0  0  0
   -0.5491  -54.4559  -22.2052 N   0  0  0  0  0  0  0  0  0  0  0  0
    0.2113  -53.4206  -22.6709 C   0  0  0  0  0  0  0  0  0  0  0  0
    0.0293  -54.0711  -26.8263 H   0  0  0  0  0  0  0  0  0  0  0  0
   -1.3204  -52.9285  -26.6646 H   0  0  0  0  0  0  0  0  0  0  0  0
    2.2586  -52.1728  -24.7194 N   0  0  0  0  0  0  0  0  0  0  0  0
    0.9445  -52.0614  -24.5880 C   0  0  0  0  0  0  0  0  0  0  0  0
    3.9807  -50.2558  -24.6546 C   0  0  0  0  0  0  0  0  0  0  0  0
    3.5464  -48.9373  -25.2450 C   0  0  0  0  0  0  0  0  0  0  0  0
    3.1177  -49.3320  -26.6416 C   0  0  0  0  0  0  0  0  0  0  0  0
    3.0543  -50.8267  -26.6855 C   0  0  0  0  0  0  0  0  0  0  0  0
    3.0352  -51.1759  -25.2642 N   0  0  0  0  0  0  0  0  0  0  0  0
    3.9299  -50.2817  -23.1667 C   0  0  0  0  0  0  0  0  0  0  0  0
    5.1288  -50.8737  -21.3104 C   0  0  0  0  0  0  0  0  0  0  0  0
    4.8469  -51.1399  -22.6302 O   0  0  0  0  0  0  0  0  0  0  0  0
    0.9952  -52.6233  -21.8161 N   0  0  0  0  0  0  0  0  0  0  0  0
    1.9262  -52.2078  -22.1475 H   0  0  0  0  0  0  0  0  0  0  0  0
    0.5683  -52.3447  -20.4855 C   0  0  0  0  0  0  0  0  0  0  0  0
    1.2471  -51.3435  -19.7579 C   0  0  0  0  0  0  0  0  0  0  0  0
    0.9371  -51.0253  -18.4655 C   0  0  0  0  0  0  0  0  0  0  0  0
   -0.0724  -51.6800  -17.7994 C   0  0  0  0  0  0  0  0  0  0  0  0
   -0.5895  -51.5875  -16.5642 N   0  0  0  0  0  0  0  0  0  0  0  0
   -1.5809  -52.4737  -16.4203 N   0  0  0  0  0  0  0  0  0  0  0  0
   -1.6865  -53.1431  -17.6071 C   0  0  0  0  0  0  0  0  0  0  0  0
   -0.7509  -52.6616  -18.4847 C   0  0  0  0  0  0  0  0  0  0  0  0
   -0.4330  -52.9854  -19.8033 C   0  0  0  0  0  0  0  0  0  0  0  0
   -0.1521  -50.6740  -15.5308 C   0  0  0  0  0  0  0  0  0  0  0  0
   -1.0867  -49.5391  -15.3409 C   0  0  0  0  0  0  0  0  0  0  0  0
   -0.5757  -48.2637  -15.3717 C   0  0  0  0  0  0  0  0  0  0  0  0
   -1.3973  -47.1813  -15.2009 C   0  0  0  0  0  0  0  0  0  0  0  0
   -2.7501  -47.3359  -14.9947 C   0  0  0  0  0  0  0  0  0  0  0  0
   -3.2648  -48.6128  -14.9634 C   0  0  0  0  0  0  0  0  0  0  0  0
   -4.5958  -48.8027  -14.7620 F   0  0  0  0  0  0  0  0  0  0  0  0
   -2.4351  -49.6979  -15.1355 C   0  0  0  0  0  0  0  0  0  0  0  0
 18 19  1  0  0  0
 19 17  1  0  0  0
 17 12  1  0  0  0
 12 13  1  0  0  0
 13 14  1  0  0  0
 14 15  1  0  0  0
 15 16  1  0  0  0
 16 10  1  0  0  0
 10 11  2  0  0  0
 11  1  1  0  0  0
  1  2  2  0  0  0
  2  3  1  0  0  0
  2  4  1  0  0  0
  4  5  2  0  0  0
  5  6  1  0  0  0
  6  7  2  0  0  0
  7 20  1  0  0  0
 20 22  1  0  0  0
 22 23  2  0  0  0
 23 24  1  0  0  0
 24 25  2  0  0  0
 25 26  1  0  0  0
 26 31  1  0  0  0
 31 32  1  0  0  0
 32 33  2  0  0  0
 33 34  1  0  0  0
 34 35  2  0  0  0
 35 36  1  0  0  0
 36 37  1  0  0  0
 36 38  2  0  0  0
 26 27  1  0  0  0
 27 28  2  0  0  0
 28 29  1  0  0  0
 29 30  2  0  0  0
 16 12  1  0  0  0
  7  1  1  0  0  0
 30 22  1  0  0  0
 29 25  1  0  0  0
 38 32  1  0  0  0
  3  8  1  0  0  0
  3  9  1  0  0  0
 20 21  1  0  0  0
M  END
> <minimizedAffinity>
-7.87139

> <CNNscore>
0.5702654123

> <CNNaffinity>
7.3188238144

> <CNN_VS>
4.1736721992

> <CNNaffinity_variance>
0.0568072014

$$$$
[H]/C(=N\N1C([H])([H])C([H])([H])C([H])([H])[C@@]1([H])C([H])([H])OC([H])([H])[H])c1c(N([H])[H])nc([H])nc1N([H])c1c([H])c([H])c2c(c([H])nn2C([H])([H])c2c([H])c([H])c([H])c(F)c2[H])c1[H]


 38 42  0  0  0  0  0  0  0  0999 V2000
    0.1808  -53.1921  -22.7384 C   0  0  0  0  0  0  0  0  0  0  0  0
   -0.7986  -54.1744  -22.9173 C   0  0  0  0  0  0  0  0  0  0  0  0
   -1.0414  -54.6080  -24.2472 N   0  0  0  0  0  0  0  0  0  0  0  0
   -1.4558  -54.6589  -21.8572 N   0  0  0  0  0  0  0  0  0  0  0  0
   -1.2171  -54.2403  -20.6028 C   0  0  0  0  0  0  0  0  0  0  0  0
   -0.2801  -53.3010  -20.4344 N   0  0  0  0  0  0  0  0  0  0  0  0
    0.4344  -52.7558  -21.4635 C   0  0  0  0  0  0  0  0  0  0  0  0
   -0.4832  -55.4112  -24.5989 H   0  0  0  0  0  0  0  0  0  0  0  0
   -1.7337  -54.1862  -24.8973 H   0  0  0  0  0  0  0  0  0  0  0  0
    2.2137  -52.6705  -23.9078 N   0  0  0  0  0  0  0  0  0  0  0  0
    0.8887  -52.6743  -23.8816 C   0  0  0  0  0  0  0  0  0  0  0  0
    3.8619  -51.0748  -25.0835 C   0  0  0  0  0  0  0  0  0  0  0  0
    3.3565  -50.3716  -26.3187 C   0  0  0  0  0  0  0  0  0  0  0  0
    2.8943  -51.5246  -27.1830 C   0  0  0  0  0  0  0  0  0  0  0  0
    2.8870  -52.7520  -26.3266 C   0  0  0  0  0  0  0  0  0  0  0  0
    2.9316  -52.1864  -24.9774 N   0  0  0  0  0  0  0  0  0  0  0  0
    3.8647  -50.2101  -23.8713 C   0  0  0  0  0  0  0  0  0  0  0  0
    2.7289  -48.6299  -22.6687 C   0  0  0  0  0  0  0  0  0  0  0  0
    2.7633  -49.4055  -23.8043 O   0  0  0  0  0  0  0  0  0  0  0  0
    1.3873  -51.7404  -21.2585 N   0  0  0  0  0  0  0  0  0  0  0  0
    1.9852  -51.3720  -22.0683 H   0  0  0  0  0  0  0  0  0  0  0  0
    1.5794  -51.1723  -19.9659 C   0  0  0  0  0  0  0  0  0  0  0  0
    0.6747  -50.1823  -19.5259 C   0  0  0  0  0  0  0  0  0  0  0  0
    0.7920  -49.5526  -18.3187 C   0  0  0  0  0  0  0  0  0  0  0  0
    1.8194  -49.8608  -17.4579 C   0  0  0  0  0  0  0  0  0  0  0  0
    2.1818  -49.4235  -16.2418 N   0  0  0  0  0  0  0  0  0  0  0  0
    3.2835  -50.0660  -15.8387 N   0  0  0  0  0  0  0  0  0  0  0  0
    3.6208  -50.9349  -16.8381 C   0  0  0  0  0  0  0  0  0  0  0  0
    2.7170  -50.8225  -17.8617 C   0  0  0  0  0  0  0  0  0  0  0  0
    2.5961  -51.4638  -19.0941 C   0  0  0  0  0  0  0  0  0  0  0  0
    1.4970  -48.4095  -15.4693 C   0  0  0  0  0  0  0  0  0  0  0  0
    0.1141  -48.8044  -15.1101 C   0  0  0  0  0  0  0  0  0  0  0  0
   -0.0631  -49.9404  -14.3572 C   0  0  0  0  0  0  0  0  0  0  0  0
   -1.3207  -50.3482  -13.9995 C   0  0  0  0  0  0  0  0  0  0  0  0
   -2.4379  -49.6385  -14.3801 C   0  0  0  0  0  0  0  0  0  0  0  0
   -2.2632  -48.4998  -15.1346 C   0  0  0  0  0  0  0  0  0  0  0  0
   -3.3438  -47.7747  -15.5279 F   0  0  0  0  0  0  0  0  0  0  0  0
   -0.9972  -48.0937  -15.4918 C   0  0  0  0  0  0  0  0  0  0  0  0
 18 19  1  0  0  0
 19 17  1  0  0  0
 17 12  1  0  0  0
 12 13  1  0  0  0
 13 14  1  0  0  0
 14 15  1  0  0  0
 15 16  1  0  0  0
 16 10  1  0  0  0
 10 11  2  0  0  0
 11  1  1  0  0  0
  1  2  2  0  0  0
  2  3  1  0  0  0
  2  4  1  0  0  0
  4  5  2  0  0  0
  5  6  1  0  0  0
  6  7  2  0  0  0
  7 20  1  0  0  0
 20 22  1  0  0  0
 22 23  2  0  0  0
 23 24  1  0  0  0
 24 25  2  0  0  0
 25 26  1  0  0  0
 26 31  1  0  0  0
 31 32  1  0  0  0
 32 33  2  0  0  0
 33 34  1  0  0  0
 34 35  2  0  0  0
 35 36  1  0  0  0
 36 37  1  0  0  0
 36 38  2  0  0  0
 26 27  1  0  0  0
 27 28  2  0  0  0
 28 29  1  0  0  0
 29 30  2  0  0  0
 16 12  1  0  0  0
  7  1  1  0  0  0
 30 22  1  0  0  0
 29 25  1  0  0  0
 38 32  1  0  0  0
  3  8  1  0  0  0
  3  9  1  0  0  0
 20 21  1  0  0  0
M  END
> <minimizedAffinity>
-7.22506

> <CNNscore>
0.5141845345

> <CNNaffinity>
7.2042274475

> <CNN_VS>
3.7043023109

> <CNNaffinity_variance>
0.1802432090

$$$$
[H]/C(=N\N1C([H])([H])C([H])([H])C([H])([H])[C@@]1([H])C([H])([H])OC([H])([H])[H])c1c(N([H])[H])nc([H])nc1N([H])c1c([H])c([H])c2c(c([H])nn2C([H])([H])c2c([H])c([H])c([H])c(F)c2[H])c1[H]


 38 42  0  0  0  0  0  0  0  0999 V2000
   -1.0871  -51.6415  -16.6689 C   0  0  0  0  0  0  0  0  0  0  0  0
   -2.1757  -51.2777  -15.8695 C   0  0  0  0  0  0  0  0  0  0  0  0
   -1.9819  -50.1968  -14.9696 N   0  0  0  0  0  0  0  0  0  0  0  0
   -3.3315  -51.9431  -15.9773 N   0  0  0  0  0  0  0  0  0  0  0  0
   -3.5027  -52.9649  -16.8331 C   0  0  0  0  0  0  0  0  0  0  0  0
   -2.4604  -53.3108  -17.5963 N   0  0  0  0  0  0  0  0  0  0  0  0
   -1.2480  -52.6825  -17.5465 C   0  0  0  0  0  0  0  0  0  0  0  0
   -2.1968  -49.2406  -15.3158 H   0  0  0  0  0  0  0  0  0  0  0  0
   -1.6424  -50.2858  -13.9916 H   0  0  0  0  0  0  0  0  0  0  0  0
    0.3229  -49.7629  -17.1744 N   0  0  0  0  0  0  0  0  0  0  0  0
    0.1554  -50.9212  -16.5525 C   0  0  0  0  0  0  0  0  0  0  0  0
    2.4503  -48.6489  -18.1114 C   0  0  0  0  0  0  0  0  0  0  0  0
    3.7570  -49.0382  -17.4659 C   0  0  0  0  0  0  0  0  0  0  0  0
    3.4992  -48.7402  -16.0047 C   0  0  0  0  0  0  0  0  0  0  0  0
    2.0328  -48.4834  -15.8515 C   0  0  0  0  0  0  0  0  0  0  0  0
    1.4914  -49.0406  -17.0920 N   0  0  0  0  0  0  0  0  0  0  0  0
    2.2113  -49.3261  -19.4157 C   0  0  0  0  0  0  0  0  0  0  0  0
    2.8548  -47.4806  -20.6047 C   0  0  0  0  0  0  0  0  0  0  0  0
    1.8928  -48.4442  -20.4086 O   0  0  0  0  0  0  0  0  0  0  0  0
   -0.1577  -53.0950  -18.3352 N   0  0  0  0  0  0  0  0  0  0  0  0
    0.7365  -53.4779  -17.8849 H   0  0  0  0  0  0  0  0  0  0  0  0
   -0.2164  -53.0167  -19.7568 C   0  0  0  0  0  0  0  0  0  0  0  0
    0.0995  -51.7880  -20.3756 C   0  0  0  0  0  0  0  0  0  0  0  0
    0.0404  -51.6006  -21.7280 C   0  0  0  0  0  0  0  0  0  0  0  0
   -0.3380  -52.6225  -22.5670 C   0  0  0  0  0  0  0  0  0  0  0  0
   -0.4840  -52.7335  -23.8967 N   0  0  0  0  0  0  0  0  0  0  0  0
   -0.8822  -53.9720  -24.2072 N   0  0  0  0  0  0  0  0  0  0  0  0
   -0.9886  -54.6584  -23.0302 C   0  0  0  0  0  0  0  0  0  0  0  0
   -0.6524  -53.8318  -21.9905 C   0  0  0  0  0  0  0  0  0  0  0  0
   -0.5920  -54.0212  -20.6103 C   0  0  0  0  0  0  0  0  0  0  0  0
   -0.2517  -51.6822  -24.8634 C   0  0  0  0  0  0  0  0  0  0  0  0
   -0.5137  -52.1202  -26.2551 C   0  0  0  0  0  0  0  0  0  0  0  0
    0.5627  -52.4042  -27.0611 C   0  0  0  0  0  0  0  0  0  0  0  0
    0.3740  -52.8121  -28.3548 C   0  0  0  0  0  0  0  0  0  0  0  0
   -0.8899  -52.9493  -28.8842 C   0  0  0  0  0  0  0  0  0  0  0  0
   -1.9703  -52.6653  -28.0789 C   0  0  0  0  0  0  0  0  0  0  0  0
   -3.2324  -52.7898  -28.5686 F   0  0  0  0  0  0  0  0  0  0  0  0
   -1.7758  -52.2556  -26.7790 C   0  0  0  0  0  0  0  0  0  0  0  0
 18 19  1  0  0  0
 19 17  1  0  0  0
 17 12  1  0  0  0
 12 13  1  0  0  0
 13 14  1  0  0  0
 14 15  1  0  0  0
 15 16  1  0  0  0
 16 10  1  0  0  0
 10 11  2  0  0  0
 11  1  1  0  0  0
  1  2  2  0  0  0
  2  3  1  0  0  0
  2  4  1  0  0  0
  4  5  2  0  0  0
  5  6  1  0  0  0
  6  7  2  0  0  0
  7 20  1  0  0  0
 20 22  1  0  0  0
 22 23  2  0  0  0
 23 24  1  0  0  0
 24 25  2  0  0  0
 25 26  1  0  0  0
 26 31  1  0  0  0
 31 32  1  0  0  0
 32 33  2  0  0  0
 33 34  1  0  0  0
 34 35  2  0  0  0
 35 36  1  0  0  0
 36 37  1  0  0  0
 36 38  2  0  0  0
 26 27  1  0  0  0
 27 28  2  0  0  0
 28 29  1  0  0  0
 29 30  2  0  0  0
 16 12  1  0  0  0
  7  1  1  0  0  0
 30 22  1  0  0  0
 29 25  1  0  0  0
 38 32  1  0  0  0
  3  8  1  0  0  0
  3  9  1  0  0  0
 20 21  1  0  0  0
M  END
> <minimizedAffinity>
-8.62660

> <CNNscore>
0.4926679134

> <CNNaffinity>
7.2276520729

> <CNN_VS>
3.5608322620

> <CNNaffinity_variance>
0.0284030400

$$$$
[H]C([H])=C([H])C(=O)N([H])c1c([H])c([H])c([H])c(N2C(=O)N(C([H])([H])[H])C([H])([H])c3c([H])nc(N([H])c4c([H])c([H])c(N5C([H])([H])C([H])([H])C([H])([H])C([H])([H])C5([H])[H])c([H])c4OC([H])([H])[H])nc32)c1[H]


 40 44  0  0  0  0  0  0  0  0999 V2000
   -0.7637  -53.5704  -20.2082 C   0  0  0  0  0  0  0  0  0  0  0  0
   -1.3762  -54.4722  -20.9538 N   0  0  0  0  0  0  0  0  0  0  0  0
   -1.3152  -54.6292  -22.2742 C   0  0  0  0  0  0  0  0  0  0  0  0
   -0.4935  -53.7159  -22.9569 C   0  0  0  0  0  0  0  0  0  0  0  0
   -0.3742  -53.8135  -24.4054 C   0  0  0  0  0  0  0  0  0  0  0  0
    0.5053  -52.8544  -25.0159 N   0  0  0  0  0  0  0  0  0  0  0  0
    0.6993  -52.9149  -26.4456 C   0  0  0  0  0  0  0  0  0  0  0  0
    1.1916  -51.8500  -24.2426 C   0  0  0  0  0  0  0  0  0  0  0  0
    1.9217  -51.0572  -24.8905 O   0  0  0  0  0  0  0  0  0  0  0  0
    1.0264  -51.7949  -22.8401 N   0  0  0  0  0  0  0  0  0  0  0  0
    0.1657  -52.7573  -22.2249 C   0  0  0  0  0  0  0  0  0  0  0  0
    0.0411  -52.6789  -20.8920 N   0  0  0  0  0  0  0  0  0  0  0  0
    1.7242  -50.7793  -22.1251 C   0  0  0  0  0  0  0  0  0  0  0  0
    0.9926  -49.6576  -21.7526 C   0  0  0  0  0  0  0  0  0  0  0  0
    1.5910  -48.6405  -21.0621 C   0  0  0  0  0  0  0  0  0  0  0  0
    2.9427  -48.7011  -20.7158 C   0  0  0  0  0  0  0  0  0  0  0  0
    3.6467  -49.8098  -21.0901 C   0  0  0  0  0  0  0  0  0  0  0  0
    3.0327  -50.8563  -21.7998 C   0  0  0  0  0  0  0  0  0  0  0  0
    5.0318  -49.9586  -20.8038 N   0  0  0  0  0  0  0  0  0  0  0  0
    6.1125  -49.8353  -21.6826 C   0  0  0  0  0  0  0  0  0  0  0  0
    5.9512  -49.5680  -22.8935 O   0  0  0  0  0  0  0  0  0  0  0  0
    5.2878  -50.1882  -19.7963 H   0  0  0  0  0  0  0  0  0  0  0  0
    7.5081  -50.0114  -21.2397 C   0  0  0  0  0  0  0  0  0  0  0  0
    8.0008  -49.3951  -20.2048 C   0  0  0  0  0  0  0  0  0  0  0  0
   -0.8509  -53.4336  -18.7972 N   0  0  0  0  0  0  0  0  0  0  0  0
   -1.1569  -54.3332  -18.2548 H   0  0  0  0  0  0  0  0  0  0  0  0
   -1.4148  -52.0332  -16.9677 C   0  0  0  0  0  0  0  0  0  0  0  0
   -1.2210  -50.9196  -16.1960 C   0  0  0  0  0  0  0  0  0  0  0  0
   -0.2274  -49.9671  -16.4309 C   0  0  0  0  0  0  0  0  0  0  0  0
    0.5787  -50.2044  -17.5105 C   0  0  0  0  0  0  0  0  0  0  0  0
    0.4003  -51.3419  -18.3203 C   0  0  0  0  0  0  0  0  0  0  0  0
   -0.5800  -52.2667  -18.0759 C   0  0  0  0  0  0  0  0  0  0  0  0
   -0.0819  -48.8264  -15.6114 N   0  0  0  0  0  0  0  0  0  0  0  0
   -1.2122  -47.9885  -15.3163 C   0  0  0  0  0  0  0  0  0  0  0  0
   -1.0770  -47.2999  -13.9712 C   0  0  0  0  0  0  0  0  0  0  0  0
    0.1666  -46.4957  -13.8154 C   0  0  0  0  0  0  0  0  0  0  0  0
    1.2503  -46.9415  -14.7379 C   0  0  0  0  0  0  0  0  0  0  0  0
    1.1779  -48.4521  -15.0212 C   0  0  0  0  0  0  0  0  0  0  0  0
   -3.7358  -52.5299  -16.3381 C   0  0  0  0  0  0  0  0  0  0  0  0
   -2.4272  -52.9148  -16.6501 O   0  0  0  0  0  0  0  0  0  0  0  0
 39 40  1  0  0  0
 40 27  1  0  0  0
 27 28  2  0  0  0
 28 29  1  0  0  0
 29 30  2  0  0  0
 30 31  1  0  0  0
 31 32  2  0  0  0
 32 25  1  0  0  0
 25  1  1  0  0  0
  1  2  2  0  0  0
  2  3  1  0  0  0
  3  4  2  0  0  0
  4  5  1  0  0  0
  5  6  1  0  0  0
  6  7  1  0  0  0
  6  8  1  0  0  0
  8  9  2  0  0  0
  8 10  1  0  0  0
 10 13  1  0  0  0
 13 14  2  0  0  0
 14 15  1  0  0  0
 15 16  2  0  0  0
 16 17  1  0  0  0
 17 19  1  0  0  0
 19 20  1  0  0  0
 20 21  2  0  0  0
 20 23  1  0  0  0
 23 24  2  0  0  0
 17 18  2  0  0  0
 10 11  1  0  0  0
 11 12  2  0  0  0
 29 33  1  0  0  0
 33 34  1  0  0  0
 34 35  1  0  0  0
 35 36  1  0  0  0
 36 37  1  0  0  0
 37 38  1  0  0  0
 32 27  1  0  0  0
 12  1  1  0  0  0
 38 33  1  0  0  0
 11  4  1  0  0  0
 18 13  1  0  0  0
 25 26  1  0  0  0
 19 22  1  0  0  0
M  END
> <minimizedAffinity>
-8.28793

> <CNNscore>
0.7973719239

> <CNNaffinity>
7.5484886169

> <CNN_VS>
6.0189528465

> <CNNaffinity_variance>
0.0574452169

$$$$
[H]C([H])=C([H])C(=O)N([H])c1c([H])c([H])c([H])c(N2C(=O)N(C([H])([H])[H])C([H])([H])c3c([H])nc(N([H])c4c([H])c([H])c(N5C([H])([H])C([H])([H])C([H])([H])C([H])([H])C5([H])[H])c([H])c4OC([H])([H])[H])nc32)c1[H]


 40 44  0  0  0  0  0  0  0  0999 V2000
   -0.4900  -54.1130  -21.5363 C   0  0  0  0  0  0  0  0  0  0  0  0
   -1.2706  -54.9108  -22.2426 N   0  0  0  0  0  0  0  0  0  0  0  0
   -1.3091  -55.0683  -23.5637 C   0  0  0  0  0  0  0  0  0  0  0  0
   -0.4019  -54.2829  -24.2955 C   0  0  0  0  0  0  0  0  0  0  0  0
   -0.3814  -54.3896  -25.7481 C   0  0  0  0  0  0  0  0  0  0  0  0
    0.5938  -53.5678  -26.4114 N   0  0  0  0  0  0  0  0  0  0  0  0
    0.6946  -53.6490  -27.8496 C   0  0  0  0  0  0  0  0  0  0  0  0
    1.4639  -52.6797  -25.6821 C   0  0  0  0  0  0  0  0  0  0  0  0
    2.2649  -52.0001  -26.3735 O   0  0  0  0  0  0  0  0  0  0  0  0
    1.3892  -52.6079  -24.2726 N   0  0  0  0  0  0  0  0  0  0  0  0
    0.4324  -53.4358  -23.6058 C   0  0  0  0  0  0  0  0  0  0  0  0
    0.3971  -53.3466  -22.2682 N   0  0  0  0  0  0  0  0  0  0  0  0
    2.2690  -51.7101  -23.6023 C   0  0  0  0  0  0  0  0  0  0  0  0
    3.4063  -52.2604  -23.0229 C   0  0  0  0  0  0  0  0  0  0  0  0
    4.3004  -51.4634  -22.3633 C   0  0  0  0  0  0  0  0  0  0  0  0
    4.0958  -50.0861  -22.2551 C   0  0  0  0  0  0  0  0  0  0  0  0
    2.9731  -49.5620  -22.8295 C   0  0  0  0  0  0  0  0  0  0  0  0
    2.0533  -50.3803  -23.5080 C   0  0  0  0  0  0  0  0  0  0  0  0
    2.6633  -48.1759  -22.7576 N   0  0  0  0  0  0  0  0  0  0  0  0
    3.1416  -47.1417  -23.5682 C   0  0  0  0  0  0  0  0  0  0  0  0
    3.9505  -47.3526  -24.4983 O   0  0  0  0  0  0  0  0  0  0  0  0
    1.9792  -47.8797  -21.9975 H   0  0  0  0  0  0  0  0  0  0  0  0
    2.7241  -45.7400  -23.3799 C   0  0  0  0  0  0  0  0  0  0  0  0
    2.0123  -45.0940  -24.2573 C   0  0  0  0  0  0  0  0  0  0  0  0
   -0.4753  -53.9721  -20.1232 N   0  0  0  0  0  0  0  0  0  0  0  0
   -0.9231  -54.7981  -19.5627 H   0  0  0  0  0  0  0  0  0  0  0  0
   -0.6820  -52.4731  -18.2966 C   0  0  0  0  0  0  0  0  0  0  0  0
   -0.2359  -51.4224  -17.5414 C   0  0  0  0  0  0  0  0  0  0  0  0
    0.9326  -50.7061  -17.8087 C   0  0  0  0  0  0  0  0  0  0  0  0
    1.6429  -51.1167  -18.9035 C   0  0  0  0  0  0  0  0  0  0  0  0
    1.2057  -52.1942  -19.6969 C   0  0  0  0  0  0  0  0  0  0  0  0
    0.0564  -52.8861  -19.4207 C   0  0  0  0  0  0  0  0  0  0  0  0
    1.3385  -49.6184  -17.0049 N   0  0  0  0  0  0  0  0  0  0  0  0
    2.6874  -49.1249  -17.0685 C   0  0  0  0  0  0  0  0  0  0  0  0
    2.7707  -47.6466  -16.7382 C   0  0  0  0  0  0  0  0  0  0  0  0
    2.1900  -47.2789  -15.4171 C   0  0  0  0  0  0  0  0  0  0  0  0
    1.1909  -48.2773  -14.9385 C   0  0  0  0  0  0  0  0  0  0  0  0
    0.4394  -48.9422  -16.1050 C   0  0  0  0  0  0  0  0  0  0  0  0
   -2.6733  -52.7286  -16.8825 C   0  0  0  0  0  0  0  0  0  0  0  0
   -1.8517  -53.1156  -17.9470 O   0  0  0  0  0  0  0  0  0  0  0  0
 39 40  1  0  0  0
 40 27  1  0  0  0
 27 28  2  0  0  0
 28 29  1  0  0  0
 29 30  2  0  0  0
 30 31  1  0  0  0
 31 32  2  0  0  0
 32 25  1  0  0  0
 25  1  1  0  0  0
  1  2  2  0  0  0
  2  3  1  0  0  0
  3  4  2  0  0  0
  4  5  1  0  0  0
  5  6  1  0  0  0
  6  7  1  0  0  0
  6  8  1  0  0  0
  8  9  2  0  0  0
  8 10  1  0  0  0
 10 13  1  0  0  0
 13 14  2  0  0  0
 14 15  1  0  0  0
 15 16  2  0  0  0
 16 17  1  0  0  0
 17 19  1  0  0  0
 19 20  1  0  0  0
 20 21  2  0  0  0
 20 23  1  0  0  0
 23 24  2  0  0  0
 17 18  2  0  0  0
 10 11  1  0  0  0
 11 12  2  0  0  0
 29 33  1  0  0  0
 33 34  1  0  0  0
 34 35  1  0  0  0
 35 36  1  0  0  0
 36 37  1  0  0  0
 37 38  1  0  0  0
 32 27  1  0  0  0
 12  1  1  0  0  0
 38 33  1  0  0  0
 11  4  1  0  0  0
 18 13  1  0  0  0
 25 26  1  0  0  0
 19 22  1  0  0  0
M  END
> <minimizedAffinity>
-8.38430

> <CNNscore>
0.7703469992

> <CNNaffinity>
7.8243827820

> <CNN_VS>
6.0274896622

> <CNNaffinity_variance>
0.1062330604

$$$$
[H]C([H])=C([H])C(=O)N([H])c1c([H])c([H])c([H])c(N2C(=O)N(C([H])([H])[H])C([H])([H])c3c([H])nc(N([H])c4c([H])c([H])c(N5C([H])([H])C([H])([H])C([H])([H])C([H])([H])C5([H])[H])c([H])c4OC([H])([H])[H])nc32)c1[H]


 40 44  0  0  0  0  0  0  0  0999 V2000
    0.0335  -53.8900  -21.1319 C   0  0  0  0  0  0  0  0  0  0  0  0
   -0.7235  -54.7425  -21.7987 N   0  0  0  0  0  0  0  0  0  0  0  0
   -1.0264  -54.7370  -23.0948 C   0  0  0  0  0  0  0  0  0  0  0  0
   -0.4673  -53.6877  -23.8444 C   0  0  0  0  0  0  0  0  0  0  0  0
   -0.7525  -53.6036  -25.2704 C   0  0  0  0  0  0  0  0  0  0  0  0
   -0.1198  -52.5131  -25.9608 N   0  0  0  0  0  0  0  0  0  0  0  0
   -0.3297  -52.3886  -27.3841 C   0  0  0  0  0  0  0  0  0  0  0  0
    0.7113  -51.5566  -25.2738 C   0  0  0  0  0  0  0  0  0  0  0  0
    1.1974  -50.6379  -25.9818 O   0  0  0  0  0  0  0  0  0  0  0  0
    0.9415  -51.6808  -23.8849 N   0  0  0  0  0  0  0  0  0  0  0  0
    0.3283  -52.7737  -23.1956 C   0  0  0  0  0  0  0  0  0  0  0  0
    0.5769  -52.8635  -21.8809 N   0  0  0  0  0  0  0  0  0  0  0  0
    1.7670  -50.7054  -23.2550 C   0  0  0  0  0  0  0  0  0  0  0  0
    1.1750  -49.9226  -22.2706 C   0  0  0  0  0  0  0  0  0  0  0  0
    1.9024  -48.9658  -21.6186 C   0  0  0  0  0  0  0  0  0  0  0  0
    3.2486  -48.7514  -21.9222 C   0  0  0  0  0  0  0  0  0  0  0  0
    3.8142  -49.5288  -22.8922 C   0  0  0  0  0  0  0  0  0  0  0  0
    3.0676  -50.5128  -23.5633 C   0  0  0  0  0  0  0  0  0  0  0  0
    5.1712  -49.3752  -23.2890 N   0  0  0  0  0  0  0  0  0  0  0  0
    5.6892  -48.5466  -24.2892 C   0  0  0  0  0  0  0  0  0  0  0  0
    4.9534  -47.8119  -24.9841 O   0  0  0  0  0  0  0  0  0  0  0  0
    5.8903  -49.9564  -22.7612 H   0  0  0  0  0  0  0  0  0  0  0  0
    7.1319  -48.4850  -24.5882 C   0  0  0  0  0  0  0  0  0  0  0  0
    8.0008  -47.9803  -23.7611 C   0  0  0  0  0  0  0  0  0  0  0  0
    0.3373  -53.9284  -19.7450 N   0  0  0  0  0  0  0  0  0  0  0  0
    0.6245  -54.9084  -19.3526 H   0  0  0  0  0  0  0  0  0  0  0  0
    1.4548  -52.0351  -18.8546 C   0  0  0  0  0  0  0  0  0  0  0  0
    1.5064  -50.9376  -18.0385 C   0  0  0  0  0  0  0  0  0  0  0  0
    0.4661  -50.5376  -17.1973 C   0  0  0  0  0  0  0  0  0  0  0  0
   -0.6544  -51.3220  -17.2249 C   0  0  0  0  0  0  0  0  0  0  0  0
   -0.7327  -52.4563  -18.0549 C   0  0  0  0  0  0  0  0  0  0  0  0
    0.2976  -52.8350  -18.8742 C   0  0  0  0  0  0  0  0  0  0  0  0
    0.5785  -49.4042  -16.3626 N   0  0  0  0  0  0  0  0  0  0  0  0
    1.8686  -48.9366  -15.9334 C   0  0  0  0  0  0  0  0  0  0  0  0
    1.8788  -47.4408  -15.6808 C   0  0  0  0  0  0  0  0  0  0  0  0
    0.8541  -46.9757  -14.7055 C   0  0  0  0  0  0  0  0  0  0  0  0
   -0.2909  -47.9241  -14.5895 C   0  0  0  0  0  0  0  0  0  0  0  0
   -0.5677  -48.6550  -15.9149 C   0  0  0  0  0  0  0  0  0  0  0  0
    3.6490  -51.5114  -19.8248 C   0  0  0  0  0  0  0  0  0  0  0  0
    2.5391  -52.3451  -19.6492 O   0  0  0  0  0  0  0  0  0  0  0  0
 39 40  1  0  0  0
 40 27  1  0  0  0
 27 28  2  0  0  0
 28 29  1  0  0  0
 29 30  2  0  0  0
 30 31  1  0  0  0
 31 32  2  0  0  0
 32 25  1  0  0  0
 25  1  1  0  0  0
  1  2  2  0  0  0
  2  3  1  0  0  0
  3  4  2  0  0  0
  4  5  1  0  0  0
  5  6  1  0  0  0
  6  7  1  0  0  0
  6  8  1  0  0  0
  8  9  2  0  0  0
  8 10  1  0  0  0
 10 13  1  0  0  0
 13 14  2  0  0  0
 14 15  1  0  0  0
 15 16  2  0  0  0
 16 17  1  0  0  0
 17 19  1  0  0  0
 19 20  1  0  0  0
 20 21  2  0  0  0
 20 23  1  0  0  0
 23 24  2  0  0  0
 17 18  2  0  0  0
 10 11  1  0  0  0
 11 12  2  0  0  0
 29 33  1  0  0  0
 33 34  1  0  0  0
 34 35  1  0  0  0
 35 36  1  0  0  0
 36 37  1  0  0  0
 37 38  1  0  0  0
 32 27  1  0  0  0
 12  1  1  0  0  0
 38 33  1  0  0  0
 11  4  1  0  0  0
 18 13  1  0  0  0
 25 26  1  0  0  0
 19 22  1  0  0  0
M  END
> <minimizedAffinity>
-7.48152

> <CNNscore>
0.6735389233

> <CNNaffinity>
7.5244874954

> <CNN_VS>
5.0680351257

> <CNNaffinity_variance>
0.1409453601

$$$$
[H]C([H])=C([H])C(=O)N([H])c1c([H])c([H])c([H])c(N2C(=O)N(C([H])([H])[H])C([H])([H])c3c([H])nc(N([H])c4c([H])c([H])c(N5C([H])([H])C([H])([H])C([H])([H])C([H])([H])C5([H])[H])c([H])c4OC([H])([H])[H])nc32)c1[H]


 40 44  0  0  0  0  0  0  0  0999 V2000
   -1.4205  -52.9832  -18.0570 C   0  0  0  0  0  0  0  0  0  0  0  0
   -2.5779  -53.2533  -17.4808 N   0  0  0  0  0  0  0  0  0  0  0  0
   -3.1215  -52.6755  -16.4120 C   0  0  0  0  0  0  0  0  0  0  0  0
   -2.3625  -51.6483  -15.8254 C   0  0  0  0  0  0  0  0  0  0  0  0
   -2.8816  -50.9660  -14.6477 C   0  0  0  0  0  0  0  0  0  0  0  0
   -2.0500  -49.9140  -14.1300 N   0  0  0  0  0  0  0  0  0  0  0  0
   -2.5187  -49.1705  -12.9842 C   0  0  0  0  0  0  0  0  0  0  0  0
   -0.7779  -49.5868  -14.7237 C   0  0  0  0  0  0  0  0  0  0  0  0
   -0.1338  -48.6577  -14.1729 O   0  0  0  0  0  0  0  0  0  0  0  0
   -0.3188  -50.2932  -15.8585 N   0  0  0  0  0  0  0  0  0  0  0  0
   -1.1497  -51.3297  -16.3883 C   0  0  0  0  0  0  0  0  0  0  0  0
   -0.6847  -51.9712  -17.4702 N   0  0  0  0  0  0  0  0  0  0  0  0
    0.9476  -49.9323  -16.4022 C   0  0  0  0  0  0  0  0  0  0  0  0
    2.0719  -50.4699  -15.7865 C   0  0  0  0  0  0  0  0  0  0  0  0
    3.3228  -50.1723  -16.2514 C   0  0  0  0  0  0  0  0  0  0  0  0
    3.5025  -49.3269  -17.3484 C   0  0  0  0  0  0  0  0  0  0  0  0
    2.3874  -48.8070  -17.9410 C   0  0  0  0  0  0  0  0  0  0  0  0
    1.1007  -49.1122  -17.4642 C   0  0  0  0  0  0  0  0  0  0  0  0
    2.4639  -47.9203  -19.0503 N   0  0  0  0  0  0  0  0  0  0  0  0
    3.1449  -48.1055  -20.2574 C   0  0  0  0  0  0  0  0  0  0  0  0
    3.8038  -49.1425  -20.4911 O   0  0  0  0  0  0  0  0  0  0  0  0
    1.9363  -46.9999  -18.9614 H   0  0  0  0  0  0  0  0  0  0  0  0
    3.1299  -47.0937  -21.3302 C   0  0  0  0  0  0  0  0  0  0  0  0
    4.1021  -46.9604  -22.1851 C   0  0  0  0  0  0  0  0  0  0  0  0
   -0.8719  -53.6211  -19.2011 N   0  0  0  0  0  0  0  0  0  0  0  0
   -1.0152  -54.7047  -19.2505 H   0  0  0  0  0  0  0  0  0  0  0  0
   -0.3953  -53.5125  -21.5222 C   0  0  0  0  0  0  0  0  0  0  0  0
    0.2295  -52.9468  -22.6006 C   0  0  0  0  0  0  0  0  0  0  0  0
    1.0871  -51.8477  -22.5212 C   0  0  0  0  0  0  0  0  0  0  0  0
    1.2844  -51.3384  -21.2669 C   0  0  0  0  0  0  0  0  0  0  0  0
    0.6541  -51.9019  -20.1414 C   0  0  0  0  0  0  0  0  0  0  0  0
   -0.1844  -52.9807  -20.2369 C   0  0  0  0  0  0  0  0  0  0  0  0
    1.7190  -51.3132  -23.6653 N   0  0  0  0  0  0  0  0  0  0  0  0
    2.3423  -50.0185  -23.6193 C   0  0  0  0  0  0  0  0  0  0  0  0
    3.4981  -49.9061  -24.5955 C   0  0  0  0  0  0  0  0  0  0  0  0
    3.1408  -50.2136  -26.0081 C   0  0  0  0  0  0  0  0  0  0  0  0
    1.9235  -51.0688  -26.1125 C   0  0  0  0  0  0  0  0  0  0  0  0
    1.7898  -52.0260  -24.9153 C   0  0  0  0  0  0  0  0  0  0  0  0
   -1.4603  -55.2059  -22.9463 C   0  0  0  0  0  0  0  0  0  0  0  0
   -1.2252  -54.5988  -21.7078 O   0  0  0  0  0  0  0  0  0  0  0  0
 39 40  1  0  0  0
 40 27  1  0  0  0
 27 28  2  0  0  0
 28 29  1  0  0  0
 29 30  2  0  0  0
 30 31  1  0  0  0
 31 32  2  0  0  0
 32 25  1  0  0  0
 25  1  1  0  0  0
  1  2  2  0  0  0
  2  3  1  0  0  0
  3  4  2  0  0  0
  4  5  1  0  0  0
  5  6  1  0  0  0
  6  7  1  0  0  0
  6  8  1  0  0  0
  8  9  2  0  0  0
  8 10  1  0  0  0
 10 13  1  0  0  0
 13 14  2  0  0  0
 14 15  1  0  0  0
 15 16  2  0  0  0
 16 17  1  0  0  0
 17 19  1  0  0  0
 19 20  1  0  0  0
 20 21  2  0  0  0
 20 23  1  0  0  0
 23 24  2  0  0  0
 17 18  2  0  0  0
 10 11  1  0  0  0
 11 12  2  0  0  0
 29 33  1  0  0  0
 33 34  1  0  0  0
 34 35  1  0  0  0
 35 36  1  0  0  0
 36 37  1  0  0  0
 37 38  1  0  0  0
 32 27  1  0  0  0
 12  1  1  0  0  0
 38 33  1  0  0  0
 11  4  1  0  0  0
 18 13  1  0  0  0
 25 26  1  0  0  0
 19 22  1  0  0  0
M  END
> <minimizedAffinity>
-7.53962

> <CNNscore>
0.5863588452

> <CNNaffinity>
7.2946062088

> <CNN_VS>
4.2772569656

> <CNNaffinity_variance>
0.1275666505

$$$$
[H]C([H])=C([H])C(=O)N([H])c1c([H])c([H])c([H])c(N2C(=O)N(C([H])([H])[H])C([H])([H])c3c([H])nc(N([H])c4c([H])c([H])c(N5C([H])([H])C([H])([H])C([H])([H])C([H])([H])C5([H])[H])c([H])c4OC([H])([H])[H])nc32)c1[H]


 40 44  0  0  0  0  0  0  0  0999 V2000
   -0.0321  -53.6156  -20.9992 C   0  0  0  0  0  0  0  0  0  0  0  0
   -0.8146  -54.5824  -21.4434 N   0  0  0  0  0  0  0  0  0  0  0  0
   -1.0952  -54.9019  -22.7048 C   0  0  0  0  0  0  0  0  0  0  0  0
   -0.4780  -54.1052  -23.6845 C   0  0  0  0  0  0  0  0  0  0  0  0
   -0.7353  -54.3833  -25.0910 C   0  0  0  0  0  0  0  0  0  0  0  0
   -0.0437  -53.5342  -26.0222 N   0  0  0  0  0  0  0  0  0  0  0  0
   -0.2240  -53.7755  -27.4345 C   0  0  0  0  0  0  0  0  0  0  0  0
    0.8171  -52.4646  -25.5832 C   0  0  0  0  0  0  0  0  0  0  0  0
    1.3549  -51.7804  -26.4910 O   0  0  0  0  0  0  0  0  0  0  0  0
    1.0182  -52.2328  -24.2036 N   0  0  0  0  0  0  0  0  0  0  0  0
    0.3460  -53.0852  -23.2724 C   0  0  0  0  0  0  0  0  0  0  0  0
    0.5684  -52.8402  -21.9729 N   0  0  0  0  0  0  0  0  0  0  0  0
    1.8751  -51.1596  -23.8249 C   0  0  0  0  0  0  0  0  0  0  0  0
    1.4018  -50.2931  -22.8465 C   0  0  0  0  0  0  0  0  0  0  0  0
    2.1665  -49.2397  -22.4280 C   0  0  0  0  0  0  0  0  0  0  0  0
    3.4334  -49.0083  -22.9685 C   0  0  0  0  0  0  0  0  0  0  0  0
    3.8827  -49.8688  -23.9291 C   0  0  0  0  0  0  0  0  0  0  0  0
    3.0975  -50.9522  -24.3601 C   0  0  0  0  0  0  0  0  0  0  0  0
    5.1489  -49.7081  -24.5561 N   0  0  0  0  0  0  0  0  0  0  0  0
    5.6325  -48.5952  -25.2511 C   0  0  0  0  0  0  0  0  0  0  0  0
    4.9447  -47.5618  -25.4026 O   0  0  0  0  0  0  0  0  0  0  0  0
    5.8211  -50.5310  -24.4895 H   0  0  0  0  0  0  0  0  0  0  0  0
    6.9806  -48.5677  -25.8481 C   0  0  0  0  0  0  0  0  0  0  0  0
    8.0031  -48.0266  -25.2519 C   0  0  0  0  0  0  0  0  0  0  0  0
    0.2463  -53.3043  -19.6417 N   0  0  0  0  0  0  0  0  0  0  0  0
   -0.2155  -53.9655  -18.9025 H   0  0  0  0  0  0  0  0  0  0  0  0
    0.4665  -51.4200  -18.2179 C   0  0  0  0  0  0  0  0  0  0  0  0
    1.1763  -50.3623  -17.7172 C   0  0  0  0  0  0  0  0  0  0  0  0
    2.4721  -50.0291  -18.1170 C   0  0  0  0  0  0  0  0  0  0  0  0
    3.0257  -50.8393  -19.0703 C   0  0  0  0  0  0  0  0  0  0  0  0
    2.3168  -51.9332  -19.6017 C   0  0  0  0  0  0  0  0  0  0  0  0
    1.0458  -52.2460  -19.1985 C   0  0  0  0  0  0  0  0  0  0  0  0
    3.1535  -48.9157  -17.5786 N   0  0  0  0  0  0  0  0  0  0  0  0
    2.6817  -48.2791  -16.3789 C   0  0  0  0  0  0  0  0  0  0  0  0
    3.8084  -47.6358  -15.5928 C   0  0  0  0  0  0  0  0  0  0  0  0
    4.6153  -46.6534  -16.3684 C   0  0  0  0  0  0  0  0  0  0  0  0
    4.5295  -46.8837  -17.8393 C   0  0  0  0  0  0  0  0  0  0  0  0
    4.3463  -48.3735  -18.1776 C   0  0  0  0  0  0  0  0  0  0  0  0
   -1.1145  -52.0101  -16.4341 C   0  0  0  0  0  0  0  0  0  0  0  0
   -0.8100  -51.6643  -17.7552 O   0  0  0  0  0  0  0  0  0  0  0  0
 39 40  1  0  0  0
 40 27  1  0  0  0
 27 28  2  0  0  0
 28 29  1  0  0  0
 29 30  2  0  0  0
 30 31  1  0  0  0
 31 32  2  0  0  0
 32 25  1  0  0  0
 25  1  1  0  0  0
  1  2  2  0  0  0
  2  3  1  0  0  0
  3  4  2  0  0  0
  4  5  1  0  0  0
  5  6  1  0  0  0
  6  7  1  0  0  0
  6  8  1  0  0  0
  8  9  2  0  0  0
  8 10  1  0  0  0
 10 13  1  0  0  0
 13 14  2  0  0  0
 14 15  1  0  0  0
 15 16  2  0  0  0
 16 17  1  0  0  0
 17 19  1  0  0  0
 19 20  1  0  0  0
 20 21  2  0  0  0
 20 23  1  0  0  0
 23 24  2  0  0  0
 17 18  2  0  0  0
 10 11  1  0  0  0
 11 12  2  0  0  0
 29 33  1  0  0  0
 33 34  1  0  0  0
 34 35  1  0  0  0
 35 36  1  0  0  0
 36 37  1  0  0  0
 37 38  1  0  0  0
 32 27  1  0  0  0
 12  1  1  0  0  0
 38 33  1  0  0  0
 11  4  1  0  0  0
 18 13  1  0  0  0
 25 26  1  0  0  0
 19 22  1  0  0  0
M  END
> <minimizedAffinity>
-7.31744

> <CNNscore>
0.5516832471

> <CNNaffinity>
7.5350313187

> <CNN_VS>
4.1569504738

> <CNNaffinity_variance>
0.2193814218

$$$$
[H]C([H])=C([H])C(=O)N([H])c1c([H])c([H])c([H])c(N2C(=O)N(C([H])([H])[H])C([H])([H])c3c([H])nc(N([H])c4c([H])c([H])c(N5C([H])([H])C([H])([H])C([H])([H])C([H])([H])C5([H])[H])c([H])c4OC([H])([H])[H])nc32)c1[H]


 40 44  0  0  0  0  0  0  0  0999 V2000
    0.1628  -53.1114  -20.5179 C   0  0  0  0  0  0  0  0  0  0  0  0
   -0.7888  -53.9614  -20.8593 N   0  0  0  0  0  0  0  0  0  0  0  0
   -1.1055  -54.3993  -22.0757 C   0  0  0  0  0  0  0  0  0  0  0  0
   -0.3251  -53.8884  -23.1271 C   0  0  0  0  0  0  0  0  0  0  0  0
   -0.6082  -54.3117  -24.4918 C   0  0  0  0  0  0  0  0  0  0  0  0
    0.2547  -53.7574  -25.4991 N   0  0  0  0  0  0  0  0  0  0  0  0
    0.0545  -54.1608  -26.8711 C   0  0  0  0  0  0  0  0  0  0  0  0
    1.3034  -52.8237  -25.1736 C   0  0  0  0  0  0  0  0  0  0  0  0
    1.9824  -52.3960  -26.1419 O   0  0  0  0  0  0  0  0  0  0  0  0
    1.5228  -52.4383  -23.8317 N   0  0  0  0  0  0  0  0  0  0  0  0
    0.6783  -52.9996  -22.8230 C   0  0  0  0  0  0  0  0  0  0  0  0
    0.9224  -52.6170  -21.5612 N   0  0  0  0  0  0  0  0  0  0  0  0
    2.5695  -51.5090  -23.5665 C   0  0  0  0  0  0  0  0  0  0  0  0
    3.8575  -52.0234  -23.4729 C   0  0  0  0  0  0  0  0  0  0  0  0
    4.9158  -51.1947  -23.2223 C   0  0  0  0  0  0  0  0  0  0  0  0
    4.7321  -49.8204  -23.0550 C   0  0  0  0  0  0  0  0  0  0  0  0
    3.4603  -49.3319  -23.1495 C   0  0  0  0  0  0  0  0  0  0  0  0
    2.3714  -50.1827  -23.4072 C   0  0  0  0  0  0  0  0  0  0  0  0
    3.1653  -47.9517  -22.9745 N   0  0  0  0  0  0  0  0  0  0  0  0
    3.2788  -46.9197  -23.9111 C   0  0  0  0  0  0  0  0  0  0  0  0
    3.6852  -47.1270  -25.0755 O   0  0  0  0  0  0  0  0  0  0  0  0
    2.8087  -47.6590  -22.0150 H   0  0  0  0  0  0  0  0  0  0  0  0
    2.9272  -45.5245  -23.5879 C   0  0  0  0  0  0  0  0  0  0  0  0
    2.2005  -44.7824  -24.3722 C   0  0  0  0  0  0  0  0  0  0  0  0
    0.4741  -52.6671  -19.2054 N   0  0  0  0  0  0  0  0  0  0  0  0
    1.5400  -52.5511  -18.9877 H   0  0  0  0  0  0  0  0  0  0  0  0
   -0.1820  -51.2282  -17.4374 C   0  0  0  0  0  0  0  0  0  0  0  0
   -1.0415  -50.8580  -16.4387 C   0  0  0  0  0  0  0  0  0  0  0  0
   -2.2079  -51.5526  -16.1117 C   0  0  0  0  0  0  0  0  0  0  0  0
   -2.4663  -52.6656  -16.8640 C   0  0  0  0  0  0  0  0  0  0  0  0
   -1.5983  -53.0681  -17.8966 C   0  0  0  0  0  0  0  0  0  0  0  0
   -0.4576  -52.3751  -18.2042 C   0  0  0  0  0  0  0  0  0  0  0  0
   -3.0519  -51.1352  -15.0594 N   0  0  0  0  0  0  0  0  0  0  0  0
   -3.4892  -49.7685  -14.9704 C   0  0  0  0  0  0  0  0  0  0  0  0
   -4.8395  -49.6441  -14.2903 C   0  0  0  0  0  0  0  0  0  0  0  0
   -4.9021  -50.2543  -12.9333 C   0  0  0  0  0  0  0  0  0  0  0  0
   -3.8606  -51.3029  -12.7338 C   0  0  0  0  0  0  0  0  0  0  0  0
   -3.5285  -52.0389  -14.0437 C   0  0  0  0  0  0  0  0  0  0  0  0
    1.1124  -49.1493  -17.2563 C   0  0  0  0  0  0  0  0  0  0  0  0
    0.9459  -50.4721  -17.6810 O   0  0  0  0  0  0  0  0  0  0  0  0
 39 40  1  0  0  0
 40 27  1  0  0  0
 27 28  2  0  0  0
 28 29  1  0  0  0
 29 30  2  0  0  0
 30 31  1  0  0  0
 31 32  2  0  0  0
 32 25  1  0  0  0
 25  1  1  0  0  0
  1  2  2  0  0  0
  2  3  1  0  0  0
  3  4  2  0  0  0
  4  5  1  0  0  0
  5  6  1  0  0  0
  6  7  1  0  0  0
  6  8  1  0  0  0
  8  9  2  0  0  0
  8 10  1  0  0  0
 10 13  1  0  0  0
 13 14  2  0  0  0
 14 15  1  0  0  0
 15 16  2  0  0  0
 16 17  1  0  0  0
 17 19  1  0  0  0
 19 20  1  0  0  0
 20 21  2  0  0  0
 20 23  1  0  0  0
 23 24  2  0  0  0
 17 18  2  0  0  0
 10 11  1  0  0  0
 11 12  2  0  0  0
 29 33  1  0  0  0
 33 34  1  0  0  0
 34 35  1  0  0  0
 35 36  1  0  0  0
 36 37  1  0  0  0
 37 38  1  0  0  0
 32 27  1  0  0  0
 12  1  1  0  0  0
 38 33  1  0  0  0
 11  4  1  0  0  0
 18 13  1  0  0  0
 25 26  1  0  0  0
 19 22  1  0  0  0
M  END
> <minimizedAffinity>
-8.35823

> <CNNscore>
0.5181979537

> <CNNaffinity>
7.4981179237

> <CNN_VS>
3.8855092525

> <CNNaffinity_variance>
0.2846828103

$$$$
[H]C([H])=C([H])C(=O)N([H])c1c([H])c([H])c([H])c(N2C(=O)N(C([H])([H])[H])C([H])([H])c3c([H])nc(N([H])c4c([H])c([H])c(N5C([H])([H])C([H])([H])C([H])([H])C([H])([H])C5([H])[H])c([H])c4OC([H])([H])[H])nc32)c1[H]


 40 44  0  0  0  0  0  0  0  0999 V2000
    0.7102  -52.9474  -21.8248 C   0  0  0  0  0  0  0  0  0  0  0  0
   -0.2739  -53.7682  -22.1448 N   0  0  0  0  0  0  0  0  0  0  0  0
   -0.6803  -54.1344  -23.3582 C   0  0  0  0  0  0  0  0  0  0  0  0
    0.0314  -53.5726  -24.4321 C   0  0  0  0  0  0  0  0  0  0  0  0
   -0.3516  -53.9162  -25.7949 C   0  0  0  0  0  0  0  0  0  0  0  0
    0.4460  -53.3143  -26.8282 N   0  0  0  0  0  0  0  0  0  0  0  0
    0.1453  -53.6384  -28.2029 C   0  0  0  0  0  0  0  0  0  0  0  0
    1.5270  -52.4100  -26.5263 C   0  0  0  0  0  0  0  0  0  0  0  0
    2.1424  -51.9350  -27.5148 O   0  0  0  0  0  0  0  0  0  0  0  0
    1.8445  -52.1023  -25.1839 N   0  0  0  0  0  0  0  0  0  0  0  0
    1.0651  -52.7114  -24.1508 C   0  0  0  0  0  0  0  0  0  0  0  0
    1.4017  -52.4024  -22.8901 N   0  0  0  0  0  0  0  0  0  0  0  0
    2.9192  -51.1990  -24.9421 C   0  0  0  0  0  0  0  0  0  0  0  0
    4.1754  -51.7577  -24.7368 C   0  0  0  0  0  0  0  0  0  0  0  0
    5.2577  -50.9563  -24.5005 C   0  0  0  0  0  0  0  0  0  0  0  0
    5.1306  -49.5661  -24.4593 C   0  0  0  0  0  0  0  0  0  0  0  0
    3.8894  -49.0338  -24.6626 C   0  0  0  0  0  0  0  0  0  0  0  0
    2.7759  -49.8566  -24.9057 C   0  0  0  0  0  0  0  0  0  0  0  0
    3.6512  -47.6324  -24.6202 N   0  0  0  0  0  0  0  0  0  0  0  0
    3.1486  -46.8745  -23.5581 C   0  0  0  0  0  0  0  0  0  0  0  0
    2.8330  -47.3963  -22.4663 O   0  0  0  0  0  0  0  0  0  0  0  0
    3.8860  -47.0827  -25.5012 H   0  0  0  0  0  0  0  0  0  0  0  0
    2.9592  -45.4153  -23.6559 C   0  0  0  0  0  0  0  0  0  0  0  0
    2.0306  -44.8740  -24.3897 C   0  0  0  0  0  0  0  0  0  0  0  0
    1.1181  -52.5802  -20.5149 N   0  0  0  0  0  0  0  0  0  0  0  0
    2.1877  -52.3855  -20.3918 H   0  0  0  0  0  0  0  0  0  0  0  0
    0.5756  -51.3893  -18.5367 C   0  0  0  0  0  0  0  0  0  0  0  0
   -0.1998  -51.1802  -17.4284 C   0  0  0  0  0  0  0  0  0  0  0  0
   -1.3019  -51.9655  -17.0840 C   0  0  0  0  0  0  0  0  0  0  0  0
   -1.5860  -52.9961  -17.9377 C   0  0  0  0  0  0  0  0  0  0  0  0
   -0.8041  -53.2329  -19.0841 C   0  0  0  0  0  0  0  0  0  0  0  0
    0.2743  -52.4526  -19.4072 C   0  0  0  0  0  0  0  0  0  0  0  0
   -2.0587  -51.7150  -15.9185 N   0  0  0  0  0  0  0  0  0  0  0  0
   -1.4524  -51.0955  -14.7715 C   0  0  0  0  0  0  0  0  0  0  0  0
   -2.4538  -50.2990  -13.9565 C   0  0  0  0  0  0  0  0  0  0  0  0
   -3.6388  -51.0804  -13.5061 C   0  0  0  0  0  0  0  0  0  0  0  0
   -3.8867  -52.2782  -14.3591 C   0  0  0  0  0  0  0  0  0  0  0  0
   -3.4579  -52.0429  -15.8180 C   0  0  0  0  0  0  0  0  0  0  0  0
    1.5424  -49.1658  -18.9261 C   0  0  0  0  0  0  0  0  0  0  0  0
    1.6448  -50.5544  -18.7878 O   0  0  0  0  0  0  0  0  0  0  0  0
 39 40  1  0  0  0
 40 27  1  0  0  0
 27 28  2  0  0  0
 28 29  1  0  0  0
 29 30  2  0  0  0
 30 31  1  0  0  0
 31 32  2  0  0  0
 32 25  1  0  0  0
 25  1  1  0  0  0
  1  2  2  0  0  0
  2  3  1  0  0  0
  3  4  2  0  0  0
  4  5  1  0  0  0
  5  6  1  0  0  0
  6  7  1  0  0  0
  6  8  1  0  0  0
  8  9  2  0  0  0
  8 10  1  0  0  0
 10 13  1  0  0  0
 13 14  2  0  0  0
 14 15  1  0  0  0
 15 16  2  0  0  0
 16 17  1  0  0  0
 17 19  1  0  0  0
 19 20  1  0  0  0
 20 21  2  0  0  0
 20 23  1  0  0  0
 23 24  2  0  0  0
 17 18  2  0  0  0
 10 11  1  0  0  0
 11 12  2  0  0  0
 29 33  1  0  0  0
 33 34  1  0  0  0
 34 35  1  0  0  0
 35 36  1  0  0  0
 36 37  1  0  0  0
 37 38  1  0  0  0
 32 27  1  0  0  0
 12  1  1  0  0  0
 38 33  1  0  0  0
 11  4  1  0  0  0
 18 13  1  0  0  0
 25 26  1  0  0  0
 19 22  1  0  0  0
M  END
> <minimizedAffinity>
-8.13453

> <CNNscore>
0.4460485876

> <CNNaffinity>
7.4945464134

> <CNN_VS>
3.3429317474

> <CNNaffinity_variance>
0.2516689897

$$$$
[H]C([H])=C([H])C(=O)N([H])c1c([H])c([H])c([H])c(N2C(=O)N(C([H])([H])[H])C([H])([H])c3c([H])nc(N([H])c4c([H])c([H])c(N5C([H])([H])C([H])([H])C([H])([H])C([H])([H])C5([H])[H])c([H])c4OC([H])([H])[H])nc32)c1[H]


 40 44  0  0  0  0  0  0  0  0999 V2000
    0.4227  -53.2092  -22.2841 C   0  0  0  0  0  0  0  0  0  0  0  0
   -0.5008  -54.0198  -22.7684 N   0  0  0  0  0  0  0  0  0  0  0  0
   -0.7477  -54.3212  -24.0412 C   0  0  0  0  0  0  0  0  0  0  0  0
    0.0824  -53.6936  -24.9858 C   0  0  0  0  0  0  0  0  0  0  0  0
   -0.1232  -53.9638  -26.4023 C   0  0  0  0  0  0  0  0  0  0  0  0
    0.7865  -53.2976  -27.2939 N   0  0  0  0  0  0  0  0  0  0  0  0
    0.6638  -53.5470  -28.7109 C   0  0  0  0  0  0  0  0  0  0  0  0
    1.8071  -52.4016  -26.8108 C   0  0  0  0  0  0  0  0  0  0  0  0
    2.5324  -51.8663  -27.6876 O   0  0  0  0  0  0  0  0  0  0  0  0
    1.9507  -52.1667  -25.4246 N   0  0  0  0  0  0  0  0  0  0  0  0
    1.0593  -52.8400  -24.5314 C   0  0  0  0  0  0  0  0  0  0  0  0
    1.2320  -52.5989  -23.2236 N   0  0  0  0  0  0  0  0  0  0  0  0
    2.9725  -51.2685  -25.0020 C   0  0  0  0  0  0  0  0  0  0  0  0
    4.1980  -51.8276  -24.6589 C   0  0  0  0  0  0  0  0  0  0  0  0
    5.2293  -51.0308  -24.2454 C   0  0  0  0  0  0  0  0  0  0  0  0
    5.0797  -49.6450  -24.1572 C   0  0  0  0  0  0  0  0  0  0  0  0
    3.8691  -49.1123  -24.4975 C   0  0  0  0  0  0  0  0  0  0  0  0
    2.8080  -49.9304  -24.9229 C   0  0  0  0  0  0  0  0  0  0  0  0
    3.6090  -47.7162  -24.4223 N   0  0  0  0  0  0  0  0  0  0  0  0
    3.0441  -46.9997  -23.3627 C   0  0  0  0  0  0  0  0  0  0  0  0
    2.6829  -47.5607  -22.3050 O   0  0  0  0  0  0  0  0  0  0  0  0
    3.8788  -47.1352  -25.2726 H   0  0  0  0  0  0  0  0  0  0  0  0
    2.8389  -45.5406  -23.4232 C   0  0  0  0  0  0  0  0  0  0  0  0
    2.1030  -44.9708  -24.3329 C   0  0  0  0  0  0  0  0  0  0  0  0
    0.6591  -52.9121  -20.9156 N   0  0  0  0  0  0  0  0  0  0  0  0
    0.1104  -53.5293  -20.1979 H   0  0  0  0  0  0  0  0  0  0  0  0
    1.0633  -51.2197  -19.3036 C   0  0  0  0  0  0  0  0  0  0  0  0
    1.8399  -50.2334  -18.7582 C   0  0  0  0  0  0  0  0  0  0  0  0
    3.0887  -49.8550  -19.2552 C   0  0  0  0  0  0  0  0  0  0  0  0
    3.5217  -50.5412  -20.3567 C   0  0  0  0  0  0  0  0  0  0  0  0
    2.7421  -51.5596  -20.9370 C   0  0  0  0  0  0  0  0  0  0  0  0
    1.5185  -51.9183  -20.4367 C   0  0  0  0  0  0  0  0  0  0  0  0
    3.8420  -48.8181  -18.6626 N   0  0  0  0  0  0  0  0  0  0  0  0
    3.2199  -47.8821  -17.7660 C   0  0  0  0  0  0  0  0  0  0  0  0
    4.1965  -47.3385  -16.7403 C   0  0  0  0  0  0  0  0  0  0  0  0
    5.4109  -46.7045  -17.3243 C   0  0  0  0  0  0  0  0  0  0  0  0
    5.6968  -47.1907  -18.7049 C   0  0  0  0  0  0  0  0  0  0  0  0
    5.2526  -48.6504  -18.9031 C   0  0  0  0  0  0  0  0  0  0  0  0
   -0.3544  -51.7495  -17.3698 C   0  0  0  0  0  0  0  0  0  0  0  0
   -0.1581  -51.5178  -18.7357 O   0  0  0  0  0  0  0  0  0  0  0  0
 39 40  1  0  0  0
 40 27  1  0  0  0
 27 28  2  0  0  0
 28 29  1  0  0  0
 29 30  2  0  0  0
 30 31  1  0  0  0
 31 32  2  0  0  0
 32 25  1  0  0  0
 25  1  1  0  0  0
  1  2  2  0  0  0
  2  3  1  0  0  0
  3  4  2  0  0  0
  4  5  1  0  0  0
  5  6  1  0  0  0
  6  7  1  0  0  0
  6  8  1  0  0  0
  8  9  2  0  0  0
  8 10  1  0  0  0
 10 13  1  0  0  0
 13 14  2  0  0  0
 14 15  1  0  0  0
 15 16  2  0  0  0
 16 17  1  0  0  0
 17 19  1  0  0  0
 19 20  1  0  0  0
 20 21  2  0  0  0
 20 23  1  0  0  0
 23 24  2  0  0  0
 17 18  2  0  0  0
 10 11  1  0  0  0
 11 12  2  0  0  0
 29 33  1  0  0  0
 33 34  1  0  0  0
 34 35  1  0  0  0
 35 36  1  0  0  0
 36 37  1  0  0  0
 37 38  1  0  0  0
 32 27  1  0  0  0
 12  1  1  0  0  0
 38 33  1  0  0  0
 11  4  1  0  0  0
 18 13  1  0  0  0
 25 26  1  0  0  0
 19 22  1  0  0  0
M  END
> <minimizedAffinity>
-7.78214

> <CNNscore>
0.4165630639

> <CNNaffinity>
7.3890867233

> <CNN_VS>
3.0780205727

> <CNNaffinity_variance>
0.0938404649

$$$$
[H]C([H])=C([H])C(=O)N([H])c1c([H])c([H])c([H])c(N2C(=O)N(C([H])([H])[H])C([H])([H])c3c([H])nc(N([H])c4c([H])c([H])c(N5C([H])([H])C([H])([H])C([H])([H])C([H])([H])C5([H])[H])c([H])c4OC([H])([H])[H])nc32)c1[H]


 40 44  0  0  0  0  0  0  0  0999 V2000
    0.7230  -53.0996  -21.0152 C   0  0  0  0  0  0  0  0  0  0  0  0
   -0.3155  -53.8754  -21.2687 N   0  0  0  0  0  0  0  0  0  0  0  0
   -0.8422  -54.1876  -22.4506 C   0  0  0  0  0  0  0  0  0  0  0  0
   -0.2091  -53.6158  -23.5675 C   0  0  0  0  0  0  0  0  0  0  0  0
   -0.7250  -53.9014  -24.8995 C   0  0  0  0  0  0  0  0  0  0  0  0
   -0.0013  -53.2937  -25.9827 N   0  0  0  0  0  0  0  0  0  0  0  0
   -0.4356  -53.5623  -27.3334 C   0  0  0  0  0  0  0  0  0  0  0  0
    1.1351  -52.4372  -25.7535 C   0  0  0  0  0  0  0  0  0  0  0  0
    1.6767  -51.9515  -26.7793 O   0  0  0  0  0  0  0  0  0  0  0  0
    1.5826  -52.1845  -24.4369 N   0  0  0  0  0  0  0  0  0  0  0  0
    0.8768  -52.8001  -23.3559 C   0  0  0  0  0  0  0  0  0  0  0  0
    1.3361  -52.5440  -22.1222 N   0  0  0  0  0  0  0  0  0  0  0  0
    2.7074  -51.3269  -24.2670 C   0  0  0  0  0  0  0  0  0  0  0  0
    3.9578  -51.9323  -24.2218 C   0  0  0  0  0  0  0  0  0  0  0  0
    5.0860  -51.1763  -24.0630 C   0  0  0  0  0  0  0  0  0  0  0  0
    5.0123  -49.7868  -23.9427 C   0  0  0  0  0  0  0  0  0  0  0  0
    3.7760  -49.2084  -23.9887 C   0  0  0  0  0  0  0  0  0  0  0  0
    2.6153  -49.9845  -24.1520 C   0  0  0  0  0  0  0  0  0  0  0  0
    3.5923  -47.8046  -23.8550 N   0  0  0  0  0  0  0  0  0  0  0  0
    3.4141  -46.8575  -24.8682 C   0  0  0  0  0  0  0  0  0  0  0  0
    3.4039  -47.1781  -26.0769 O   0  0  0  0  0  0  0  0  0  0  0  0
    3.5834  -47.4178  -22.8632 H   0  0  0  0  0  0  0  0  0  0  0  0
    3.2268  -45.4238  -24.5782 C   0  0  0  0  0  0  0  0  0  0  0  0
    2.0618  -44.9049  -24.3186 C   0  0  0  0  0  0  0  0  0  0  0  0
    1.2598  -52.7895  -19.7374 N   0  0  0  0  0  0  0  0  0  0  0  0
    2.2730  -53.1573  -19.5502 H   0  0  0  0  0  0  0  0  0  0  0  0
    1.1414  -50.7981  -18.4542 C   0  0  0  0  0  0  0  0  0  0  0  0
    0.5624  -50.0148  -17.4926 C   0  0  0  0  0  0  0  0  0  0  0  0
   -0.5553  -50.3907  -16.7447 C   0  0  0  0  0  0  0  0  0  0  0  0
   -1.0691  -51.6270  -17.0259 C   0  0  0  0  0  0  0  0  0  0  0  0
   -0.4922  -52.4521  -18.0097 C   0  0  0  0  0  0  0  0  0  0  0  0
    0.6047  -52.0681  -18.7345 C   0  0  0  0  0  0  0  0  0  0  0  0
   -1.1032  -49.5490  -15.7520 N   0  0  0  0  0  0  0  0  0  0  0  0
   -0.5260  -48.2594  -15.4859 C   0  0  0  0  0  0  0  0  0  0  0  0
   -1.5535  -47.2691  -14.9713 C   0  0  0  0  0  0  0  0  0  0  0  0
   -2.2891  -47.7219  -13.7582 C   0  0  0  0  0  0  0  0  0  0  0  0
   -2.2822  -49.2060  -13.6112 C   0  0  0  0  0  0  0  0  0  0  0  0
   -2.2590  -49.9180  -14.9751 C   0  0  0  0  0  0  0  0  0  0  0  0
    3.5288  -50.2392  -18.5882 C   0  0  0  0  0  0  0  0  0  0  0  0
    2.2456  -50.3332  -19.1381 O   0  0  0  0  0  0  0  0  0  0  0  0
 39 40  1  0  0  0
 40 27  1  0  0  0
 27 28  2  0  0  0
 28 29  1  0  0  0
 29 30  2  0  0  0
 30 31  1  0  0  0
 31 32  2  0  0  0
 32 25  1  0  0  0
 25  1  1  0  0  0
  1  2  2  0  0  0
  2  3  1  0  0  0
  3  4  2  0  0  0
  4  5  1  0  0  0
  5  6  1  0  0  0
  6  7  1  0  0  0
  6  8  1  0  0  0
  8  9  2  0  0  0
  8 10  1  0  0  0
 10 13  1  0  0  0
 13 14  2  0  0  0
 14 15  1  0  0  0
 15 16  2  0  0  0
 16 17  1  0  0  0
 17 19  1  0  0  0
 19 20  1  0  0  0
 20 21  2  0  0  0
 20 23  1  0  0  0
 23 24  2  0  0  0
 17 18  2  0  0  0
 10 11  1  0  0  0
 11 12  2  0  0  0
 29 33  1  0  0  0
 33 34  1  0  0  0
 34 35  1  0  0  0
 35 36  1  0  0  0
 36 37  1  0  0  0
 37 38  1  0  0  0
 32 27  1  0  0  0
 12  1  1  0  0  0
 38 33  1  0  0  0
 11  4  1  0  0  0
 18 13  1  0  0  0
 25 26  1  0  0  0
 19 22  1  0  0  0
M  END
> <minimizedAffinity>
-7.65937

> <CNNscore>
0.3904006481

> <CNNaffinity>
7.2937760353

> <CNN_VS>
2.8474948406

> <CNNaffinity_variance>
0.2951569557

$$$$
[H]c1nc(N([H])c2c([H])c([H])c(OC([H])([H])c3nc([H])c([H])c([H])c3[H])c(Cl)c2[H])c2sc(C#C[C@@]3([H])N([H])C([H])([H])[C@]([H])(OC(=O)N4C([H])([H])C([H])([H])OC([H])([H])C4([H])[H])C3([H])[H])c([H])c2n1


 43 48  0  0  0  0  0  0  0  0999 V2000
   -0.3615  -53.4403  -20.3392 C   0  0  0  0  0  0  0  0  0  0  0  0
   -1.2166  -54.3940  -20.7460 N   0  0  0  0  0  0  0  0  0  0  0  0
   -1.4146  -54.5247  -22.0662 C   0  0  0  0  0  0  0  0  0  0  0  0
   -0.8100  -53.7637  -22.9595 N   0  0  0  0  0  0  0  0  0  0  0  0
    0.0743  -52.7710  -22.6252 C   0  0  0  0  0  0  0  0  0  0  0  0
    0.7374  -51.9486  -23.4470 C   0  0  0  0  0  0  0  0  0  0  0  0
    1.5760  -51.0257  -22.8837 C   0  0  0  0  0  0  0  0  0  0  0  0
    1.4093  -51.3398  -21.2148 S   0  0  0  0  0  0  0  0  0  0  0  0
    0.2867  -52.6253  -21.2844 C   0  0  0  0  0  0  0  0  0  0  0  0
   -0.0505  -53.2130  -18.9821 N   0  0  0  0  0  0  0  0  0  0  0  0
    0.9461  -53.5059  -18.6893 H   0  0  0  0  0  0  0  0  0  0  0  0
   -4.3589  -53.1889  -16.1744 Cl  0  0  0  0  0  0  0  0  0  0  0  0
   -2.7862  -52.5385  -16.5787 C   0  0  0  0  0  0  0  0  0  0  0  0
   -2.0546  -53.1225  -17.6243 C   0  0  0  0  0  0  0  0  0  0  0  0
   -0.8366  -52.6612  -17.9764 C   0  0  0  0  0  0  0  0  0  0  0  0
   -0.3088  -51.5663  -17.2642 C   0  0  0  0  0  0  0  0  0  0  0  0
   -1.0116  -50.9751  -16.2316 C   0  0  0  0  0  0  0  0  0  0  0  0
   -2.2533  -51.4605  -15.8855 C   0  0  0  0  0  0  0  0  0  0  0  0
   -2.9978  -50.9146  -14.8701 O   0  0  0  0  0  0  0  0  0  0  0  0
   -3.7622  -49.7534  -14.9015 C   0  0  0  0  0  0  0  0  0  0  0  0
   -3.0292  -48.5418  -14.4373 C   0  0  0  0  0  0  0  0  0  0  0  0
   -2.5855  -47.5722  -15.3006 C   0  0  0  0  0  0  0  0  0  0  0  0
   -1.9196  -46.4820  -14.8317 C   0  0  0  0  0  0  0  0  0  0  0  0
   -1.6794  -46.3322  -13.4875 C   0  0  0  0  0  0  0  0  0  0  0  0
   -2.1518  -47.3439  -12.6684 C   0  0  0  0  0  0  0  0  0  0  0  0
   -2.8075  -48.4188  -13.1230 N   0  0  0  0  0  0  0  0  0  0  0  0
    2.3973  -50.0319  -23.5669 C   0  0  0  0  0  0  0  0  0  0  0  0
    3.0887  -49.2125  -24.1134 C   0  0  0  0  0  0  0  0  0  0  0  0
    3.9485  -48.2330  -24.7790 C   0  0  0  0  0  0  0  0  0  0  0  0
    4.0943  -48.6903  -26.2147 C   0  0  0  0  0  0  0  0  0  0  0  0
    5.5239  -48.2036  -26.4993 C   0  0  0  0  0  0  0  0  0  0  0  0
    6.1991  -48.6912  -25.2279 C   0  0  0  0  0  0  0  0  0  0  0  0
    5.2804  -48.1887  -24.2230 N   0  0  0  0  0  0  0  0  0  0  0  0
    5.3275  -48.7264  -23.3342 H   0  0  0  0  0  0  0  0  0  0  0  0
    5.5854  -46.7933  -26.4524 O   0  0  0  0  0  0  0  0  0  0  0  0
    5.9827  -46.0213  -27.5337 C   0  0  0  0  0  0  0  0  0  0  0  0
    7.2074  -46.0582  -27.8150 O   0  0  0  0  0  0  0  0  0  0  0  0
    5.0458  -45.2456  -28.2627 N   0  0  0  0  0  0  0  0  0  0  0  0
    3.6563  -45.2624  -27.8684 C   0  0  0  0  0  0  0  0  0  0  0  0
    2.7503  -45.5098  -29.0627 C   0  0  0  0  0  0  0  0  0  0  0  0
    3.0993  -44.5509  -30.0212 O   0  0  0  0  0  0  0  0  0  0  0  0
    4.3810  -44.7333  -30.4870 C   0  0  0  0  0  0  0  0  0  0  0  0
    5.4177  -44.4267  -29.3987 C   0  0  0  0  0  0  0  0  0  0  0  0
 12 13  1  0  0  0
 13 14  2  0  0  0
 14 15  1  0  0  0
 15 10  1  0  0  0
 10  1  1  0  0  0
  1  2  2  0  0  0
  2  3  1  0  0  0
  3  4  2  0  0  0
  4  5  1  0  0  0
  5  6  1  0  0  0
  6  7  2  0  0  0
  7  8  1  0  0  0
  8  9  1  0  0  0
  7 27  1  0  0  0
 27 28  3  0  0  0
 28 29  1  0  0  0
 29 30  1  0  0  0
 30 31  1  0  0  0
 31 32  1  0  0  0
 32 33  1  0  0  0
 31 35  1  0  0  0
 35 36  1  0  0  0
 36 37  2  0  0  0
 36 38  1  0  0  0
 38 39  1  0  0  0
 39 40  1  0  0  0
 40 41  1  0  0  0
 41 42  1  0  0  0
 42 43  1  0  0  0
 15 16  2  0  0  0
 16 17  1  0  0  0
 17 18  2  0  0  0
 18 19  1  0  0  0
 19 20  1  0  0  0
 20 21  1  0  0  0
 21 22  2  0  0  0
 22 23  1  0  0  0
 23 24  2  0  0  0
 24 25  1  0  0  0
 25 26  2  0  0  0
 18 13  1  0  0  0
 26 21  1  0  0  0
  9  1  1  0  0  0
 33 29  1  0  0  0
 43 38  1  0  0  0
  9  5  2  0  0  0
 10 11  1  0  0  0
 33 34  1  0  0  0
M  END
> <minimizedAffinity>
-7.72016

> <CNNscore>
0.6588069201

> <CNNaffinity>
7.0902695656

> <CNN_VS>
4.6711187363

> <CNNaffinity_variance>
0.1050156727

$$$$
[H]c1nc(N([H])c2c([H])c([H])c(OC([H])([H])c3nc([H])c([H])c([H])c3[H])c(Cl)c2[H])c2sc(C#C[C@@]3([H])N([H])C([H])([H])[C@]([H])(OC(=O)N4C([H])([H])C([H])([H])OC([H])([H])C4([H])[H])C3([H])[H])c([H])c2n1


 43 48  0  0  0  0  0  0  0  0999 V2000
   -0.0385  -53.9173  -21.5711 C   0  0  0  0  0  0  0  0  0  0  0  0
   -1.0076  -54.8186  -21.8050 N   0  0  0  0  0  0  0  0  0  0  0  0
   -1.4711  -54.9167  -23.0599 C   0  0  0  0  0  0  0  0  0  0  0  0
   -1.0162  -54.1729  -24.0511 N   0  0  0  0  0  0  0  0  0  0  0  0
   -0.0308  -53.2329  -23.8939 C   0  0  0  0  0  0  0  0  0  0  0  0
    0.4988  -52.4321  -24.8264 C   0  0  0  0  0  0  0  0  0  0  0  0
    1.4813  -51.5634  -24.4361 C   0  0  0  0  0  0  0  0  0  0  0  0
    1.6333  -51.8966  -22.7695 S   0  0  0  0  0  0  0  0  0  0  0  0
    0.4516  -53.1211  -22.6215 C   0  0  0  0  0  0  0  0  0  0  0  0
    0.5481  -53.7292  -20.3020 N   0  0  0  0  0  0  0  0  0  0  0  0
    1.3804  -54.3813  -20.0852 H   0  0  0  0  0  0  0  0  0  0  0  0
   -2.4934  -52.2674  -16.4215 Cl  0  0  0  0  0  0  0  0  0  0  0  0
   -1.1071  -52.0258  -17.4606 C   0  0  0  0  0  0  0  0  0  0  0  0
   -0.8414  -52.9613  -18.4723 C   0  0  0  0  0  0  0  0  0  0  0  0
    0.2148  -52.8239  -19.3005 C   0  0  0  0  0  0  0  0  0  0  0  0
    1.0550  -51.7066  -19.1267 C   0  0  0  0  0  0  0  0  0  0  0  0
    0.8124  -50.7724  -18.1377 C   0  0  0  0  0  0  0  0  0  0  0  0
   -0.2702  -50.9300  -17.3009 C   0  0  0  0  0  0  0  0  0  0  0  0
   -0.5619  -50.0355  -16.3017 O   0  0  0  0  0  0  0  0  0  0  0  0
   -0.2868  -50.1534  -14.9438 C   0  0  0  0  0  0  0  0  0  0  0  0
    1.1270  -50.5213  -14.6496 C   0  0  0  0  0  0  0  0  0  0  0  0
    1.4907  -51.7758  -14.2295 C   0  0  0  0  0  0  0  0  0  0  0  0
    2.7948  -52.0671  -13.9721 C   0  0  0  0  0  0  0  0  0  0  0  0
    3.7699  -51.1121  -14.1275 C   0  0  0  0  0  0  0  0  0  0  0  0
    3.3397  -49.8667  -14.5535 C   0  0  0  0  0  0  0  0  0  0  0  0
    2.0587  -49.5735  -14.8085 N   0  0  0  0  0  0  0  0  0  0  0  0
    2.2026  -50.6019  -25.2632 C   0  0  0  0  0  0  0  0  0  0  0  0
    2.8057  -49.7997  -25.9272 C   0  0  0  0  0  0  0  0  0  0  0  0
    3.5610  -48.8335  -26.7257 C   0  0  0  0  0  0  0  0  0  0  0  0
    4.9440  -48.7549  -26.1153 C   0  0  0  0  0  0  0  0  0  0  0  0
    5.2692  -47.2794  -26.3957 C   0  0  0  0  0  0  0  0  0  0  0  0
    3.9531  -46.6580  -25.9577 C   0  0  0  0  0  0  0  0  0  0  0  0
    3.0065  -47.5016  -26.6636 N   0  0  0  0  0  0  0  0  0  0  0  0
    2.0689  -47.5128  -26.2143 H   0  0  0  0  0  0  0  0  0  0  0  0
    5.3613  -47.0483  -27.7860 O   0  0  0  0  0  0  0  0  0  0  0  0
    6.5633  -47.0844  -28.4765 C   0  0  0  0  0  0  0  0  0  0  0  0
    6.9907  -48.2278  -28.7769 O   0  0  0  0  0  0  0  0  0  0  0  0
    7.2505  -45.8902  -28.8124 N   0  0  0  0  0  0  0  0  0  0  0  0
    6.6857  -44.6181  -28.4263 C   0  0  0  0  0  0  0  0  0  0  0  0
    6.6570  -43.6522  -29.5988 C   0  0  0  0  0  0  0  0  0  0  0  0
    7.9632  -43.6109  -30.1009 O   0  0  0  0  0  0  0  0  0  0  0  0
    8.3486  -44.8210  -30.6298 C   0  0  0  0  0  0  0  0  0  0  0  0
    8.5071  -45.8825  -29.5338 C   0  0  0  0  0  0  0  0  0  0  0  0
 12 13  1  0  0  0
 13 14  2  0  0  0
 14 15  1  0  0  0
 15 10  1  0  0  0
 10  1  1  0  0  0
  1  2  2  0  0  0
  2  3  1  0  0  0
  3  4  2  0  0  0
  4  5  1  0  0  0
  5  6  1  0  0  0
  6  7  2  0  0  0
  7  8  1  0  0  0
  8  9  1  0  0  0
  7 27  1  0  0  0
 27 28  3  0  0  0
 28 29  1  0  0  0
 29 30  1  0  0  0
 30 31  1  0  0  0
 31 32  1  0  0  0
 32 33  1  0  0  0
 31 35  1  0  0  0
 35 36  1  0  0  0
 36 37  2  0  0  0
 36 38  1  0  0  0
 38 39  1  0  0  0
 39 40  1  0  0  0
 40 41  1  0  0  0
 41 42  1  0  0  0
 42 43  1  0  0  0
 15 16  2  0  0  0
 16 17  1  0  0  0
 17 18  2  0  0  0
 18 19  1  0  0  0
 19 20  1  0  0  0
 20 21  1  0  0  0
 21 22  2  0  0  0
 22 23  1  0  0  0
 23 24  2  0  0  0
 24 25  1  0  0  0
 25 26  2  0  0  0
 18 13  1  0  0  0
 26 21  1  0  0  0
  9  1  1  0  0  0
 33 29  1  0  0  0
 43 38  1  0  0  0
  9  5  2  0  0  0
 10 11  1  0  0  0
 33 34  1  0  0  0
M  END
> <minimizedAffinity>
-6.99406

> <CNNscore>
0.5602293611

> <CNNaffinity>
7.2731208801

> <CNN_VS>
4.0746159554

> <CNNaffinity_variance>
0.2938963771

$$$$
[H]c1nc(N([H])c2c([H])c([H])c(OC([H])([H])c3nc([H])c([H])c([H])c3[H])c(Cl)c2[H])c2sc(C#C[C@@]3([H])N([H])C([H])([H])[C@]([H])(OC(=O)N4C([H])([H])C([H])([H])OC([H])([H])C4([H])[H])C3([H])[H])c([H])c2n1


 43 48  0  0  0  0  0  0  0  0999 V2000
    0.0467  -53.6607  -21.2594 C   0  0  0  0  0  0  0  0  0  0  0  0
   -0.9334  -54.5588  -21.4571 N   0  0  0  0  0  0  0  0  0  0  0  0
   -1.4147  -54.6848  -22.7027 C   0  0  0  0  0  0  0  0  0  0  0  0
   -0.9667  -53.9710  -23.7188 N   0  0  0  0  0  0  0  0  0  0  0  0
    0.0290  -53.0364  -23.5991 C   0  0  0  0  0  0  0  0  0  0  0  0
    0.5531  -52.2647  -24.5589 C   0  0  0  0  0  0  0  0  0  0  0  0
    1.5484  -51.3954  -24.2042 C   0  0  0  0  0  0  0  0  0  0  0  0
    1.7199  -51.6869  -22.5317 S   0  0  0  0  0  0  0  0  0  0  0  0
    0.5296  -52.8963  -22.3365 C   0  0  0  0  0  0  0  0  0  0  0  0
    0.6520  -53.4454  -20.0035 N   0  0  0  0  0  0  0  0  0  0  0  0
    1.5775  -53.9785  -19.8481 H   0  0  0  0  0  0  0  0  0  0  0  0
   -2.6088  -52.4591  -16.1511 Cl  0  0  0  0  0  0  0  0  0  0  0  0
   -1.1979  -52.0653  -17.1073 C   0  0  0  0  0  0  0  0  0  0  0  0
   -0.8451  -52.9000  -18.1788 C   0  0  0  0  0  0  0  0  0  0  0  0
    0.2336  -52.6433  -18.9474 C   0  0  0  0  0  0  0  0  0  0  0  0
    1.0072  -51.5045  -18.6486 C   0  0  0  0  0  0  0  0  0  0  0  0
    0.6784  -50.6681  -17.5988 C   0  0  0  0  0  0  0  0  0  0  0  0
   -0.4260  -50.9469  -16.8243 C   0  0  0  0  0  0  0  0  0  0  0  0
   -0.8021  -50.1533  -15.7697 O   0  0  0  0  0  0  0  0  0  0  0  0
   -1.8071  -49.1926  -15.7406 C   0  0  0  0  0  0  0  0  0  0  0  0
   -2.8691  -49.4683  -14.7321 C   0  0  0  0  0  0  0  0  0  0  0  0
   -4.2056  -49.4348  -15.0404 C   0  0  0  0  0  0  0  0  0  0  0  0
   -5.1412  -49.6930  -14.0865 C   0  0  0  0  0  0  0  0  0  0  0  0
   -4.7657  -49.9914  -12.7993 C   0  0  0  0  0  0  0  0  0  0  0  0
   -3.4035  -50.0096  -12.5515 C   0  0  0  0  0  0  0  0  0  0  0  0
   -2.4779  -49.7566  -13.4849 N   0  0  0  0  0  0  0  0  0  0  0  0
    2.2669  -50.4621  -25.0654 C   0  0  0  0  0  0  0  0  0  0  0  0
    2.8666  -49.6816  -25.7579 C   0  0  0  0  0  0  0  0  0  0  0  0
    3.6176  -48.7403  -26.5894 C   0  0  0  0  0  0  0  0  0  0  0  0
    4.9164  -48.4624  -25.8631 C   0  0  0  0  0  0  0  0  0  0  0  0
    5.1431  -47.0019  -26.2842 C   0  0  0  0  0  0  0  0  0  0  0  0
    3.7400  -46.4662  -26.0509 C   0  0  0  0  0  0  0  0  0  0  0  0
    2.9487  -47.4694  -26.7391 N   0  0  0  0  0  0  0  0  0  0  0  0
    1.9730  -47.5216  -26.3834 H   0  0  0  0  0  0  0  0  0  0  0  0
    5.3622  -46.9166  -27.6769 O   0  0  0  0  0  0  0  0  0  0  0  0
    6.4430  -46.2454  -28.2286 C   0  0  0  0  0  0  0  0  0  0  0  0
    6.3626  -44.9909  -28.2417 O   0  0  0  0  0  0  0  0  0  0  0  0
    7.5602  -46.9531  -28.7405 N   0  0  0  0  0  0  0  0  0  0  0  0
    7.5677  -48.3964  -28.6848 C   0  0  0  0  0  0  0  0  0  0  0  0
    8.8719  -48.9162  -28.1039 C   0  0  0  0  0  0  0  0  0  0  0  0
    9.8949  -48.3310  -28.8597 O   0  0  0  0  0  0  0  0  0  0  0  0
    9.9372  -46.9655  -28.6965 C   0  0  0  0  0  0  0  0  0  0  0  0
    8.7100  -46.2917  -29.3236 C   0  0  0  0  0  0  0  0  0  0  0  0
 12 13  1  0  0  0
 13 14  2  0  0  0
 14 15  1  0  0  0
 15 10  1  0  0  0
 10  1  1  0  0  0
  1  2  2  0  0  0
  2  3  1  0  0  0
  3  4  2  0  0  0
  4  5  1  0  0  0
  5  6  1  0  0  0
  6  7  2  0  0  0
  7  8  1  0  0  0
  8  9  1  0  0  0
  7 27  1  0  0  0
 27 28  3  0  0  0
 28 29  1  0  0  0
 29 30  1  0  0  0
 30 31  1  0  0  0
 31 32  1  0  0  0
 32 33  1  0  0  0
 31 35  1  0  0  0
 35 36  1  0  0  0
 36 37  2  0  0  0
 36 38  1  0  0  0
 38 39  1  0  0  0
 39 40  1  0  0  0
 40 41  1  0  0  0
 41 42  1  0  0  0
 42 43  1  0  0  0
 15 16  2  0  0  0
 16 17  1  0  0  0
 17 18  2  0  0  0
 18 19  1  0  0  0
 19 20  1  0  0  0
 20 21  1  0  0  0
 21 22  2  0  0  0
 22 23  1  0  0  0
 23 24  2  0  0  0
 24 25  1  0  0  0
 25 26  2  0  0  0
 18 13  1  0  0  0
 26 21  1  0  0  0
  9  1  1  0  0  0
 33 29  1  0  0  0
 43 38  1  0  0  0
  9  5  2  0  0  0
 10 11  1  0  0  0
 33 34  1  0  0  0
M  END
> <minimizedAffinity>
-7.00104

> <CNNscore>
0.5210565925

> <CNNaffinity>
7.1653876305

> <CNN_VS>
3.7335724831

> <CNNaffinity_variance>
0.4324011803

$$$$
[H]c1nc(N([H])c2c([H])c([H])c(OC([H])([H])c3nc([H])c([H])c([H])c3[H])c(Cl)c2[H])c2sc(C#C[C@@]3([H])N([H])C([H])([H])[C@]([H])(OC(=O)N4C([H])([H])C([H])([H])OC([H])([H])C4([H])[H])C3([H])[H])c([H])c2n1


 43 48  0  0  0  0  0  0  0  0999 V2000
   -0.2487  -53.2361  -23.8484 C   0  0  0  0  0  0  0  0  0  0  0  0
   -0.7009  -54.3616  -24.4271 N   0  0  0  0  0  0  0  0  0  0  0  0
   -1.2450  -55.2920  -23.6287 C   0  0  0  0  0  0  0  0  0  0  0  0
   -1.3487  -55.1413  -22.3213 N   0  0  0  0  0  0  0  0  0  0  0  0
   -0.9120  -54.0245  -21.6569 C   0  0  0  0  0  0  0  0  0  0  0  0
   -0.9696  -53.7732  -20.3436 C   0  0  0  0  0  0  0  0  0  0  0  0
   -0.4676  -52.5797  -19.9012 C   0  0  0  0  0  0  0  0  0  0  0  0
    0.0712  -51.8440  -21.3435 S   0  0  0  0  0  0  0  0  0  0  0  0
   -0.3554  -53.0677  -22.4563 C   0  0  0  0  0  0  0  0  0  0  0  0
    0.3261  -52.1732  -24.5764 N   0  0  0  0  0  0  0  0  0  0  0  0
   -0.3548  -51.6504  -25.2306 H   0  0  0  0  0  0  0  0  0  0  0  0
    5.3342  -52.8851  -23.6499 Cl  0  0  0  0  0  0  0  0  0  0  0  0
    3.9994  -51.8952  -24.1963 C   0  0  0  0  0  0  0  0  0  0  0  0
    2.6987  -52.4205  -24.1550 C   0  0  0  0  0  0  0  0  0  0  0  0
    1.6339  -51.7008  -24.5653 C   0  0  0  0  0  0  0  0  0  0  0  0
    1.8582  -50.3938  -25.0408 C   0  0  0  0  0  0  0  0  0  0  0  0
    3.1300  -49.8557  -25.0900 C   0  0  0  0  0  0  0  0  0  0  0  0
    4.2052  -50.6060  -24.6678 C   0  0  0  0  0  0  0  0  0  0  0  0
    5.4905  -50.1255  -24.6925 O   0  0  0  0  0  0  0  0  0  0  0  0
    5.9173  -48.8478  -25.0375 C   0  0  0  0  0  0  0  0  0  0  0  0
    7.0025  -48.8350  -26.0588 C   0  0  0  0  0  0  0  0  0  0  0  0
    6.8774  -48.1836  -27.2598 C   0  0  0  0  0  0  0  0  0  0  0  0
    7.8950  -48.1990  -28.1632 C   0  0  0  0  0  0  0  0  0  0  0  0
    9.0645  -48.8658  -27.8902 C   0  0  0  0  0  0  0  0  0  0  0  0
    9.1292  -49.5031  -26.6625 C   0  0  0  0  0  0  0  0  0  0  0  0
    8.1322  -49.4920  -25.7693 N   0  0  0  0  0  0  0  0  0  0  0  0
   -0.4190  -52.0855  -18.5293 C   0  0  0  0  0  0  0  0  0  0  0  0
   -0.3606  -51.6669  -17.4024 C   0  0  0  0  0  0  0  0  0  0  0  0
   -0.2920  -51.1343  -16.0411 C   0  0  0  0  0  0  0  0  0  0  0  0
    1.1433  -50.7099  -15.8145 C   0  0  0  0  0  0  0  0  0  0  0  0
    1.2690  -51.0077  -14.3121 C   0  0  0  0  0  0  0  0  0  0  0  0
    0.6241  -52.3838  -14.2872 C   0  0  0  0  0  0  0  0  0  0  0  0
   -0.5921  -52.1269  -15.0364 N   0  0  0  0  0  0  0  0  0  0  0  0
   -0.9821  -52.9869  -15.4719 H   0  0  0  0  0  0  0  0  0  0  0  0
    0.4129  -50.1667  -13.5674 O   0  0  0  0  0  0  0  0  0  0  0  0
    0.6252  -48.8025  -13.4373 C   0  0  0  0  0  0  0  0  0  0  0  0
    1.7983  -48.4537  -13.1500 O   0  0  0  0  0  0  0  0  0  0  0  0
   -0.4327  -47.8763  -13.6219 N   0  0  0  0  0  0  0  0  0  0  0  0
   -1.7511  -48.3665  -13.9501 C   0  0  0  0  0  0  0  0  0  0  0  0
   -2.3340  -47.6198  -15.1380 C   0  0  0  0  0  0  0  0  0  0  0  0
   -2.2525  -46.2588  -14.8201 O   0  0  0  0  0  0  0  0  0  0  0  0
   -0.9483  -45.8319  -14.7204 C   0  0  0  0  0  0  0  0  0  0  0  0
   -0.2543  -46.4438  -13.4969 C   0  0  0  0  0  0  0  0  0  0  0  0
 12 13  1  0  0  0
 13 14  2  0  0  0
 14 15  1  0  0  0
 15 10  1  0  0  0
 10  1  1  0  0  0
  1  2  2  0  0  0
  2  3  1  0  0  0
  3  4  2  0  0  0
  4  5  1  0  0  0
  5  6  1  0  0  0
  6  7  2  0  0  0
  7  8  1  0  0  0
  8  9  1  0  0  0
  7 27  1  0  0  0
 27 28  3  0  0  0
 28 29  1  0  0  0
 29 30  1  0  0  0
 30 31  1  0  0  0
 31 32  1  0  0  0
 32 33  1  0  0  0
 31 35  1  0  0  0
 35 36  1  0  0  0
 36 37  2  0  0  0
 36 38  1  0  0  0
 38 39  1  0  0  0
 39 40  1  0  0  0
 40 41  1  0  0  0
 41 42  1  0  0  0
 42 43  1  0  0  0
 15 16  2  0  0  0
 16 17  1  0  0  0
 17 18  2  0  0  0
 18 19  1  0  0  0
 19 20  1  0  0  0
 20 21  1  0  0  0
 21 22  2  0  0  0
 22 23  1  0  0  0
 23 24  2  0  0  0
 24 25  1  0  0  0
 25 26  2  0  0  0
 18 13  1  0  0  0
 26 21  1  0  0  0
  9  1  1  0  0  0
 33 29  1  0  0  0
 43 38  1  0  0  0
  9  5  2  0  0  0
 10 11  1  0  0  0
 33 34  1  0  0  0
M  END
> <minimizedAffinity>
-7.72161

> <CNNscore>
0.4533402622

> <CNNaffinity>
7.1860971451

> <CNN_VS>
3.2577471733

> <CNNaffinity_variance>
0.1180423051

$$$$
[H]c1nc(N([H])c2c([H])c([H])c(OC([H])([H])c3nc([H])c([H])c([H])c3[H])c(Cl)c2[H])c2sc(C#C[C@@]3([H])N([H])C([H])([H])[C@]([H])(OC(=O)N4C([H])([H])C([H])([H])OC([H])([H])C4([H])[H])C3([H])[H])c([H])c2n1


 43 48  0  0  0  0  0  0  0  0999 V2000
   -0.2928  -53.2733  -23.8218 C   0  0  0  0  0  0  0  0  0  0  0  0
   -0.7736  -54.3903  -24.3939 N   0  0  0  0  0  0  0  0  0  0  0  0
   -1.3298  -55.3075  -23.5886 C   0  0  0  0  0  0  0  0  0  0  0  0
   -1.4185  -55.1519  -22.2807 N   0  0  0  0  0  0  0  0  0  0  0  0
   -0.9527  -54.0431  -21.6228 C   0  0  0  0  0  0  0  0  0  0  0  0
   -0.9932  -53.7879  -20.3096 C   0  0  0  0  0  0  0  0  0  0  0  0
   -0.4625  -52.6042  -19.8744 C   0  0  0  0  0  0  0  0  0  0  0  0
    0.0784  -51.8829  -21.3231 S   0  0  0  0  0  0  0  0  0  0  0  0
   -0.3835  -53.0998  -22.4292 C   0  0  0  0  0  0  0  0  0  0  0  0
    0.2973  -52.2241  -24.5574 N   0  0  0  0  0  0  0  0  0  0  0  0
   -0.3788  -51.6871  -25.2050 H   0  0  0  0  0  0  0  0  0  0  0  0
    3.7590  -48.4741  -23.9248 Cl  0  0  0  0  0  0  0  0  0  0  0  0
    3.3428  -50.1350  -24.2829 C   0  0  0  0  0  0  0  0  0  0  0  0
    1.9914  -50.5130  -24.2922 C   0  0  0  0  0  0  0  0  0  0  0  0
    1.6152  -51.7805  -24.5609 C   0  0  0  0  0  0  0  0  0  0  0  0
    2.6205  -52.7280  -24.8367 C   0  0  0  0  0  0  0  0  0  0  0  0
    3.9574  -52.3784  -24.8337 C   0  0  0  0  0  0  0  0  0  0  0  0
    4.3225  -51.0796  -24.5561 C   0  0  0  0  0  0  0  0  0  0  0  0
    5.6332  -50.6732  -24.5392 O   0  0  0  0  0  0  0  0  0  0  0  0
    6.6593  -51.1350  -23.7220 C   0  0  0  0  0  0  0  0  0  0  0  0
    6.8812  -50.2975  -22.5095 C   0  0  0  0  0  0  0  0  0  0  0  0
    8.0366  -49.5861  -22.3057 C   0  0  0  0  0  0  0  0  0  0  0  0
    8.1960  -48.8344  -21.1826 C   0  0  0  0  0  0  0  0  0  0  0  0
    7.2048  -48.7739  -20.2334 C   0  0  0  0  0  0  0  0  0  0  0  0
    6.0641  -49.5134  -20.4967 C   0  0  0  0  0  0  0  0  0  0  0  0
    5.9007  -50.2548  -21.5992 N   0  0  0  0  0  0  0  0  0  0  0  0
   -0.3914  -52.1083  -18.5040 C   0  0  0  0  0  0  0  0  0  0  0  0
   -0.3338  -51.6787  -17.3814 C   0  0  0  0  0  0  0  0  0  0  0  0
   -0.2869  -51.1461  -16.0191 C   0  0  0  0  0  0  0  0  0  0  0  0
    1.1381  -50.6945  -15.7800 C   0  0  0  0  0  0  0  0  0  0  0  0
    1.2567  -50.9913  -14.2768 C   0  0  0  0  0  0  0  0  0  0  0  0
    0.6381  -52.3795  -14.2585 C   0  0  0  0  0  0  0  0  0  0  0  0
   -0.5764  -52.1453  -15.0177 N   0  0  0  0  0  0  0  0  0  0  0  0
   -0.9461  -53.0121  -15.4572 H   0  0  0  0  0  0  0  0  0  0  0  0
    0.3784  -50.1675  -13.5388 O   0  0  0  0  0  0  0  0  0  0  0  0
    0.5845  -48.8062  -13.3734 C   0  0  0  0  0  0  0  0  0  0  0  0
    1.7458  -48.4630  -13.0361 O   0  0  0  0  0  0  0  0  0  0  0  0
   -0.4668  -47.8767  -13.5780 N   0  0  0  0  0  0  0  0  0  0  0  0
   -1.7718  -48.3605  -13.9643 C   0  0  0  0  0  0  0  0  0  0  0  0
   -2.3113  -47.5900  -15.1575 C   0  0  0  0  0  0  0  0  0  0  0  0
   -2.2428  -46.2357  -14.8094 O   0  0  0  0  0  0  0  0  0  0  0  0
   -0.9437  -45.8106  -14.6532 C   0  0  0  0  0  0  0  0  0  0  0  0
   -0.2945  -46.4470  -13.4176 C   0  0  0  0  0  0  0  0  0  0  0  0
 12 13  1  0  0  0
 13 14  2  0  0  0
 14 15  1  0  0  0
 15 10  1  0  0  0
 10  1  1  0  0  0
  1  2  2  0  0  0
  2  3  1  0  0  0
  3  4  2  0  0  0
  4  5  1  0  0  0
  5  6  1  0  0  0
  6  7  2  0  0  0
  7  8  1  0  0  0
  8  9  1  0  0  0
  7 27  1  0  0  0
 27 28  3  0  0  0
 28 29  1  0  0  0
 29 30  1  0  0  0
 30 31  1  0  0  0
 31 32  1  0  0  0
 32 33  1  0  0  0
 31 35  1  0  0  0
 35 36  1  0  0  0
 36 37  2  0  0  0
 36 38  1  0  0  0
 38 39  1  0  0  0
 39 40  1  0  0  0
 40 41  1  0  0  0
 41 42  1  0  0  0
 42 43  1  0  0  0
 15 16  2  0  0  0
 16 17  1  0  0  0
 17 18  2  0  0  0
 18 19  1  0  0  0
 19 20  1  0  0  0
 20 21  1  0  0  0
 21 22  2  0  0  0
 22 23  1  0  0  0
 23 24  2  0  0  0
 24 25  1  0  0  0
 25 26  2  0  0  0
 18 13  1  0  0  0
 26 21  1  0  0  0
  9  1  1  0  0  0
 33 29  1  0  0  0
 43 38  1  0  0  0
  9  5  2  0  0  0
 10 11  1  0  0  0
 33 34  1  0  0  0
M  END
> <minimizedAffinity>
-7.96836

> <CNNscore>
0.4188968539

> <CNNaffinity>
7.3975281715

> <CNN_VS>
3.0988013744

> <CNNaffinity_variance>
0.1328765452

$$$$
[H]c1nc(N([H])c2c([H])c([H])c(OC([H])([H])c3nc([H])c([H])c([H])c3[H])c(Cl)c2[H])c2sc(C#C[C@@]3([H])N([H])C([H])([H])[C@]([H])(OC(=O)N4C([H])([H])C([H])([H])OC([H])([H])C4([H])[H])C3([H])[H])c([H])c2n1


 43 48  0  0  0  0  0  0  0  0999 V2000
   -0.2601  -53.5142  -23.9561 C   0  0  0  0  0  0  0  0  0  0  0  0
   -0.8634  -54.6573  -24.3242 N   0  0  0  0  0  0  0  0  0  0  0  0
   -1.4101  -55.4076  -23.3560 C   0  0  0  0  0  0  0  0  0  0  0  0
   -1.3758  -55.0669  -22.0811 N   0  0  0  0  0  0  0  0  0  0  0  0
   -0.7805  -53.9189  -21.6260 C   0  0  0  0  0  0  0  0  0  0  0  0
   -0.6910  -53.4830  -20.3638 C   0  0  0  0  0  0  0  0  0  0  0  0
   -0.0452  -52.2969  -20.1442 C   0  0  0  0  0  0  0  0  0  0  0  0
    0.4180  -51.8274  -21.7180 S   0  0  0  0  0  0  0  0  0  0  0  0
   -0.2191  -53.1441  -22.6000 C   0  0  0  0  0  0  0  0  0  0  0  0
    0.3354  -52.6268  -24.8769 N   0  0  0  0  0  0  0  0  0  0  0  0
   -0.2963  -52.3380  -25.7030 H   0  0  0  0  0  0  0  0  0  0  0  0
    3.4357  -48.5466  -25.3090 Cl  0  0  0  0  0  0  0  0  0  0  0  0
    3.1741  -50.2531  -25.0269 C   0  0  0  0  0  0  0  0  0  0  0  0
    1.8668  -50.7606  -25.0788 C   0  0  0  0  0  0  0  0  0  0  0  0
    1.6088  -52.0680  -24.8678 C   0  0  0  0  0  0  0  0  0  0  0  0
    2.6934  -52.9237  -24.5922 C   0  0  0  0  0  0  0  0  0  0  0  0
    3.9890  -52.4461  -24.5368 C   0  0  0  0  0  0  0  0  0  0  0  0
    4.2329  -51.1080  -24.7538 C   0  0  0  0  0  0  0  0  0  0  0  0
    5.4974  -50.5763  -24.7123 O   0  0  0  0  0  0  0  0  0  0  0  0
    6.5155  -50.8654  -23.8103 C   0  0  0  0  0  0  0  0  0  0  0  0
    7.5692  -49.8139  -23.7403 C   0  0  0  0  0  0  0  0  0  0  0  0
    7.9458  -49.2244  -22.5601 C   0  0  0  0  0  0  0  0  0  0  0  0
    8.9132  -48.2674  -22.5437 C   0  0  0  0  0  0  0  0  0  0  0  0
    9.5297  -47.8743  -23.7067 C   0  0  0  0  0  0  0  0  0  0  0  0
    9.1059  -48.5061  -24.8637 C   0  0  0  0  0  0  0  0  0  0  0  0
    8.1550  -49.4481  -24.8869 N   0  0  0  0  0  0  0  0  0  0  0  0
    0.1768  -51.6244  -18.8685 C   0  0  0  0  0  0  0  0  0  0  0  0
    0.3741  -51.0562  -17.8262 C   0  0  0  0  0  0  0  0  0  0  0  0
    0.6047  -50.3438  -16.5688 C   0  0  0  0  0  0  0  0  0  0  0  0
    1.3955  -49.1003  -16.9149 C   0  0  0  0  0  0  0  0  0  0  0  0
    2.2412  -48.9658  -15.6388 C   0  0  0  0  0  0  0  0  0  0  0  0
    2.6805  -50.4133  -15.4905 C   0  0  0  0  0  0  0  0  0  0  0  0
    1.4098  -51.0988  -15.6378 N   0  0  0  0  0  0  0  0  0  0  0  0
    1.5210  -52.0817  -15.9585 H   0  0  0  0  0  0  0  0  0  0  0  0
    1.4165  -48.6966  -14.5243 O   0  0  0  0  0  0  0  0  0  0  0  0
    1.0568  -47.4114  -14.1476 C   0  0  0  0  0  0  0  0  0  0  0  0
    1.7578  -46.4827  -14.6233 O   0  0  0  0  0  0  0  0  0  0  0  0
   -0.0394  -47.1837  -13.2773 N   0  0  0  0  0  0  0  0  0  0  0  0
   -0.7901  -48.3118  -12.7771 C   0  0  0  0  0  0  0  0  0  0  0  0
   -2.2837  -48.1005  -12.9585 C   0  0  0  0  0  0  0  0  0  0  0  0
   -2.5764  -46.8650  -12.3687 O   0  0  0  0  0  0  0  0  0  0  0  0
   -1.9734  -45.8226  -13.0340 C   0  0  0  0  0  0  0  0  0  0  0  0
   -0.4498  -45.8582  -12.8599 C   0  0  0  0  0  0  0  0  0  0  0  0
 12 13  1  0  0  0
 13 14  2  0  0  0
 14 15  1  0  0  0
 15 10  1  0  0  0
 10  1  1  0  0  0
  1  2  2  0  0  0
  2  3  1  0  0  0
  3  4  2  0  0  0
  4  5  1  0  0  0
  5  6  1  0  0  0
  6  7  2  0  0  0
  7  8  1  0  0  0
  8  9  1  0  0  0
  7 27  1  0  0  0
 27 28  3  0  0  0
 28 29  1  0  0  0
 29 30  1  0  0  0
 30 31  1  0  0  0
 31 32  1  0  0  0
 32 33  1  0  0  0
 31 35  1  0  0  0
 35 36  1  0  0  0
 36 37  2  0  0  0
 36 38  1  0  0  0
 38 39  1  0  0  0
 39 40  1  0  0  0
 40 41  1  0  0  0
 41 42  1  0  0  0
 42 43  1  0  0  0
 15 16  2  0  0  0
 16 17  1  0  0  0
 17 18  2  0  0  0
 18 19  1  0  0  0
 19 20  1  0  0  0
 20 21  1  0  0  0
 21 22  2  0  0  0
 22 23  1  0  0  0
 23 24  2  0  0  0
 24 25  1  0  0  0
 25 26  2  0  0  0
 18 13  1  0  0  0
 26 21  1  0  0  0
  9  1  1  0  0  0
 33 29  1  0  0  0
 43 38  1  0  0  0
  9  5  2  0  0  0
 10 11  1  0  0  0
 33 34  1  0  0  0
M  END
> <minimizedAffinity>
-7.51402

> <CNNscore>
0.3555766046

> <CNNaffinity>
7.0739121437

> <CNN_VS>
2.5153176785

> <CNNaffinity_variance>
0.0602793284

$$$$
[H]c1nc(N([H])c2c([H])c([H])c(OC([H])([H])c3nc([H])c([H])c([H])c3[H])c(Cl)c2[H])c2sc(C#C[C@@]3([H])N([H])C([H])([H])[C@]([H])(OC(=O)N4C([H])([H])C([H])([H])OC([H])([H])C4([H])[H])C3([H])[H])c([H])c2n1


 43 48  0  0  0  0  0  0  0  0999 V2000
   -0.3224  -53.4794  -23.9909 C   0  0  0  0  0  0  0  0  0  0  0  0
   -0.9796  -54.5878  -24.3728 N   0  0  0  0  0  0  0  0  0  0  0  0
   -1.5597  -55.3242  -23.4134 C   0  0  0  0  0  0  0  0  0  0  0  0
   -1.5072  -55.0027  -22.1342 N   0  0  0  0  0  0  0  0  0  0  0  0
   -0.8577  -53.8903  -21.6653 C   0  0  0  0  0  0  0  0  0  0  0  0
   -0.7456  -53.4760  -20.3976 C   0  0  0  0  0  0  0  0  0  0  0  0
   -0.0441  -52.3247  -20.1637 C   0  0  0  0  0  0  0  0  0  0  0  0
    0.4382  -51.8566  -21.7322 S   0  0  0  0  0  0  0  0  0  0  0  0
   -0.2619  -53.1298  -22.6302 C   0  0  0  0  0  0  0  0  0  0  0  0
    0.3129  -52.6089  -24.9012 N   0  0  0  0  0  0  0  0  0  0  0  0
   -0.2879  -52.3233  -25.7512 H   0  0  0  0  0  0  0  0  0  0  0  0
    3.4530  -48.5419  -25.1142 Cl  0  0  0  0  0  0  0  0  0  0  0  0
    3.1738  -50.2574  -24.9161 C   0  0  0  0  0  0  0  0  0  0  0  0
    1.8625  -50.7497  -25.0020 C   0  0  0  0  0  0  0  0  0  0  0  0
    1.5911  -52.0632  -24.8557 C   0  0  0  0  0  0  0  0  0  0  0  0
    2.6657  -52.9411  -24.6132 C   0  0  0  0  0  0  0  0  0  0  0  0
    3.9650  -52.4789  -24.5253 C   0  0  0  0  0  0  0  0  0  0  0  0
    4.2227  -51.1343  -24.6762 C   0  0  0  0  0  0  0  0  0  0  0  0
    5.4916  -50.6171  -24.5998 O   0  0  0  0  0  0  0  0  0  0  0  0
    6.2651  -50.4188  -23.4613 C   0  0  0  0  0  0  0  0  0  0  0  0
    5.4738  -50.0246  -22.2616 C   0  0  0  0  0  0  0  0  0  0  0  0
    5.0117  -50.9394  -21.3496 C   0  0  0  0  0  0  0  0  0  0  0  0
    4.2922  -50.5337  -20.2681 C   0  0  0  0  0  0  0  0  0  0  0  0
    4.0154  -49.2029  -20.0697 C   0  0  0  0  0  0  0  0  0  0  0  0
    4.5088  -48.3298  -21.0246 C   0  0  0  0  0  0  0  0  0  0  0  0
    5.2172  -48.7220  -22.0906 N   0  0  0  0  0  0  0  0  0  0  0  0
    0.2114  -51.6805  -18.8797 C   0  0  0  0  0  0  0  0  0  0  0  0
    0.4334  -51.1335  -17.8310 C   0  0  0  0  0  0  0  0  0  0  0  0
    0.6904  -50.4480  -16.5639 C   0  0  0  0  0  0  0  0  0  0  0  0
   -0.3513  -50.9448  -15.5843 C   0  0  0  0  0  0  0  0  0  0  0  0
   -0.5379  -49.6765  -14.7369 C   0  0  0  0  0  0  0  0  0  0  0  0
   -0.6353  -48.6537  -15.8570 C   0  0  0  0  0  0  0  0  0  0  0  0
    0.5195  -49.0172  -16.6573 N   0  0  0  0  0  0  0  0  0  0  0  0
    0.4273  -48.7205  -17.6496 H   0  0  0  0  0  0  0  0  0  0  0  0
    0.6495  -49.3698  -14.0364 O   0  0  0  0  0  0  0  0  0  0  0  0
    0.8043  -48.2122  -13.2888 C   0  0  0  0  0  0  0  0  0  0  0  0
   -0.1250  -47.9492  -12.4840 O   0  0  0  0  0  0  0  0  0  0  0  0
    1.9504  -47.3909  -13.4403 N   0  0  0  0  0  0  0  0  0  0  0  0
    2.9700  -47.7699  -14.3905 C   0  0  0  0  0  0  0  0  0  0  0  0
    4.3519  -47.7220  -13.7606 C   0  0  0  0  0  0  0  0  0  0  0  0
    4.4823  -46.4433  -13.2056 O   0  0  0  0  0  0  0  0  0  0  0  0
    3.5985  -46.2399  -12.1710 C   0  0  0  0  0  0  0  0  0  0  0  0
    2.1525  -46.1748  -12.6788 C   0  0  0  0  0  0  0  0  0  0  0  0
 12 13  1  0  0  0
 13 14  2  0  0  0
 14 15  1  0  0  0
 15 10  1  0  0  0
 10  1  1  0  0  0
  1  2  2  0  0  0
  2  3  1  0  0  0
  3  4  2  0  0  0
  4  5  1  0  0  0
  5  6  1  0  0  0
  6  7  2  0  0  0
  7  8  1  0  0  0
  8  9  1  0  0  0
  7 27  1  0  0  0
 27 28  3  0  0  0
 28 29  1  0  0  0
 29 30  1  0  0  0
 30 31  1  0  0  0
 31 32  1  0  0  0
 32 33  1  0  0  0
 31 35  1  0  0  0
 35 36  1  0  0  0
 36 37  2  0  0  0
 36 38  1  0  0  0
 38 39  1  0  0  0
 39 40  1  0  0  0
 40 41  1  0  0  0
 41 42  1  0  0  0
 42 43  1  0  0  0
 15 16  2  0  0  0
 16 17  1  0  0  0
 17 18  2  0  0  0
 18 19  1  0  0  0
 19 20  1  0  0  0
 20 21  1  0  0  0
 21 22  2  0  0  0
 22 23  1  0  0  0
 23 24  2  0  0  0
 24 25  1  0  0  0
 25 26  2  0  0  0
 18 13  1  0  0  0
 26 21  1  0  0  0
  9  1  1  0  0  0
 33 29  1  0  0  0
 43 38  1  0  0  0
  9  5  2  0  0  0
 10 11  1  0  0  0
 33 34  1  0  0  0
M  END
> <minimizedAffinity>
-7.44050

> <CNNscore>
0.3437691331

> <CNNaffinity>
7.1930708885

> <CNN_VS>
2.4727556705

> <CNNaffinity_variance>
0.1654214710

$$$$
[H]c1nc(N([H])c2c([H])c([H])c(OC([H])([H])c3nc([H])c([H])c([H])c3[H])c(Cl)c2[H])c2sc(C#C[C@@]3([H])N([H])C([H])([H])[C@]([H])(OC(=O)N4C([H])([H])C([H])([H])OC([H])([H])C4([H])[H])C3([H])[H])c([H])c2n1


 43 48  0  0  0  0  0  0  0  0999 V2000
   -0.1810  -53.5124  -24.0074 C   0  0  0  0  0  0  0  0  0  0  0  0
   -0.8213  -54.6470  -24.3370 N   0  0  0  0  0  0  0  0  0  0  0  0
   -1.3991  -55.3415  -23.3455 C   0  0  0  0  0  0  0  0  0  0  0  0
   -1.3600  -54.9551  -22.0839 N   0  0  0  0  0  0  0  0  0  0  0  0
   -0.7280  -53.8121  -21.6676 C   0  0  0  0  0  0  0  0  0  0  0  0
   -0.6304  -53.3329  -20.4217 C   0  0  0  0  0  0  0  0  0  0  0  0
    0.0549  -52.1623  -20.2417 C   0  0  0  0  0  0  0  0  0  0  0  0
    0.5426  -51.7678  -21.8286 S   0  0  0  0  0  0  0  0  0  0  0  0
   -0.1347  -53.0937  -22.6657 C   0  0  0  0  0  0  0  0  0  0  0  0
    0.4500  -52.6808  -24.9563 N   0  0  0  0  0  0  0  0  0  0  0  0
   -0.1195  -52.5051  -25.8562 H   0  0  0  0  0  0  0  0  0  0  0  0
    5.5326  -52.8722  -24.1974 Cl  0  0  0  0  0  0  0  0  0  0  0  0
    4.0700  -51.9940  -24.5843 C   0  0  0  0  0  0  0  0  0  0  0  0
    2.8463  -52.6807  -24.6015 C   0  0  0  0  0  0  0  0  0  0  0  0
    1.6889  -52.0523  -24.8946 C   0  0  0  0  0  0  0  0  0  0  0  0
    1.7354  -50.6747  -25.1853 C   0  0  0  0  0  0  0  0  0  0  0  0
    2.9288  -49.9780  -25.1736 C   0  0  0  0  0  0  0  0  0  0  0  0
    4.1006  -50.6367  -24.8732 C   0  0  0  0  0  0  0  0  0  0  0  0
    5.3151  -49.9983  -24.8456 O   0  0  0  0  0  0  0  0  0  0  0  0
    5.9574  -49.4332  -23.7493 C   0  0  0  0  0  0  0  0  0  0  0  0
    5.1163  -49.3904  -22.5198 C   0  0  0  0  0  0  0  0  0  0  0  0
    5.1619  -50.3703  -21.5606 C   0  0  0  0  0  0  0  0  0  0  0  0
    4.3749  -50.2900  -20.4532 C   0  0  0  0  0  0  0  0  0  0  0  0
    3.5216  -49.2284  -20.2755 C   0  0  0  0  0  0  0  0  0  0  0  0
    3.5215  -48.2731  -21.2780 C   0  0  0  0  0  0  0  0  0  0  0  0
    4.2929  -48.3458  -22.3696 N   0  0  0  0  0  0  0  0  0  0  0  0
    0.2929  -51.4509  -18.9903 C   0  0  0  0  0  0  0  0  0  0  0  0
    0.4940  -50.8832  -17.9484 C   0  0  0  0  0  0  0  0  0  0  0  0
    0.7628  -50.2006  -16.6822 C   0  0  0  0  0  0  0  0  0  0  0  0
    1.8567  -49.1913  -16.9585 C   0  0  0  0  0  0  0  0  0  0  0  0
    2.5806  -49.2141  -15.6031 C   0  0  0  0  0  0  0  0  0  0  0  0
    2.6463  -50.7180  -15.3934 C   0  0  0  0  0  0  0  0  0  0  0  0
    1.2699  -51.0900  -15.6639 N   0  0  0  0  0  0  0  0  0  0  0  0
    1.1750  -52.0822  -15.9600 H   0  0  0  0  0  0  0  0  0  0  0  0
    1.7383  -48.7185  -14.5835 O   0  0  0  0  0  0  0  0  0  0  0  0
    1.5289  -47.3640  -14.3728 C   0  0  0  0  0  0  0  0  0  0  0  0
    2.5591  -46.6436  -14.3621 O   0  0  0  0  0  0  0  0  0  0  0  0
    0.2223  -46.8463  -14.1833 N   0  0  0  0  0  0  0  0  0  0  0  0
   -0.9054  -47.7483  -14.2104 C   0  0  0  0  0  0  0  0  0  0  0  0
   -2.0015  -47.2287  -15.1255 C   0  0  0  0  0  0  0  0  0  0  0  0
   -2.2764  -45.9233  -14.7011 O   0  0  0  0  0  0  0  0  0  0  0  0
   -1.2044  -45.0833  -14.8964 C   0  0  0  0  0  0  0  0  0  0  0  0
   -0.0411  -45.4388  -13.9618 C   0  0  0  0  0  0  0  0  0  0  0  0
 12 13  1  0  0  0
 13 14  2  0  0  0
 14 15  1  0  0  0
 15 10  1  0  0  0
 10  1  1  0  0  0
  1  2  2  0  0  0
  2  3  1  0  0  0
  3  4  2  0  0  0
  4  5  1  0  0  0
  5  6  1  0  0  0
  6  7  2  0  0  0
  7  8  1  0  0  0
  8  9  1  0  0  0
  7 27  1  0  0  0
 27 28  3  0  0  0
 28 29  1  0  0  0
 29 30  1  0  0  0
 30 31  1  0  0  0
 31 32  1  0  0  0
 32 33  1  0  0  0
 31 35  1  0  0  0
 35 36  1  0  0  0
 36 37  2  0  0  0
 36 38  1  0  0  0
 38 39  1  0  0  0
 39 40  1  0  0  0
 40 41  1  0  0  0
 41 42  1  0  0  0
 42 43  1  0  0  0
 15 16  2  0  0  0
 16 17  1  0  0  0
 17 18  2  0  0  0
 18 19  1  0  0  0
 19 20  1  0  0  0
 20 21  1  0  0  0
 21 22  2  0  0  0
 22 23  1  0  0  0
 23 24  2  0  0  0
 24 25  1  0  0  0
 25 26  2  0  0  0
 18 13  1  0  0  0
 26 21  1  0  0  0
  9  1  1  0  0  0
 33 29  1  0  0  0
 43 38  1  0  0  0
  9  5  2  0  0  0
 10 11  1  0  0  0
 33 34  1  0  0  0
M  END
> <minimizedAffinity>
-7.40321

> <CNNscore>
0.2969478071

> <CNNaffinity>
7.2643179893

> <CNN_VS>
2.1571233273

> <CNNaffinity_variance>
0.1641939580

$$$$
[H]c1nc(N([H])c2c([H])c([H])c(OC([H])([H])c3nc([H])c([H])c([H])c3[H])c(Cl)c2[H])c2sc(C#C[C@@]3([H])N([H])C([H])([H])[C@]([H])(OC(=O)N4C([H])([H])C([H])([H])OC([H])([H])C4([H])[H])C3([H])[H])c([H])c2n1


 43 48  0  0  0  0  0  0  0  0999 V2000
   -0.0213  -51.9063  -18.0123 C   0  0  0  0  0  0  0  0  0  0  0  0
   -0.9773  -51.5605  -17.1333 N   0  0  0  0  0  0  0  0  0  0  0  0
   -0.7622  -50.4697  -16.3830 C   0  0  0  0  0  0  0  0  0  0  0  0
    0.3342  -49.7405  -16.4779 N   0  0  0  0  0  0  0  0  0  0  0  0
    1.3537  -50.0269  -17.3484 C   0  0  0  0  0  0  0  0  0  0  0  0
    2.4993  -49.3571  -17.5229 C   0  0  0  0  0  0  0  0  0  0  0  0
    3.3780  -49.8316  -18.4583 C   0  0  0  0  0  0  0  0  0  0  0  0
    2.5694  -51.2056  -19.0666 S   0  0  0  0  0  0  0  0  0  0  0  0
    1.1496  -51.1349  -18.1196 C   0  0  0  0  0  0  0  0  0  0  0  0
   -0.1328  -53.0182  -18.8734 N   0  0  0  0  0  0  0  0  0  0  0  0
   -0.0968  -53.9785  -18.3821 H   0  0  0  0  0  0  0  0  0  0  0  0
   -1.1458  -55.6095  -23.1984 Cl  0  0  0  0  0  0  0  0  0  0  0  0
   -0.7612  -54.1288  -22.3499 C   0  0  0  0  0  0  0  0  0  0  0  0
   -0.5863  -54.1657  -20.9580 C   0  0  0  0  0  0  0  0  0  0  0  0
   -0.2899  -53.0532  -20.2546 C   0  0  0  0  0  0  0  0  0  0  0  0
   -0.1569  -51.8388  -20.9561 C   0  0  0  0  0  0  0  0  0  0  0  0
   -0.3241  -51.7789  -22.3265 C   0  0  0  0  0  0  0  0  0  0  0  0
   -0.6274  -52.9249  -23.0278 C   0  0  0  0  0  0  0  0  0  0  0  0
   -0.8044  -52.9275  -24.3887 O   0  0  0  0  0  0  0  0  0  0  0  0
   -0.2573  -52.0537  -25.3220 C   0  0  0  0  0  0  0  0  0  0  0  0
   -0.6959  -52.3213  -26.7209 C   0  0  0  0  0  0  0  0  0  0  0  0
    0.1927  -52.5279  -27.7456 C   0  0  0  0  0  0  0  0  0  0  0  0
   -0.2533  -52.7687  -29.0086 C   0  0  0  0  0  0  0  0  0  0  0  0
   -1.5991  -52.8092  -29.2807 C   0  0  0  0  0  0  0  0  0  0  0  0
   -2.4442  -52.5931  -28.2052 C   0  0  0  0  0  0  0  0  0  0  0  0
   -2.0123  -52.3558  -26.9605 N   0  0  0  0  0  0  0  0  0  0  0  0
    4.6775  -49.2780  -18.8238 C   0  0  0  0  0  0  0  0  0  0  0  0
    5.7439  -48.8026  -19.1153 C   0  0  0  0  0  0  0  0  0  0  0  0
    7.0463  -48.2223  -19.4451 C   0  0  0  0  0  0  0  0  0  0  0  0
    7.5145  -48.9029  -20.7135 C   0  0  0  0  0  0  0  0  0  0  0  0
    9.0312  -48.9002  -20.4661 C   0  0  0  0  0  0  0  0  0  0  0  0
    9.0380  -49.3761  -19.0226 C   0  0  0  0  0  0  0  0  0  0  0  0
    8.0481  -48.4889  -18.4400 N   0  0  0  0  0  0  0  0  0  0  0  0
    7.6139  -48.8838  -17.5816 H   0  0  0  0  0  0  0  0  0  0  0  0
    9.5260  -47.5776  -20.4389 O   0  0  0  0  0  0  0  0  0  0  0  0
    9.6693  -46.8044  -21.5811 C   0  0  0  0  0  0  0  0  0  0  0  0
   10.3321  -47.3219  -22.5156 O   0  0  0  0  0  0  0  0  0  0  0  0
    9.0939  -45.5111  -21.6663 N   0  0  0  0  0  0  0  0  0  0  0  0
    8.3479  -44.9948  -20.5424 C   0  0  0  0  0  0  0  0  0  0  0  0
    7.0038  -44.4408  -20.9842 C   0  0  0  0  0  0  0  0  0  0  0  0
    7.2779  -43.5236  -22.0058 O   0  0  0  0  0  0  0  0  0  0  0  0
    7.8073  -44.1366  -23.1179 C   0  0  0  0  0  0  0  0  0  0  0  0
    9.2180  -44.6711  -22.8404 C   0  0  0  0  0  0  0  0  0  0  0  0
 12 13  1  0  0  0
 13 14  2  0  0  0
 14 15  1  0  0  0
 15 10  1  0  0  0
 10  1  1  0  0  0
  1  2  2  0  0  0
  2  3  1  0  0  0
  3  4  2  0  0  0
  4  5  1  0  0  0
  5  6  1  0  0  0
  6  7  2  0  0  0
  7  8  1  0  0  0
  8  9  1  0  0  0
  7 27  1  0  0  0
 27 28  3  0  0  0
 28 29  1  0  0  0
 29 30  1  0  0  0
 30 31  1  0  0  0
 31 32  1  0  0  0
 32 33  1  0  0  0
 31 35  1  0  0  0
 35 36  1  0  0  0
 36 37  2  0  0  0
 36 38  1  0  0  0
 38 39  1  0  0  0
 39 40  1  0  0  0
 40 41  1  0  0  0
 41 42  1  0  0  0
 42 43  1  0  0  0
 15 16  2  0  0  0
 16 17  1  0  0  0
 17 18  2  0  0  0
 18 19  1  0  0  0
 19 20  1  0  0  0
 20 21  1  0  0  0
 21 22  2  0  0  0
 22 23  1  0  0  0
 23 24  2  0  0  0
 24 25  1  0  0  0
 25 26  2  0  0  0
 18 13  1  0  0  0
 26 21  1  0  0  0
  9  1  1  0  0  0
 33 29  1  0  0  0
 43 38  1  0  0  0
  9  5  2  0  0  0
 10 11  1  0  0  0
 33 34  1  0  0  0
M  END
> <minimizedAffinity>
-7.91053

> <CNNscore>
0.2645987570

> <CNNaffinity>
6.7890586853

> <CNN_VS>
1.7963764668

> <CNNaffinity_variance>
0.0803626999

$$$$
[H]C([H])=C([H])C(=O)N([H])c1c(OC([H])([H])C([H])([H])N([H])C(=O)C([H])([H])N(C([H])([H])[H])C([H])([H])[H])c([H])c2nc([H])nc(N([H])c3c([H])c([H])c(Br)c(Cl)c3F)c2c1[H]


 38 40  0  0  0  0  0  0  0  0999 V2000
   -0.5482  -52.7246  -19.0146 C   0  0  0  0  0  0  0  0  0  0  0  0
   -1.0881  -53.7084  -19.8193 C   0  0  0  0  0  0  0  0  0  0  0  0
   -0.9464  -53.8007  -21.1694 C   0  0  0  0  0  0  0  0  0  0  0  0
   -1.5234  -54.8206  -21.8710 N   0  0  0  0  0  0  0  0  0  0  0  0
   -1.3752  -54.9023  -23.2020 C   0  0  0  0  0  0  0  0  0  0  0  0
   -0.6566  -53.9731  -23.8269 N   0  0  0  0  0  0  0  0  0  0  0  0
   -0.0602  -52.9395  -23.1921 C   0  0  0  0  0  0  0  0  0  0  0  0
   -0.2028  -52.8364  -21.8037 C   0  0  0  0  0  0  0  0  0  0  0  0
    0.3729  -51.8146  -21.0707 C   0  0  0  0  0  0  0  0  0  0  0  0
    0.2160  -51.7393  -19.6929 C   0  0  0  0  0  0  0  0  0  0  0  0
    0.7716  -50.7233  -18.8914 N   0  0  0  0  0  0  0  0  0  0  0  0
    2.0438  -50.6396  -18.3592 C   0  0  0  0  0  0  0  0  0  0  0  0
    2.9319  -51.4778  -18.5074 O   0  0  0  0  0  0  0  0  0  0  0  0
    0.1407  -49.8813  -18.6420 H   0  0  0  0  0  0  0  0  0  0  0  0
    2.4075  -49.4625  -17.5390 C   0  0  0  0  0  0  0  0  0  0  0  0
    2.7160  -48.3126  -18.0859 C   0  0  0  0  0  0  0  0  0  0  0  0
    0.6911  -51.9683  -23.8743 N   0  0  0  0  0  0  0  0  0  0  0  0
    0.1615  -51.2545  -24.4648 H   0  0  0  0  0  0  0  0  0  0  0  0
    2.0872  -51.7751  -23.9080 C   0  0  0  0  0  0  0  0  0  0  0  0
    2.9634  -52.7103  -24.3394 C   0  0  0  0  0  0  0  0  0  0  0  0
    4.3460  -52.4408  -24.3402 C   0  0  0  0  0  0  0  0  0  0  0  0
    4.8403  -51.2416  -23.9110 C   0  0  0  0  0  0  0  0  0  0  0  0
    6.6969  -50.8307  -23.8929 Br  0  0  0  0  0  0  0  0  0  0  0  0
    3.9642  -50.2925  -23.4741 C   0  0  0  0  0  0  0  0  0  0  0  0
    4.5661  -48.7300  -22.9100 Cl  0  0  0  0  0  0  0  0  0  0  0  0
    2.6180  -50.5557  -23.4738 C   0  0  0  0  0  0  0  0  0  0  0  0
    1.7889  -49.5620  -23.0241 F   0  0  0  0  0  0  0  0  0  0  0  0
   -0.6899  -52.6505  -17.7358 O   0  0  0  0  0  0  0  0  0  0  0  0
   -0.9846  -52.4982  -16.4873 C   0  0  0  0  0  0  0  0  0  0  0  0
   -2.1572  -51.5715  -16.1276 C   0  0  0  0  0  0  0  0  0  0  0  0
   -4.0433  -51.7307  -14.5522 C   0  0  0  0  0  0  0  0  0  0  0  0
   -3.9273  -50.4995  -14.3078 O   0  0  0  0  0  0  0  0  0  0  0  0
   -3.1671  -52.3418  -15.4760 N   0  0  0  0  0  0  0  0  0  0  0  0
   -3.2843  -53.3514  -15.6671 H   0  0  0  0  0  0  0  0  0  0  0  0
   -5.1112  -52.4842  -13.8459 C   0  0  0  0  0  0  0  0  0  0  0  0
   -4.6231  -54.6245  -12.8814 C   0  0  0  0  0  0  0  0  0  0  0  0
   -4.9412  -53.8819  -14.0858 N   0  0  0  0  0  0  0  0  0  0  0  0
   -6.0628  -54.4723  -14.7954 C   0  0  0  0  0  0  0  0  0  0  0  0
 36 37  1  0  0  0
 37 38  1  0  0  0
 37 35  1  0  0  0
 35 31  1  0  0  0
 31 32  2  0  0  0
 31 33  1  0  0  0
 33 30  1  0  0  0
 30 29  1  0  0  0
 29 28  1  0  0  0
 28  1  1  0  0  0
  1  2  2  0  0  0
  2  3  1  0  0  0
  3  4  2  0  0  0
  4  5  1  0  0  0
  5  6  2  0  0  0
  6  7  1  0  0  0
  7 17  1  0  0  0
 17 19  1  0  0  0
 19 20  2  0  0  0
 20 21  1  0  0  0
 21 22  2  0  0  0
 22 23  1  0  0  0
 22 24  1  0  0  0
 24 25  1  0  0  0
 24 26  2  0  0  0
 26 27  1  0  0  0
  7  8  2  0  0  0
  8  9  1  0  0  0
  9 10  2  0  0  0
 10 11  1  0  0  0
 11 12  1  0  0  0
 12 13  2  0  0  0
 12 15  1  0  0  0
 15 16  2  0  0  0
 10  1  1  0  0  0
  8  3  1  0  0  0
 26 19  1  0  0  0
 33 34  1  0  0  0
 17 18  1  0  0  0
 11 14  1  0  0  0
M  END
> <minimizedAffinity>
-7.30399

> <CNNscore>
0.7910433412

> <CNNaffinity>
7.4761991501

> <CNN_VS>
5.9139976501

> <CNNaffinity_variance>
0.0200007055

$$$$
[H]C([H])=C([H])C(=O)N([H])c1c(OC([H])([H])C([H])([H])N([H])C(=O)C([H])([H])N(C([H])([H])[H])C([H])([H])[H])c([H])c2nc([H])nc(N([H])c3c([H])c([H])c(Br)c(Cl)c3F)c2c1[H]


 38 40  0  0  0  0  0  0  0  0999 V2000
   -0.4883  -52.7117  -19.2242 C   0  0  0  0  0  0  0  0  0  0  0  0
   -1.0212  -53.7071  -20.0194 C   0  0  0  0  0  0  0  0  0  0  0  0
   -0.8590  -53.8245  -21.3653 C   0  0  0  0  0  0  0  0  0  0  0  0
   -1.4307  -54.8539  -22.0573 N   0  0  0  0  0  0  0  0  0  0  0  0
   -1.2623  -54.9605  -23.3842 C   0  0  0  0  0  0  0  0  0  0  0  0
   -0.5289  -54.0465  -24.0144 N   0  0  0  0  0  0  0  0  0  0  0  0
    0.0633  -53.0048  -23.3891 C   0  0  0  0  0  0  0  0  0  0  0  0
   -0.1003  -52.8758  -22.0052 C   0  0  0  0  0  0  0  0  0  0  0  0
    0.4697  -51.8440  -21.2817 C   0  0  0  0  0  0  0  0  0  0  0  0
    0.2918  -51.7429  -19.9081 C   0  0  0  0  0  0  0  0  0  0  0  0
    0.8405  -50.7155  -19.1164 N   0  0  0  0  0  0  0  0  0  0  0  0
    2.0931  -50.6444  -18.5380 C   0  0  0  0  0  0  0  0  0  0  0  0
    2.9659  -51.5067  -18.6264 O   0  0  0  0  0  0  0  0  0  0  0  0
    0.2208  -49.8521  -18.9171 H   0  0  0  0  0  0  0  0  0  0  0  0
    2.4533  -49.4511  -17.7399 C   0  0  0  0  0  0  0  0  0  0  0  0
    3.1981  -49.5417  -16.6659 C   0  0  0  0  0  0  0  0  0  0  0  0
    0.8305  -52.0500  -24.0767 N   0  0  0  0  0  0  0  0  0  0  0  0
    0.3196  -51.3791  -24.7305 H   0  0  0  0  0  0  0  0  0  0  0  0
    2.2218  -51.8247  -24.0434 C   0  0  0  0  0  0  0  0  0  0  0  0
    3.1399  -52.7486  -24.4065 C   0  0  0  0  0  0  0  0  0  0  0  0
    4.5144  -52.4467  -24.3428 C   0  0  0  0  0  0  0  0  0  0  0  0
    4.9587  -51.2266  -23.9177 C   0  0  0  0  0  0  0  0  0  0  0  0
    6.8022  -50.7717  -23.8142 Br  0  0  0  0  0  0  0  0  0  0  0  0
    4.0401  -50.2887  -23.5494 C   0  0  0  0  0  0  0  0  0  0  0  0
    4.5767  -48.6999  -22.9928 Cl  0  0  0  0  0  0  0  0  0  0  0  0
    2.7019  -50.5835  -23.6118 C   0  0  0  0  0  0  0  0  0  0  0  0
    1.8285  -49.5997  -23.2294 F   0  0  0  0  0  0  0  0  0  0  0  0
   -0.6495  -52.6138  -17.9493 O   0  0  0  0  0  0  0  0  0  0  0  0
   -0.9797  -52.4872  -16.7069 C   0  0  0  0  0  0  0  0  0  0  0  0
   -2.4510  -52.1897  -16.3750 C   0  0  0  0  0  0  0  0  0  0  0  0
   -3.7645  -50.4393  -15.2459 C   0  0  0  0  0  0  0  0  0  0  0  0
   -4.8241  -51.0253  -15.5965 O   0  0  0  0  0  0  0  0  0  0  0  0
   -2.5144  -50.9846  -15.6125 N   0  0  0  0  0  0  0  0  0  0  0  0
   -1.6576  -50.4917  -15.3084 H   0  0  0  0  0  0  0  0  0  0  0  0
   -3.8888  -49.1887  -14.4537 C   0  0  0  0  0  0  0  0  0  0  0  0
   -2.3939  -47.4095  -15.0449 C   0  0  0  0  0  0  0  0  0  0  0  0
   -2.5933  -48.6170  -14.2668 N   0  0  0  0  0  0  0  0  0  0  0  0
   -2.2657  -48.4091  -12.8669 C   0  0  0  0  0  0  0  0  0  0  0  0
 36 37  1  0  0  0
 37 38  1  0  0  0
 37 35  1  0  0  0
 35 31  1  0  0  0
 31 32  2  0  0  0
 31 33  1  0  0  0
 33 30  1  0  0  0
 30 29  1  0  0  0
 29 28  1  0  0  0
 28  1  1  0  0  0
  1  2  2  0  0  0
  2  3  1  0  0  0
  3  4  2  0  0  0
  4  5  1  0  0  0
  5  6  2  0  0  0
  6  7  1  0  0  0
  7 17  1  0  0  0
 17 19  1  0  0  0
 19 20  2  0  0  0
 20 21  1  0  0  0
 21 22  2  0  0  0
 22 23  1  0  0  0
 22 24  1  0  0  0
 24 25  1  0  0  0
 24 26  2  0  0  0
 26 27  1  0  0  0
  7  8  2  0  0  0
  8  9  1  0  0  0
  9 10  2  0  0  0
 10 11  1  0  0  0
 11 12  1  0  0  0
 12 13  2  0  0  0
 12 15  1  0  0  0
 15 16  2  0  0  0
 10  1  1  0  0  0
  8  3  1  0  0  0
 26 19  1  0  0  0
 33 34  1  0  0  0
 17 18  1  0  0  0
 11 14  1  0  0  0
M  END
> <minimizedAffinity>
-7.34457

> <CNNscore>
0.7829893231

> <CNNaffinity>
7.4987869263

> <CNN_VS>
5.8714699745

> <CNNaffinity_variance>
0.0123458188

$$$$
[H]C([H])=C([H])C(=O)N([H])c1c(OC([H])([H])C([H])([H])N([H])C(=O)C([H])([H])N(C([H])([H])[H])C([H])([H])[H])c([H])c2nc([H])nc(N([H])c3c([H])c([H])c(Br)c(Cl)c3F)c2c1[H]


 38 40  0  0  0  0  0  0  0  0999 V2000
    1.6680  -50.5751  -22.0741 C   0  0  0  0  0  0  0  0  0  0  0  0
    0.7727  -51.4994  -22.5754 C   0  0  0  0  0  0  0  0  0  0  0  0
    0.0260  -52.3664  -21.8391 C   0  0  0  0  0  0  0  0  0  0  0  0
   -0.8342  -53.2414  -22.4387 N   0  0  0  0  0  0  0  0  0  0  0  0
   -1.5669  -54.0906  -21.7022 C   0  0  0  0  0  0  0  0  0  0  0  0
   -1.4412  -54.0658  -20.3778 N   0  0  0  0  0  0  0  0  0  0  0  0
   -0.6091  -53.2255  -19.7233 C   0  0  0  0  0  0  0  0  0  0  0  0
    0.1638  -52.3320  -20.4734 C   0  0  0  0  0  0  0  0  0  0  0  0
    1.0404  -51.4353  -19.8900 C   0  0  0  0  0  0  0  0  0  0  0  0
    1.7931  -50.5585  -20.6602 C   0  0  0  0  0  0  0  0  0  0  0  0
    2.7051  -49.6266  -20.1281 N   0  0  0  0  0  0  0  0  0  0  0  0
    3.6953  -49.8263  -19.1856 C   0  0  0  0  0  0  0  0  0  0  0  0
    3.9474  -50.8981  -18.6370 O   0  0  0  0  0  0  0  0  0  0  0  0
    2.6466  -48.6082  -20.4868 H   0  0  0  0  0  0  0  0  0  0  0  0
    4.5432  -48.6846  -18.7759 C   0  0  0  0  0  0  0  0  0  0  0  0
    4.1900  -47.8801  -17.8041 C   0  0  0  0  0  0  0  0  0  0  0  0
   -0.4909  -53.2202  -18.3235 N   0  0  0  0  0  0  0  0  0  0  0  0
    0.2288  -53.8733  -17.8830 H   0  0  0  0  0  0  0  0  0  0  0  0
   -1.1971  -52.4628  -17.3669 C   0  0  0  0  0  0  0  0  0  0  0  0
   -0.6938  -51.3641  -16.7602 C   0  0  0  0  0  0  0  0  0  0  0  0
   -1.4630  -50.6619  -15.8118 C   0  0  0  0  0  0  0  0  0  0  0  0
   -2.7260  -51.0625  -15.4785 C   0  0  0  0  0  0  0  0  0  0  0  0
   -3.8028  -50.1486  -14.2052 Br  0  0  0  0  0  0  0  0  0  0  0  0
   -3.2417  -52.1695  -16.0851 C   0  0  0  0  0  0  0  0  0  0  0  0
   -4.8710  -52.7191  -15.6786 Cl  0  0  0  0  0  0  0  0  0  0  0  0
   -2.4920  -52.8527  -17.0086 C   0  0  0  0  0  0  0  0  0  0  0  0
   -3.0657  -53.9559  -17.5837 F   0  0  0  0  0  0  0  0  0  0  0  0
    2.3681  -49.7587  -22.7841 O   0  0  0  0  0  0  0  0  0  0  0  0
    2.9390  -48.9472  -23.6114 C   0  0  0  0  0  0  0  0  0  0  0  0
    4.0363  -48.0156  -23.0716 C   0  0  0  0  0  0  0  0  0  0  0  0
    6.2191  -48.2030  -21.9470 C   0  0  0  0  0  0  0  0  0  0  0  0
    6.2468  -46.9494  -21.8185 O   0  0  0  0  0  0  0  0  0  0  0  0
    5.1136  -48.8127  -22.5802 N   0  0  0  0  0  0  0  0  0  0  0  0
    5.1078  -49.8431  -22.6688 H   0  0  0  0  0  0  0  0  0  0  0  0
    7.3667  -48.9839  -21.4175 C   0  0  0  0  0  0  0  0  0  0  0  0
    7.8051  -50.4279  -23.2809 C   0  0  0  0  0  0  0  0  0  0  0  0
    8.2571  -49.3006  -22.4884 N   0  0  0  0  0  0  0  0  0  0  0  0
    8.5659  -48.1523  -23.3228 C   0  0  0  0  0  0  0  0  0  0  0  0
 36 37  1  0  0  0
 37 38  1  0  0  0
 37 35  1  0  0  0
 35 31  1  0  0  0
 31 32  2  0  0  0
 31 33  1  0  0  0
 33 30  1  0  0  0
 30 29  1  0  0  0
 29 28  1  0  0  0
 28  1  1  0  0  0
  1  2  2  0  0  0
  2  3  1  0  0  0
  3  4  2  0  0  0
  4  5  1  0  0  0
  5  6  2  0  0  0
  6  7  1  0  0  0
  7 17  1  0  0  0
 17 19  1  0  0  0
 19 20  2  0  0  0
 20 21  1  0  0  0
 21 22  2  0  0  0
 22 23  1  0  0  0
 22 24  1  0  0  0
 24 25  1  0  0  0
 24 26  2  0  0  0
 26 27  1  0  0  0
  7  8  2  0  0  0
  8  9  1  0  0  0
  9 10  2  0  0  0
 10 11  1  0  0  0
 11 12  1  0  0  0
 12 13  2  0  0  0
 12 15  1  0  0  0
 15 16  2  0  0  0
 10  1  1  0  0  0
  8  3  1  0  0  0
 26 19  1  0  0  0
 33 34  1  0  0  0
 17 18  1  0  0  0
 11 14  1  0  0  0
M  END
> <minimizedAffinity>
-6.34820

> <CNNscore>
0.6942968369

> <CNNaffinity>
7.1843461990

> <CNN_VS>
4.9880690575

> <CNNaffinity_variance>
0.1358587593

$$$$
[H]C([H])=C([H])C(=O)N([H])c1c(OC([H])([H])C([H])([H])N([H])C(=O)C([H])([H])N(C([H])([H])[H])C([H])([H])[H])c([H])c2nc([H])nc(N([H])c3c([H])c([H])c(Br)c(Cl)c3F)c2c1[H]


 38 40  0  0  0  0  0  0  0  0999 V2000
    1.6957  -51.1681  -23.0618 C   0  0  0  0  0  0  0  0  0  0  0  0
    0.6881  -52.0719  -23.3354 C   0  0  0  0  0  0  0  0  0  0  0  0
    0.0064  -52.8080  -22.4163 C   0  0  0  0  0  0  0  0  0  0  0  0
   -0.9780  -53.6750  -22.7968 N   0  0  0  0  0  0  0  0  0  0  0  0
   -1.6448  -54.3944  -21.8813 C   0  0  0  0  0  0  0  0  0  0  0  0
   -1.3309  -54.2489  -20.5966 N   0  0  0  0  0  0  0  0  0  0  0  0
   -0.3686  -53.4091  -20.1544 C   0  0  0  0  0  0  0  0  0  0  0  0
    0.3386  -52.6498  -21.0935 C   0  0  0  0  0  0  0  0  0  0  0  0
    1.3379  -51.7640  -20.7335 C   0  0  0  0  0  0  0  0  0  0  0  0
    2.0213  -51.0219  -21.6879 C   0  0  0  0  0  0  0  0  0  0  0  0
    3.0503  -50.1087  -21.3869 N   0  0  0  0  0  0  0  0  0  0  0  0
    4.4091  -50.3381  -21.2880 C   0  0  0  0  0  0  0  0  0  0  0  0
    4.9593  -51.4257  -21.4537 O   0  0  0  0  0  0  0  0  0  0  0  0
    2.7692  -49.0808  -21.2035 H   0  0  0  0  0  0  0  0  0  0  0  0
    5.3095  -49.2109  -20.9580 C   0  0  0  0  0  0  0  0  0  0  0  0
    5.8238  -49.0695  -19.7613 C   0  0  0  0  0  0  0  0  0  0  0  0
   -0.0526  -53.2750  -18.7923 N   0  0  0  0  0  0  0  0  0  0  0  0
    0.7167  -53.8997  -18.3967 H   0  0  0  0  0  0  0  0  0  0  0  0
   -0.6089  -52.4154  -17.8231 C   0  0  0  0  0  0  0  0  0  0  0  0
   -0.0004  -51.2925  -17.3790 C   0  0  0  0  0  0  0  0  0  0  0  0
   -0.6219  -50.4861  -16.4054 C   0  0  0  0  0  0  0  0  0  0  0  0
   -1.8435  -50.8079  -15.8851 C   0  0  0  0  0  0  0  0  0  0  0  0
   -2.7224  -49.7522  -14.5701 Br  0  0  0  0  0  0  0  0  0  0  0  0
   -2.4645  -51.9386  -16.3269 C   0  0  0  0  0  0  0  0  0  0  0  0
   -4.0445  -52.3882  -15.6762 Cl  0  0  0  0  0  0  0  0  0  0  0  0
   -1.8587  -52.7232  -17.2750 C   0  0  0  0  0  0  0  0  0  0  0  0
   -2.5331  -53.8453  -17.6788 F   0  0  0  0  0  0  0  0  0  0  0  0
    2.3323  -50.4763  -23.9433 O   0  0  0  0  0  0  0  0  0  0  0  0
    2.9363  -49.9141  -24.9372 C   0  0  0  0  0  0  0  0  0  0  0  0
    3.2913  -50.7830  -26.1547 C   0  0  0  0  0  0  0  0  0  0  0  0
    2.1954  -52.7628  -27.1263 C   0  0  0  0  0  0  0  0  0  0  0  0
    3.3181  -53.3307  -27.2048 O   0  0  0  0  0  0  0  0  0  0  0  0
    2.1127  -51.4561  -26.5969 N   0  0  0  0  0  0  0  0  0  0  0  0
    1.1810  -51.0115  -26.5350 H   0  0  0  0  0  0  0  0  0  0  0  0
    1.0018  -53.5091  -27.6011 C   0  0  0  0  0  0  0  0  0  0  0  0
   -0.4249  -52.7224  -29.3604 C   0  0  0  0  0  0  0  0  0  0  0  0
   -0.0175  -52.5813  -27.9757 N   0  0  0  0  0  0  0  0  0  0  0  0
   -1.1599  -52.6068  -27.0788 C   0  0  0  0  0  0  0  0  0  0  0  0
 36 37  1  0  0  0
 37 38  1  0  0  0
 37 35  1  0  0  0
 35 31  1  0  0  0
 31 32  2  0  0  0
 31 33  1  0  0  0
 33 30  1  0  0  0
 30 29  1  0  0  0
 29 28  1  0  0  0
 28  1  1  0  0  0
  1  2  2  0  0  0
  2  3  1  0  0  0
  3  4  2  0  0  0
  4  5  1  0  0  0
  5  6  2  0  0  0
  6  7  1  0  0  0
  7 17  1  0  0  0
 17 19  1  0  0  0
 19 20  2  0  0  0
 20 21  1  0  0  0
 21 22  2  0  0  0
 22 23  1  0  0  0
 22 24  1  0  0  0
 24 25  1  0  0  0
 24 26  2  0  0  0
 26 27  1  0  0  0
  7  8  2  0  0  0
  8  9  1  0  0  0
  9 10  2  0  0  0
 10 11  1  0  0  0
 11 12  1  0  0  0
 12 13  2  0  0  0
 12 15  1  0  0  0
 15 16  2  0  0  0
 10  1  1  0  0  0
  8  3  1  0  0  0
 26 19  1  0  0  0
 33 34  1  0  0  0
 17 18  1  0  0  0
 11 14  1  0  0  0
M  END
> <minimizedAffinity>
-7.65931

> <CNNscore>
0.6612752080

> <CNNaffinity>
7.6210350990

> <CNN_VS>
5.0396018028

> <CNNaffinity_variance>
0.0305075739

$$$$
[H]C([H])=C([H])C(=O)N([H])c1c(OC([H])([H])C([H])([H])N([H])C(=O)C([H])([H])N(C([H])([H])[H])C([H])([H])[H])c([H])c2nc([H])nc(N([H])c3c([H])c([H])c(Br)c(Cl)c3F)c2c1[H]


 38 40  0  0  0  0  0  0  0  0999 V2000
   -0.5887  -52.6933  -19.3554 C   0  0  0  0  0  0  0  0  0  0  0  0
   -1.0402  -53.7147  -20.1678 C   0  0  0  0  0  0  0  0  0  0  0  0
   -0.8645  -53.7989  -21.5145 C   0  0  0  0  0  0  0  0  0  0  0  0
   -1.3524  -54.8588  -22.2244 N   0  0  0  0  0  0  0  0  0  0  0  0
   -1.1714  -54.9320  -23.5519 C   0  0  0  0  0  0  0  0  0  0  0  0
   -0.5086  -53.9547  -24.1650 N   0  0  0  0  0  0  0  0  0  0  0  0
   -0.0010  -52.8799  -23.5214 C   0  0  0  0  0  0  0  0  0  0  0  0
   -0.1791  -52.7848  -22.1366 C   0  0  0  0  0  0  0  0  0  0  0  0
    0.3068  -51.7232  -21.3952 C   0  0  0  0  0  0  0  0  0  0  0  0
    0.1166  -51.6570  -20.0212 C   0  0  0  0  0  0  0  0  0  0  0  0
    0.5814  -50.6023  -19.2117 N   0  0  0  0  0  0  0  0  0  0  0  0
    1.7738  -50.5025  -18.5211 C   0  0  0  0  0  0  0  0  0  0  0  0
    2.6572  -51.3583  -18.5027 O   0  0  0  0  0  0  0  0  0  0  0  0
   -0.0605  -49.7398  -19.0962 H   0  0  0  0  0  0  0  0  0  0  0  0
    2.0490  -49.2838  -17.7278 C   0  0  0  0  0  0  0  0  0  0  0  0
    2.6047  -49.3459  -16.5430 C   0  0  0  0  0  0  0  0  0  0  0  0
    0.6926  -51.8584  -24.1912 N   0  0  0  0  0  0  0  0  0  0  0  0
    0.2052  -51.3824  -25.0125 H   0  0  0  0  0  0  0  0  0  0  0  0
    1.9801  -51.3387  -23.9461 C   0  0  0  0  0  0  0  0  0  0  0  0
    2.2090  -50.0853  -23.4933 C   0  0  0  0  0  0  0  0  0  0  0  0
    3.5273  -49.6393  -23.2749 C   0  0  0  0  0  0  0  0  0  0  0  0
    4.6031  -50.4479  -23.5102 C   0  0  0  0  0  0  0  0  0  0  0  0
    6.4001  -49.8920  -23.2310 Br  0  0  0  0  0  0  0  0  0  0  0  0
    4.3819  -51.7134  -23.9671 C   0  0  0  0  0  0  0  0  0  0  0  0
    5.7483  -52.7877  -24.2845 Cl  0  0  0  0  0  0  0  0  0  0  0  0
    3.0979  -52.1470  -24.1794 C   0  0  0  0  0  0  0  0  0  0  0  0
    2.9407  -53.4284  -24.6380 F   0  0  0  0  0  0  0  0  0  0  0  0
   -0.7616  -52.6275  -18.0800 O   0  0  0  0  0  0  0  0  0  0  0  0
   -1.0421  -52.6981  -16.8210 C   0  0  0  0  0  0  0  0  0  0  0  0
   -1.8482  -51.5497  -16.1928 C   0  0  0  0  0  0  0  0  0  0  0  0
   -1.4858  -49.2223  -15.4740 C   0  0  0  0  0  0  0  0  0  0  0  0
   -2.6906  -49.1604  -15.1085 O   0  0  0  0  0  0  0  0  0  0  0  0
   -0.9907  -50.4190  -16.0375 N   0  0  0  0  0  0  0  0  0  0  0  0
    0.0025  -50.4505  -16.3240 H   0  0  0  0  0  0  0  0  0  0  0  0
   -0.6382  -48.0163  -15.2893 C   0  0  0  0  0  0  0  0  0  0  0  0
    0.7576  -48.4502  -13.3885 C   0  0  0  0  0  0  0  0  0  0  0  0
   -0.4322  -47.7926  -13.8937 N   0  0  0  0  0  0  0  0  0  0  0  0
   -0.4537  -46.3840  -13.5396 C   0  0  0  0  0  0  0  0  0  0  0  0
 36 37  1  0  0  0
 37 38  1  0  0  0
 37 35  1  0  0  0
 35 31  1  0  0  0
 31 32  2  0  0  0
 31 33  1  0  0  0
 33 30  1  0  0  0
 30 29  1  0  0  0
 29 28  1  0  0  0
 28  1  1  0  0  0
  1  2  2  0  0  0
  2  3  1  0  0  0
  3  4  2  0  0  0
  4  5  1  0  0  0
  5  6  2  0  0  0
  6  7  1  0  0  0
  7 17  1  0  0  0
 17 19  1  0  0  0
 19 20  2  0  0  0
 20 21  1  0  0  0
 21 22  2  0  0  0
 22 23  1  0  0  0
 22 24  1  0  0  0
 24 25  1  0  0  0
 24 26  2  0  0  0
 26 27  1  0  0  0
  7  8  2  0  0  0
  8  9  1  0  0  0
  9 10  2  0  0  0
 10 11  1  0  0  0
 11 12  1  0  0  0
 12 13  2  0  0  0
 12 15  1  0  0  0
 15 16  2  0  0  0
 10  1  1  0  0  0
  8  3  1  0  0  0
 26 19  1  0  0  0
 33 34  1  0  0  0
 17 18  1  0  0  0
 11 14  1  0  0  0
M  END
> <minimizedAffinity>
-6.96953

> <CNNscore>
0.6576248407

> <CNNaffinity>
7.2904572487

> <CNN_VS>
4.7943859100

> <CNNaffinity_variance>
0.0411182269

$$$$
[H]C([H])=C([H])C(=O)N([H])c1c(OC([H])([H])C([H])([H])N([H])C(=O)C([H])([H])N(C([H])([H])[H])C([H])([H])[H])c([H])c2nc([H])nc(N([H])c3c([H])c([H])c(Br)c(Cl)c3F)c2c1[H]


 38 40  0  0  0  0  0  0  0  0999 V2000
    2.4426  -51.8122  -22.4760 C   0  0  0  0  0  0  0  0  0  0  0  0
    1.2745  -52.4449  -22.8532 C   0  0  0  0  0  0  0  0  0  0  0  0
    0.3304  -52.9443  -22.0102 C   0  0  0  0  0  0  0  0  0  0  0  0
   -0.7942  -53.5520  -22.4913 N   0  0  0  0  0  0  0  0  0  0  0  0
   -1.7193  -54.0390  -21.6503 C   0  0  0  0  0  0  0  0  0  0  0  0
   -1.5226  -53.9201  -20.3398 N   0  0  0  0  0  0  0  0  0  0  0  0
   -0.4329  -53.3304  -19.7997 C   0  0  0  0  0  0  0  0  0  0  0  0
    0.5437  -52.8159  -20.6599 C   0  0  0  0  0  0  0  0  0  0  0  0
    1.6897  -52.1948  -20.1977 C   0  0  0  0  0  0  0  0  0  0  0  0
    2.6408  -51.6916  -21.0756 C   0  0  0  0  0  0  0  0  0  0  0  0
    3.8289  -51.0540  -20.6689 N   0  0  0  0  0  0  0  0  0  0  0  0
    4.0013  -49.7694  -20.1907 C   0  0  0  0  0  0  0  0  0  0  0  0
    3.1037  -48.9420  -20.0388 O   0  0  0  0  0  0  0  0  0  0  0  0
    4.7470  -51.6221  -20.7276 H   0  0  0  0  0  0  0  0  0  0  0  0
    5.3594  -49.3131  -19.8199 C   0  0  0  0  0  0  0  0  0  0  0  0
    6.3953  -49.5424  -20.5886 C   0  0  0  0  0  0  0  0  0  0  0  0
   -0.2457  -53.2196  -18.4119 N   0  0  0  0  0  0  0  0  0  0  0  0
    0.4334  -53.8982  -17.9462 H   0  0  0  0  0  0  0  0  0  0  0  0
   -0.8328  -52.3222  -17.4967 C   0  0  0  0  0  0  0  0  0  0  0  0
   -0.2325  -51.1890  -17.0677 C   0  0  0  0  0  0  0  0  0  0  0  0
   -0.8855  -50.3441  -16.1489 C   0  0  0  0  0  0  0  0  0  0  0  0
   -2.1299  -50.6380  -15.6678 C   0  0  0  0  0  0  0  0  0  0  0  0
   -3.0516  -49.5299  -14.4272 Br  0  0  0  0  0  0  0  0  0  0  0  0
   -2.7429  -51.7787  -16.0947 C   0  0  0  0  0  0  0  0  0  0  0  0
   -4.3519  -52.1930  -15.4935 Cl  0  0  0  0  0  0  0  0  0  0  0  0
   -2.1065  -52.6009  -16.9895 C   0  0  0  0  0  0  0  0  0  0  0  0
   -2.7742  -53.7313  -17.3810 F   0  0  0  0  0  0  0  0  0  0  0  0
    3.3278  -51.3428  -23.2864 O   0  0  0  0  0  0  0  0  0  0  0  0
    4.1383  -50.7173  -24.0743 C   0  0  0  0  0  0  0  0  0  0  0  0
    3.6256  -50.3082  -25.4647 C   0  0  0  0  0  0  0  0  0  0  0  0
    4.1587  -48.1843  -26.5913 C   0  0  0  0  0  0  0  0  0  0  0  0
    2.9417  -47.8611  -26.5313 O   0  0  0  0  0  0  0  0  0  0  0  0
    4.5753  -49.4256  -26.0621 N   0  0  0  0  0  0  0  0  0  0  0  0
    5.5793  -49.6679  -26.1154 H   0  0  0  0  0  0  0  0  0  0  0  0
    5.1037  -47.2282  -27.2237 C   0  0  0  0  0  0  0  0  0  0  0  0
    4.8710  -44.8559  -26.9638 C   0  0  0  0  0  0  0  0  0  0  0  0
    4.3928  -46.0556  -27.6235 N   0  0  0  0  0  0  0  0  0  0  0  0
    4.3473  -45.8887  -29.0658 C   0  0  0  0  0  0  0  0  0  0  0  0
 36 37  1  0  0  0
 37 38  1  0  0  0
 37 35  1  0  0  0
 35 31  1  0  0  0
 31 32  2  0  0  0
 31 33  1  0  0  0
 33 30  1  0  0  0
 30 29  1  0  0  0
 29 28  1  0  0  0
 28  1  1  0  0  0
  1  2  2  0  0  0
  2  3  1  0  0  0
  3  4  2  0  0  0
  4  5  1  0  0  0
  5  6  2  0  0  0
  6  7  1  0  0  0
  7 17  1  0  0  0
 17 19  1  0  0  0
 19 20  2  0  0  0
 20 21  1  0  0  0
 21 22  2  0  0  0
 22 23  1  0  0  0
 22 24  1  0  0  0
 24 25  1  0  0  0
 24 26  2  0  0  0
 26 27  1  0  0  0
  7  8  2  0  0  0
  8  9  1  0  0  0
  9 10  2  0  0  0
 10 11  1  0  0  0
 11 12  1  0  0  0
 12 13  2  0  0  0
 12 15  1  0  0  0
 15 16  2  0  0  0
 10  1  1  0  0  0
  8  3  1  0  0  0
 26 19  1  0  0  0
 33 34  1  0  0  0
 17 18  1  0  0  0
 11 14  1  0  0  0
M  END
> <minimizedAffinity>
-6.41223

> <CNNscore>
0.5787549019

> <CNNaffinity>
7.2773637772

> <CNN_VS>
4.2118101120

> <CNNaffinity_variance>
0.3185817897

$$$$
[H]C([H])=C([H])C(=O)N([H])c1c(OC([H])([H])C([H])([H])N([H])C(=O)C([H])([H])N(C([H])([H])[H])C([H])([H])[H])c([H])c2nc([H])nc(N([H])c3c([H])c([H])c(Br)c(Cl)c3F)c2c1[H]


 38 40  0  0  0  0  0  0  0  0999 V2000
    1.8766  -51.4070  -23.3569 C   0  0  0  0  0  0  0  0  0  0  0  0
    0.8608  -52.2936  -23.6552 C   0  0  0  0  0  0  0  0  0  0  0  0
    0.1415  -53.0146  -22.7529 C   0  0  0  0  0  0  0  0  0  0  0  0
   -0.8475  -53.8652  -23.1575 N   0  0  0  0  0  0  0  0  0  0  0  0
   -1.5515  -54.5697  -22.2584 C   0  0  0  0  0  0  0  0  0  0  0  0
   -1.2698  -54.4258  -20.9661 N   0  0  0  0  0  0  0  0  0  0  0  0
   -0.3048  -53.6019  -20.5003 C   0  0  0  0  0  0  0  0  0  0  0  0
    0.4408  -52.8582  -21.4220 C   0  0  0  0  0  0  0  0  0  0  0  0
    1.4457  -51.9893  -21.0375 C   0  0  0  0  0  0  0  0  0  0  0  0
    2.1677  -51.2624  -21.9751 C   0  0  0  0  0  0  0  0  0  0  0  0
    3.2044  -50.3666  -21.6489 N   0  0  0  0  0  0  0  0  0  0  0  0
    4.5616  -50.6092  -21.5607 C   0  0  0  0  0  0  0  0  0  0  0  0
    5.1031  -51.6954  -21.7614 O   0  0  0  0  0  0  0  0  0  0  0  0
    2.9316  -49.3428  -21.4332 H   0  0  0  0  0  0  0  0  0  0  0  0
    5.4714  -49.4996  -21.1986 C   0  0  0  0  0  0  0  0  0  0  0  0
    6.7431  -49.7039  -20.9585 C   0  0  0  0  0  0  0  0  0  0  0  0
   -0.0232  -53.4693  -19.1305 N   0  0  0  0  0  0  0  0  0  0  0  0
    0.8616  -53.9347  -18.7577 H   0  0  0  0  0  0  0  0  0  0  0  0
   -0.7485  -52.7949  -18.1272 C   0  0  0  0  0  0  0  0  0  0  0  0
   -1.9509  -53.2069  -17.6658 C   0  0  0  0  0  0  0  0  0  0  0  0
   -2.6143  -52.4755  -16.6612 C   0  0  0  0  0  0  0  0  0  0  0  0
   -2.0716  -51.3411  -16.1272 C   0  0  0  0  0  0  0  0  0  0  0  0
   -2.9277  -50.3201  -14.7704 Br  0  0  0  0  0  0  0  0  0  0  0  0
   -0.8594  -50.9179  -16.5864 C   0  0  0  0  0  0  0  0  0  0  0  0
   -0.1266  -49.4543  -15.9210 Cl  0  0  0  0  0  0  0  0  0  0  0  0
   -0.2141  -51.6308  -17.5646 C   0  0  0  0  0  0  0  0  0  0  0  0
    1.0007  -51.1554  -17.9834 F   0  0  0  0  0  0  0  0  0  0  0  0
    2.5489  -50.7294  -24.2227 O   0  0  0  0  0  0  0  0  0  0  0  0
    3.0695  -49.9815  -25.1384 C   0  0  0  0  0  0  0  0  0  0  0  0
    3.3263  -50.6020  -26.5213 C   0  0  0  0  0  0  0  0  0  0  0  0
    2.2191  -52.6971  -27.1915 C   0  0  0  0  0  0  0  0  0  0  0  0
    3.3158  -53.3045  -27.0600 O   0  0  0  0  0  0  0  0  0  0  0  0
    2.1565  -51.3106  -26.9303 N   0  0  0  0  0  0  0  0  0  0  0  0
    1.2454  -50.8333  -27.0375 H   0  0  0  0  0  0  0  0  0  0  0  0
    1.0335  -53.4833  -27.6196 C   0  0  0  0  0  0  0  0  0  0  0  0
   -0.5726  -52.7831  -29.2566 C   0  0  0  0  0  0  0  0  0  0  0  0
   -0.0410  -52.5919  -27.9209 N   0  0  0  0  0  0  0  0  0  0  0  0
   -1.0931  -52.6189  -26.9196 C   0  0  0  0  0  0  0  0  0  0  0  0
 36 37  1  0  0  0
 37 38  1  0  0  0
 37 35  1  0  0  0
 35 31  1  0  0  0
 31 32  2  0  0  0
 31 33  1  0  0  0
 33 30  1  0  0  0
 30 29  1  0  0  0
 29 28  1  0  0  0
 28  1  1  0  0  0
  1  2  2  0  0  0
  2  3  1  0  0  0
  3  4  2  0  0  0
  4  5  1  0  0  0
  5  6  2  0  0  0
  6  7  1  0  0  0
  7 17  1  0  0  0
 17 19  1  0  0  0
 19 20  2  0  0  0
 20 21  1  0  0  0
 21 22  2  0  0  0
 22 23  1  0  0  0
 22 24  1  0  0  0
 24 25  1  0  0  0
 24 26  2  0  0  0
 26 27  1  0  0  0
  7  8  2  0  0  0
  8  9  1  0  0  0
  9 10  2  0  0  0
 10 11  1  0  0  0
 11 12  1  0  0  0
 12 13  2  0  0  0
 12 15  1  0  0  0
 15 16  2  0  0  0
 10  1  1  0  0  0
  8  3  1  0  0  0
 26 19  1  0  0  0
 33 34  1  0  0  0
 17 18  1  0  0  0
 11 14  1  0  0  0
M  END
> <minimizedAffinity>
-7.66956

> <CNNscore>
0.5652213693

> <CNNaffinity>
7.5683150291

> <CNN_VS>
4.2777733803

> <CNNaffinity_variance>
0.0184210483

$$$$
[H]C([H])=C([H])C(=O)N([H])c1c(OC([H])([H])C([H])([H])N([H])C(=O)C([H])([H])N(C([H])([H])[H])C([H])([H])[H])c([H])c2nc([H])nc(N([H])c3c([H])c([H])c(Br)c(Cl)c3F)c2c1[H]


 38 40  0  0  0  0  0  0  0  0999 V2000
    1.6329  -50.9981  -22.8754 C   0  0  0  0  0  0  0  0  0  0  0  0
    0.7356  -51.9847  -23.2342 C   0  0  0  0  0  0  0  0  0  0  0  0
    0.0503  -52.7889  -22.3769 C   0  0  0  0  0  0  0  0  0  0  0  0
   -0.8184  -53.7355  -22.8401 N   0  0  0  0  0  0  0  0  0  0  0  0
   -1.4902  -54.5216  -21.9851 C   0  0  0  0  0  0  0  0  0  0  0  0
   -1.2956  -54.3635  -20.6784 N   0  0  0  0  0  0  0  0  0  0  0  0
   -0.4512  -53.4466  -20.1556 C   0  0  0  0  0  0  0  0  0  0  0  0
    0.2589  -52.6169  -21.0307 C   0  0  0  0  0  0  0  0  0  0  0  0
    1.1425  -51.6501  -20.5867 C   0  0  0  0  0  0  0  0  0  0  0  0
    1.8318  -50.8394  -21.4790 C   0  0  0  0  0  0  0  0  0  0  0  0
    2.7472  -49.8418  -21.0912 N   0  0  0  0  0  0  0  0  0  0  0  0
    2.4972  -48.5335  -20.7243 C   0  0  0  0  0  0  0  0  0  0  0  0
    1.3853  -48.0096  -20.6772 O   0  0  0  0  0  0  0  0  0  0  0  0
    3.7955  -50.1063  -21.0680 H   0  0  0  0  0  0  0  0  0  0  0  0
    3.6312  -47.6591  -20.3504 C   0  0  0  0  0  0  0  0  0  0  0  0
    4.6571  -48.1151  -19.6750 C   0  0  0  0  0  0  0  0  0  0  0  0
   -0.2598  -53.3006  -18.7717 N   0  0  0  0  0  0  0  0  0  0  0  0
    0.6514  -53.6672  -18.3546 H   0  0  0  0  0  0  0  0  0  0  0  0
   -1.1096  -52.7261  -17.8046 C   0  0  0  0  0  0  0  0  0  0  0  0
   -2.3560  -53.1779  -17.5385 C   0  0  0  0  0  0  0  0  0  0  0  0
   -3.1451  -52.5469  -16.5568 C   0  0  0  0  0  0  0  0  0  0  0  0
   -2.6829  -51.4724  -15.8509 C   0  0  0  0  0  0  0  0  0  0  0  0
   -3.7094  -50.5874  -14.5170 Br  0  0  0  0  0  0  0  0  0  0  0  0
   -1.4272  -51.0098  -16.1126 C   0  0  0  0  0  0  0  0  0  0  0  0
   -0.7956  -49.6211  -15.2212 Cl  0  0  0  0  0  0  0  0  0  0  0  0
   -0.6595  -51.6248  -17.0686 C   0  0  0  0  0  0  0  0  0  0  0  0
    0.5934  -51.1143  -17.2850 F   0  0  0  0  0  0  0  0  0  0  0  0
    2.2743  -50.2426  -23.6992 O   0  0  0  0  0  0  0  0  0  0  0  0
    2.9195  -49.6235  -24.6316 C   0  0  0  0  0  0  0  0  0  0  0  0
    3.9524  -50.4175  -25.4477 C   0  0  0  0  0  0  0  0  0  0  0  0
    5.8624  -50.8864  -23.9655 C   0  0  0  0  0  0  0  0  0  0  0  0
    5.2390  -51.8761  -23.4955 O   0  0  0  0  0  0  0  0  0  0  0  0
    5.2588  -50.0974  -24.9693 N   0  0  0  0  0  0  0  0  0  0  0  0
    5.7905  -49.2944  -25.3461 H   0  0  0  0  0  0  0  0  0  0  0  0
    7.2185  -50.5988  -23.4315 C   0  0  0  0  0  0  0  0  0  0  0  0
    7.6415  -50.1050  -21.1234 C   0  0  0  0  0  0  0  0  0  0  0  0
    7.1198  -49.6270  -22.3894 N   0  0  0  0  0  0  0  0  0  0  0  0
    7.7005  -48.3469  -22.7559 C   0  0  0  0  0  0  0  0  0  0  0  0
 36 37  1  0  0  0
 37 38  1  0  0  0
 37 35  1  0  0  0
 35 31  1  0  0  0
 31 32  2  0  0  0
 31 33  1  0  0  0
 33 30  1  0  0  0
 30 29  1  0  0  0
 29 28  1  0  0  0
 28  1  1  0  0  0
  1  2  2  0  0  0
  2  3  1  0  0  0
  3  4  2  0  0  0
  4  5  1  0  0  0
  5  6  2  0  0  0
  6  7  1  0  0  0
  7 17  1  0  0  0
 17 19  1  0  0  0
 19 20  2  0  0  0
 20 21  1  0  0  0
 21 22  2  0  0  0
 22 23  1  0  0  0
 22 24  1  0  0  0
 24 25  1  0  0  0
 24 26  2  0  0  0
 26 27  1  0  0  0
  7  8  2  0  0  0
  8  9  1  0  0  0
  9 10  2  0  0  0
 10 11  1  0  0  0
 11 12  1  0  0  0
 12 13  2  0  0  0
 12 15  1  0  0  0
 15 16  2  0  0  0
 10  1  1  0  0  0
  8  3  1  0  0  0
 26 19  1  0  0  0
 33 34  1  0  0  0
 17 18  1  0  0  0
 11 14  1  0  0  0
M  END
> <minimizedAffinity>
-6.72799

> <CNNscore>
0.5587733984

> <CNNaffinity>
7.2212495804

> <CNN_VS>
4.0350422859

> <CNNaffinity_variance>
0.0766818970

$$$$
[H]C([H])=C([H])C(=O)N([H])c1c(OC([H])([H])C([H])([H])N([H])C(=O)C([H])([H])N(C([H])([H])[H])C([H])([H])[H])c([H])c2nc([H])nc(N([H])c3c([H])c([H])c(Br)c(Cl)c3F)c2c1[H]


 38 40  0  0  0  0  0  0  0  0999 V2000
   -0.7481  -52.8424  -19.4465 C   0  0  0  0  0  0  0  0  0  0  0  0
   -1.2064  -53.8593  -20.2607 C   0  0  0  0  0  0  0  0  0  0  0  0
   -0.9761  -53.9759  -21.5966 C   0  0  0  0  0  0  0  0  0  0  0  0
   -1.4768  -55.0279  -22.3094 N   0  0  0  0  0  0  0  0  0  0  0  0
   -1.2417  -55.1333  -23.6262 C   0  0  0  0  0  0  0  0  0  0  0  0
   -0.5125  -54.1958  -24.2258 N   0  0  0  0  0  0  0  0  0  0  0  0
    0.0114  -53.1310  -23.5788 C   0  0  0  0  0  0  0  0  0  0  0  0
   -0.2224  -53.0028  -22.2050 C   0  0  0  0  0  0  0  0  0  0  0  0
    0.2750  -51.9483  -21.4610 C   0  0  0  0  0  0  0  0  0  0  0  0
    0.0283  -51.8486  -20.0979 C   0  0  0  0  0  0  0  0  0  0  0  0
    0.5014  -50.7990  -19.2867 N   0  0  0  0  0  0  0  0  0  0  0  0
    1.7422  -50.1916  -19.2942 C   0  0  0  0  0  0  0  0  0  0  0  0
    2.6720  -50.4857  -20.0440 O   0  0  0  0  0  0  0  0  0  0  0  0
   -0.1761  -50.3928  -18.5483 H   0  0  0  0  0  0  0  0  0  0  0  0
    2.0149  -49.0944  -18.3392 C   0  0  0  0  0  0  0  0  0  0  0  0
    1.2851  -48.9208  -17.2651 C   0  0  0  0  0  0  0  0  0  0  0  0
    0.7757  -52.1517  -24.2345 N   0  0  0  0  0  0  0  0  0  0  0  0
    0.2663  -51.4774  -24.8860 H   0  0  0  0  0  0  0  0  0  0  0  0
    2.1623  -51.9046  -24.1704 C   0  0  0  0  0  0  0  0  0  0  0  0
    3.1011  -52.7906  -24.5729 C   0  0  0  0  0  0  0  0  0  0  0  0
    4.4691  -52.4690  -24.4743 C   0  0  0  0  0  0  0  0  0  0  0  0
    4.8862  -51.2674  -23.9757 C   0  0  0  0  0  0  0  0  0  0  0  0
    6.7199  -50.7873  -23.8228 Br  0  0  0  0  0  0  0  0  0  0  0  0
    3.9465  -50.3677  -23.5673 C   0  0  0  0  0  0  0  0  0  0  0  0
    4.4478  -48.8038  -22.9154 Cl  0  0  0  0  0  0  0  0  0  0  0  0
    2.6147  -50.6816  -23.6637 C   0  0  0  0  0  0  0  0  0  0  0  0
    1.7193  -49.7361  -23.2380 F   0  0  0  0  0  0  0  0  0  0  0  0
   -0.9733  -52.7456  -18.1813 O   0  0  0  0  0  0  0  0  0  0  0  0
   -1.2673  -52.8088  -16.9250 C   0  0  0  0  0  0  0  0  0  0  0  0
   -1.1582  -51.5228  -16.0898 C   0  0  0  0  0  0  0  0  0  0  0  0
    0.3555  -50.8458  -14.2691 C   0  0  0  0  0  0  0  0  0  0  0  0
   -0.6301  -50.3721  -13.6422 O   0  0  0  0  0  0  0  0  0  0  0  0
    0.1527  -51.4499  -15.5295 N   0  0  0  0  0  0  0  0  0  0  0  0
    0.9740  -51.8384  -16.0236 H   0  0  0  0  0  0  0  0  0  0  0  0
    1.6973  -50.7427  -13.6397 C   0  0  0  0  0  0  0  0  0  0  0  0
    3.5925  -51.6654  -14.7826 C   0  0  0  0  0  0  0  0  0  0  0  0
    2.4476  -51.9228  -13.9304 N   0  0  0  0  0  0  0  0  0  0  0  0
    2.8266  -52.6580  -12.7363 C   0  0  0  0  0  0  0  0  0  0  0  0
 36 37  1  0  0  0
 37 38  1  0  0  0
 37 35  1  0  0  0
 35 31  1  0  0  0
 31 32  2  0  0  0
 31 33  1  0  0  0
 33 30  1  0  0  0
 30 29  1  0  0  0
 29 28  1  0  0  0
 28  1  1  0  0  0
  1  2  2  0  0  0
  2  3  1  0  0  0
  3  4  2  0  0  0
  4  5  1  0  0  0
  5  6  2  0  0  0
  6  7  1  0  0  0
  7 17  1  0  0  0
 17 19  1  0  0  0
 19 20  2  0  0  0
 20 21  1  0  0  0
 21 22  2  0  0  0
 22 23  1  0  0  0
 22 24  1  0  0  0
 24 25  1  0  0  0
 24 26  2  0  0  0
 26 27  1  0  0  0
  7  8  2  0  0  0
  8  9  1  0  0  0
  9 10  2  0  0  0
 10 11  1  0  0  0
 11 12  1  0  0  0
 12 13  2  0  0  0
 12 15  1  0  0  0
 15 16  2  0  0  0
 10  1  1  0  0  0
  8  3  1  0  0  0
 26 19  1  0  0  0
 33 34  1  0  0  0
 17 18  1  0  0  0
 11 14  1  0  0  0
M  END
> <minimizedAffinity>
-7.15821

> <CNNscore>
0.5384690762

> <CNNaffinity>
7.2300810814

> <CNN_VS>
3.8931751251

> <CNNaffinity_variance>
0.0520355105

$$$$
[H]c1nc(N([H])c2c([H])c([H])c([H])c([H])c2[H])c([H])c(-c2c(-c3c([H])c([H])c(F)c([H])c3[H])nc(SC([H])([H])C([H])([H])C([H])([H])N([H])[H])n2[H])c1[H]


 34 37  0  0  0  0  0  0  0  0999 V2000
    2.5561  -50.6428  -24.3684 C   0  0  0  0  0  0  0  0  0  0  0  0
    1.7773  -50.7357  -25.4317 N   0  0  0  0  0  0  0  0  0  0  0  0
    0.7837  -51.6273  -25.2412 C   0  0  0  0  0  0  0  0  0  0  0  0
    0.9657  -52.1091  -23.9843 C   0  0  0  0  0  0  0  0  0  0  0  0
    2.0650  -51.5051  -23.4297 N   0  0  0  0  0  0  0  0  0  0  0  0
    2.4342  -51.6857  -22.4734 H   0  0  0  0  0  0  0  0  0  0  0  0
   -0.2360  -51.9697  -26.2089 C   0  0  0  0  0  0  0  0  0  0  0  0
    0.1371  -52.5883  -27.4227 C   0  0  0  0  0  0  0  0  0  0  0  0
   -0.7950  -52.9241  -28.3653 C   0  0  0  0  0  0  0  0  0  0  0  0
   -2.1233  -52.6596  -28.1376 C   0  0  0  0  0  0  0  0  0  0  0  0
   -3.0514  -52.9916  -29.0714 F   0  0  0  0  0  0  0  0  0  0  0  0
   -2.5265  -52.0485  -26.9477 C   0  0  0  0  0  0  0  0  0  0  0  0
   -1.5710  -51.7180  -26.0113 C   0  0  0  0  0  0  0  0  0  0  0  0
    0.1443  -53.1003  -23.3211 C   0  0  0  0  0  0  0  0  0  0  0  0
   -0.4457  -54.1584  -23.9783 C   0  0  0  0  0  0  0  0  0  0  0  0
   -1.2252  -55.0919  -23.3253 C   0  0  0  0  0  0  0  0  0  0  0  0
   -1.3998  -54.9476  -22.0207 N   0  0  0  0  0  0  0  0  0  0  0  0
   -0.8804  -53.9658  -21.2779 C   0  0  0  0  0  0  0  0  0  0  0  0
   -0.0868  -53.0230  -21.9664 C   0  0  0  0  0  0  0  0  0  0  0  0
   -1.0849  -53.8440  -19.9053 N   0  0  0  0  0  0  0  0  0  0  0  0
   -1.6411  -54.6463  -19.4489 H   0  0  0  0  0  0  0  0  0  0  0  0
   -0.6738  -52.8309  -19.0476 C   0  0  0  0  0  0  0  0  0  0  0  0
    0.2183  -51.8404  -19.3569 C   0  0  0  0  0  0  0  0  0  0  0  0
    0.6165  -50.8562  -18.4321 C   0  0  0  0  0  0  0  0  0  0  0  0
    0.0962  -50.8847  -17.1786 C   0  0  0  0  0  0  0  0  0  0  0  0
   -0.8089  -51.8572  -16.8059 C   0  0  0  0  0  0  0  0  0  0  0  0
   -1.1752  -52.7976  -17.7232 C   0  0  0  0  0  0  0  0  0  0  0  0
    3.9995  -49.6507  -24.0482 S   0  0  0  0  0  0  0  0  0  0  0  0
    4.6222  -50.0451  -22.4019 C   0  0  0  0  0  0  0  0  0  0  0  0
    5.7347  -51.0490  -22.5205 C   0  0  0  0  0  0  0  0  0  0  0  0
    6.3164  -52.4491  -24.4435 N   0  0  0  0  0  0  0  0  0  0  0  0
    6.2298  -51.1141  -23.9206 C   0  0  0  0  0  0  0  0  0  0  0  0
    7.2793  -52.6287  -24.7942 H   0  0  0  0  0  0  0  0  0  0  0  0
    5.6044  -52.5390  -25.2292 H   0  0  0  0  0  0  0  0  0  0  0  0
 31 32  1  0  0  0
 32 30  1  0  0  0
 30 29  1  0  0  0
 29 28  1  0  0  0
 28  1  1  0  0  0
  1  2  2  0  0  0
  2  3  1  0  0  0
  3  4  2  0  0  0
  4  5  1  0  0  0
  4 14  1  0  0  0
 14 15  2  0  0  0
 15 16  1  0  0  0
 16 17  2  0  0  0
 17 18  1  0  0  0
 18 20  1  0  0  0
 20 22  1  0  0  0
 22 23  2  0  0  0
 23 24  1  0  0  0
 24 25  2  0  0  0
 25 26  1  0  0  0
 26 27  2  0  0  0
 18 19  2  0  0  0
  3  7  1  0  0  0
  7  8  2  0  0  0
  8  9  1  0  0  0
  9 10  2  0  0  0
 10 11  1  0  0  0
 10 12  1  0  0  0
 12 13  2  0  0  0
  5  1  1  0  0  0
 19 14  1  0  0  0
 13  7  1  0  0  0
 27 22  1  0  0  0
 31 33  1  0  0  0
 31 34  1  0  0  0
  5  6  1  0  0  0
 20 21  1  0  0  0
M  END
> <minimizedAffinity>
-9.26117

> <CNNscore>
0.9760358334

> <CNNaffinity>
7.8058075905

> <CNN_VS>
7.6187477112

> <CNNaffinity_variance>
0.0500753410

$$$$
[H]c1nc(N([H])c2c([H])c([H])c([H])c([H])c2[H])c([H])c(-c2c(-c3c([H])c([H])c(F)c([H])c3[H])nc(SC([H])([H])C([H])([H])C([H])([H])N([H])[H])n2[H])c1[H]


 34 37  0  0  0  0  0  0  0  0999 V2000
    2.4268  -50.5176  -24.1703 C   0  0  0  0  0  0  0  0  0  0  0  0
    1.7136  -50.6426  -25.2754 N   0  0  0  0  0  0  0  0  0  0  0  0
    0.7389  -51.5638  -25.1341 C   0  0  0  0  0  0  0  0  0  0  0  0
    0.8634  -52.0306  -23.8646 C   0  0  0  0  0  0  0  0  0  0  0  0
    1.9098  -51.3883  -23.2535 N   0  0  0  0  0  0  0  0  0  0  0  0
    2.2289  -51.5502  -22.2761 H   0  0  0  0  0  0  0  0  0  0  0  0
   -0.2124  -51.9452  -26.1554 C   0  0  0  0  0  0  0  0  0  0  0  0
   -1.5881  -51.6985  -25.9511 C   0  0  0  0  0  0  0  0  0  0  0  0
   -2.5198  -52.0474  -26.8892 C   0  0  0  0  0  0  0  0  0  0  0  0
   -2.1213  -52.6498  -28.0574 C   0  0  0  0  0  0  0  0  0  0  0  0
   -3.0437  -52.9976  -28.9910 F   0  0  0  0  0  0  0  0  0  0  0  0
   -0.7683  -52.9084  -28.2912 C   0  0  0  0  0  0  0  0  0  0  0  0
    0.1541  -52.5491  -27.3325 C   0  0  0  0  0  0  0  0  0  0  0  0
    0.0365  -53.0424  -23.2406 C   0  0  0  0  0  0  0  0  0  0  0  0
   -0.4408  -54.1492  -23.9089 C   0  0  0  0  0  0  0  0  0  0  0  0
   -1.2279  -55.1016  -23.2935 C   0  0  0  0  0  0  0  0  0  0  0  0
   -1.5233  -54.9271  -22.0145 N   0  0  0  0  0  0  0  0  0  0  0  0
   -1.1199  -53.8975  -21.2644 C   0  0  0  0  0  0  0  0  0  0  0  0
   -0.3161  -52.9361  -21.9143 C   0  0  0  0  0  0  0  0  0  0  0  0
   -1.4499  -53.7448  -19.9196 N   0  0  0  0  0  0  0  0  0  0  0  0
   -2.2498  -54.3748  -19.5666 H   0  0  0  0  0  0  0  0  0  0  0  0
   -0.8924  -52.8916  -18.9750 C   0  0  0  0  0  0  0  0  0  0  0  0
   -1.2544  -52.8186  -17.6574 C   0  0  0  0  0  0  0  0  0  0  0  0
   -0.6690  -51.9105  -16.7545 C   0  0  0  0  0  0  0  0  0  0  0  0
    0.2971  -51.0693  -17.2035 C   0  0  0  0  0  0  0  0  0  0  0  0
    0.7070  -51.0950  -18.5208 C   0  0  0  0  0  0  0  0  0  0  0  0
    0.1212  -51.9851  -19.3721 C   0  0  0  0  0  0  0  0  0  0  0  0
    3.8179  -49.4781  -23.7771 S   0  0  0  0  0  0  0  0  0  0  0  0
    4.8755  -49.3475  -25.2326 C   0  0  0  0  0  0  0  0  0  0  0  0
    4.4263  -48.1815  -26.0680 C   0  0  0  0  0  0  0  0  0  0  0  0
    3.7281  -50.0307  -27.5135 N   0  0  0  0  0  0  0  0  0  0  0  0
    4.0514  -48.6334  -27.4336 C   0  0  0  0  0  0  0  0  0  0  0  0
    4.3154  -50.4875  -28.2408 H   0  0  0  0  0  0  0  0  0  0  0  0
    2.6949  -50.1136  -27.7542 H   0  0  0  0  0  0  0  0  0  0  0  0
 31 32  1  0  0  0
 32 30  1  0  0  0
 30 29  1  0  0  0
 29 28  1  0  0  0
 28  1  1  0  0  0
  1  2  2  0  0  0
  2  3  1  0  0  0
  3  4  2  0  0  0
  4  5  1  0  0  0
  4 14  1  0  0  0
 14 15  2  0  0  0
 15 16  1  0  0  0
 16 17  2  0  0  0
 17 18  1  0  0  0
 18 20  1  0  0  0
 20 22  1  0  0  0
 22 23  2  0  0  0
 23 24  1  0  0  0
 24 25  2  0  0  0
 25 26  1  0  0  0
 26 27  2  0  0  0
 18 19  2  0  0  0
  3  7  1  0  0  0
  7  8  2  0  0  0
  8  9  1  0  0  0
  9 10  2  0  0  0
 10 11  1  0  0  0
 10 12  1  0  0  0
 12 13  2  0  0  0
  5  1  1  0  0  0
 19 14  1  0  0  0
 13  7  1  0  0  0
 27 22  1  0  0  0
 31 33  1  0  0  0
 31 34  1  0  0  0
  5  6  1  0  0  0
 20 21  1  0  0  0
M  END
> <minimizedAffinity>
-8.96961

> <CNNscore>
0.9486750364

> <CNNaffinity>
7.7001943588

> <CNN_VS>
7.3049821854

> <CNNaffinity_variance>
0.0722163692

$$$$
[H]c1nc(N([H])c2c([H])c([H])c([H])c([H])c2[H])c([H])c(-c2c(-c3c([H])c([H])c(F)c([H])c3[H])nc(SC([H])([H])C([H])([H])C([H])([H])N([H])[H])n2[H])c1[H]


 34 37  0  0  0  0  0  0  0  0999 V2000
    2.5796  -50.5977  -24.2308 C   0  0  0  0  0  0  0  0  0  0  0  0
    1.8359  -50.7045  -25.3176 N   0  0  0  0  0  0  0  0  0  0  0  0
    0.8428  -51.6016  -25.1518 C   0  0  0  0  0  0  0  0  0  0  0  0
    0.9877  -52.0721  -23.8858 C   0  0  0  0  0  0  0  0  0  0  0  0
    2.0645  -51.4560  -23.3012 N   0  0  0  0  0  0  0  0  0  0  0  0
    2.4041  -51.6264  -22.3322 H   0  0  0  0  0  0  0  0  0  0  0  0
   -0.1430  -51.9588  -26.1488 C   0  0  0  0  0  0  0  0  0  0  0  0
   -1.5032  -51.6526  -25.9227 C   0  0  0  0  0  0  0  0  0  0  0  0
   -2.4665  -51.9769  -26.8375 C   0  0  0  0  0  0  0  0  0  0  0  0
   -2.1157  -52.6128  -28.0031 C   0  0  0  0  0  0  0  0  0  0  0  0
   -3.0696  -52.9364  -28.9136 F   0  0  0  0  0  0  0  0  0  0  0  0
   -0.7793  -52.9305  -28.2582 C   0  0  0  0  0  0  0  0  0  0  0  0
    0.1756  -52.5951  -27.3228 C   0  0  0  0  0  0  0  0  0  0  0  0
    0.1522  -53.0637  -23.2413 C   0  0  0  0  0  0  0  0  0  0  0  0
   -0.4100  -54.1306  -23.9085 C   0  0  0  0  0  0  0  0  0  0  0  0
   -1.2037  -55.0643  -23.2732 C   0  0  0  0  0  0  0  0  0  0  0  0
   -1.4202  -54.9116  -21.9759 N   0  0  0  0  0  0  0  0  0  0  0  0
   -0.9307  -53.9209  -21.2247 C   0  0  0  0  0  0  0  0  0  0  0  0
   -0.1219  -52.9779  -21.8951 C   0  0  0  0  0  0  0  0  0  0  0  0
   -1.1790  -53.7902  -19.8601 N   0  0  0  0  0  0  0  0  0  0  0  0
   -1.8019  -54.5569  -19.4292 H   0  0  0  0  0  0  0  0  0  0  0  0
   -0.7374  -52.8077  -18.9822 C   0  0  0  0  0  0  0  0  0  0  0  0
    0.1640  -51.8221  -19.2801 C   0  0  0  0  0  0  0  0  0  0  0  0
    0.5934  -50.8702  -18.3356 C   0  0  0  0  0  0  0  0  0  0  0  0
    0.0952  -50.9263  -17.0741 C   0  0  0  0  0  0  0  0  0  0  0  0
   -0.8178  -51.8955  -16.7122 C   0  0  0  0  0  0  0  0  0  0  0  0
   -1.2146  -52.8043  -17.6485 C   0  0  0  0  0  0  0  0  0  0  0  0
    4.0053  -49.5930  -23.8727 S   0  0  0  0  0  0  0  0  0  0  0  0
    4.7932  -50.2155  -22.3742 C   0  0  0  0  0  0  0  0  0  0  0  0
    4.2341  -49.4896  -21.1825 C   0  0  0  0  0  0  0  0  0  0  0  0
    3.5693  -51.7543  -20.5298 N   0  0  0  0  0  0  0  0  0  0  0  0
    3.9475  -50.4438  -20.0793 C   0  0  0  0  0  0  0  0  0  0  0  0
    2.6554  -52.0213  -20.1102 H   0  0  0  0  0  0  0  0  0  0  0  0
    4.3337  -52.4338  -20.2361 H   0  0  0  0  0  0  0  0  0  0  0  0
 31 32  1  0  0  0
 32 30  1  0  0  0
 30 29  1  0  0  0
 29 28  1  0  0  0
 28  1  1  0  0  0
  1  2  2  0  0  0
  2  3  1  0  0  0
  3  4  2  0  0  0
  4  5  1  0  0  0
  4 14  1  0  0  0
 14 15  2  0  0  0
 15 16  1  0  0  0
 16 17  2  0  0  0
 17 18  1  0  0  0
 18 20  1  0  0  0
 20 22  1  0  0  0
 22 23  2  0  0  0
 23 24  1  0  0  0
 24 25  2  0  0  0
 25 26  1  0  0  0
 26 27  2  0  0  0
 18 19  2  0  0  0
  3  7  1  0  0  0
  7  8  2  0  0  0
  8  9  1  0  0  0
  9 10  2  0  0  0
 10 11  1  0  0  0
 10 12  1  0  0  0
 12 13  2  0  0  0
  5  1  1  0  0  0
 19 14  1  0  0  0
 13  7  1  0  0  0
 27 22  1  0  0  0
 31 33  1  0  0  0
 31 34  1  0  0  0
  5  6  1  0  0  0
 20 21  1  0  0  0
M  END
> <minimizedAffinity>
-8.73487

> <CNNscore>
0.9024774432

> <CNNaffinity>
7.6797676086

> <CNN_VS>
6.9308171272

> <CNNaffinity_variance>
0.1376676112

$$$$
[H]c1nc(N([H])c2c([H])c([H])c([H])c([H])c2[H])c([H])c(-c2c(-c3c([H])c([H])c(F)c([H])c3[H])nc(SC([H])([H])C([H])([H])C([H])([H])N([H])[H])n2[H])c1[H]


 34 37  0  0  0  0  0  0  0  0999 V2000
   -0.4434  -52.0332  -18.0395 C   0  0  0  0  0  0  0  0  0  0  0  0
    0.4360  -51.2100  -18.5823 N   0  0  0  0  0  0  0  0  0  0  0  0
    0.5919  -51.4507  -19.9000 C   0  0  0  0  0  0  0  0  0  0  0  0
   -0.2436  -52.4844  -20.1804 C   0  0  0  0  0  0  0  0  0  0  0  0
   -0.8940  -52.8568  -19.0318 N   0  0  0  0  0  0  0  0  0  0  0  0
   -1.5939  -53.6234  -18.9565 H   0  0  0  0  0  0  0  0  0  0  0  0
    1.4824  -50.7334  -20.7865 C   0  0  0  0  0  0  0  0  0  0  0  0
    2.7526  -51.2751  -21.0836 C   0  0  0  0  0  0  0  0  0  0  0  0
    3.6254  -50.6270  -21.9130 C   0  0  0  0  0  0  0  0  0  0  0  0
    3.2703  -49.4249  -22.4744 C   0  0  0  0  0  0  0  0  0  0  0  0
    4.1346  -48.7786  -23.2983 F   0  0  0  0  0  0  0  0  0  0  0  0
    2.0216  -48.8609  -22.2012 C   0  0  0  0  0  0  0  0  0  0  0  0
    1.1572  -49.5305  -21.3624 C   0  0  0  0  0  0  0  0  0  0  0  0
   -0.4299  -53.1065  -21.4747 C   0  0  0  0  0  0  0  0  0  0  0  0
   -0.8755  -54.4006  -21.6366 C   0  0  0  0  0  0  0  0  0  0  0  0
   -1.0459  -54.9733  -22.8809 C   0  0  0  0  0  0  0  0  0  0  0  0
   -0.7658  -54.2359  -23.9445 N   0  0  0  0  0  0  0  0  0  0  0  0
   -0.3284  -52.9737  -23.9131 C   0  0  0  0  0  0  0  0  0  0  0  0
   -0.1616  -52.4085  -22.6304 C   0  0  0  0  0  0  0  0  0  0  0  0
   -0.0429  -52.2260  -25.0534 N   0  0  0  0  0  0  0  0  0  0  0  0
    0.6486  -51.4120  -24.9099 H   0  0  0  0  0  0  0  0  0  0  0  0
   -0.5288  -52.3840  -26.3456 C   0  0  0  0  0  0  0  0  0  0  0  0
    0.2328  -52.6131  -27.4592 C   0  0  0  0  0  0  0  0  0  0  0  0
   -0.3189  -52.7365  -28.7487 C   0  0  0  0  0  0  0  0  0  0  0  0
   -1.6633  -52.6257  -28.9007 C   0  0  0  0  0  0  0  0  0  0  0  0
   -2.4854  -52.3962  -27.8166 C   0  0  0  0  0  0  0  0  0  0  0  0
   -1.9221  -52.2805  -26.5799 C   0  0  0  0  0  0  0  0  0  0  0  0
   -1.0401  -52.1851  -16.3689 S   0  0  0  0  0  0  0  0  0  0  0  0
   -1.0837  -50.5464  -15.6162 C   0  0  0  0  0  0  0  0  0  0  0  0
    0.2299  -50.2786  -14.9364 C   0  0  0  0  0  0  0  0  0  0  0  0
    0.5231  -48.7367  -16.8161 N   0  0  0  0  0  0  0  0  0  0  0  0
    0.8285  -49.0148  -15.4403 C   0  0  0  0  0  0  0  0  0  0  0  0
    1.4039  -48.5921  -17.3506 H   0  0  0  0  0  0  0  0  0  0  0  0
   -0.0853  -47.8642  -16.8456 H   0  0  0  0  0  0  0  0  0  0  0  0
 31 32  1  0  0  0
 32 30  1  0  0  0
 30 29  1  0  0  0
 29 28  1  0  0  0
 28  1  1  0  0  0
  1  2  2  0  0  0
  2  3  1  0  0  0
  3  4  2  0  0  0
  4  5  1  0  0  0
  4 14  1  0  0  0
 14 15  2  0  0  0
 15 16  1  0  0  0
 16 17  2  0  0  0
 17 18  1  0  0  0
 18 20  1  0  0  0
 20 22  1  0  0  0
 22 23  2  0  0  0
 23 24  1  0  0  0
 24 25  2  0  0  0
 25 26  1  0  0  0
 26 27  2  0  0  0
 18 19  2  0  0  0
  3  7  1  0  0  0
  7  8  2  0  0  0
  8  9  1  0  0  0
  9 10  2  0  0  0
 10 11  1  0  0  0
 10 12  1  0  0  0
 12 13  2  0  0  0
  5  1  1  0  0  0
 19 14  1  0  0  0
 13  7  1  0  0  0
 27 22  1  0  0  0
 31 33  1  0  0  0
 31 34  1  0  0  0
  5  6  1  0  0  0
 20 21  1  0  0  0
M  END
> <minimizedAffinity>
-8.09854

> <CNNscore>
0.6096395850

> <CNNaffinity>
7.1568450928

> <CNN_VS>
4.3630962372

> <CNNaffinity_variance>
0.1079207435

$$$$
[H]c1nc(N([H])c2c([H])c([H])c([H])c([H])c2[H])c([H])c(-c2c(-c3c([H])c([H])c(F)c([H])c3[H])nc(SC([H])([H])C([H])([H])C([H])([H])N([H])[H])n2[H])c1[H]


 34 37  0  0  0  0  0  0  0  0999 V2000
    2.9881  -51.0911  -19.4928 C   0  0  0  0  0  0  0  0  0  0  0  0
    3.2984  -50.9106  -20.7643 N   0  0  0  0  0  0  0  0  0  0  0  0
    2.4329  -51.5460  -21.5802 C   0  0  0  0  0  0  0  0  0  0  0  0
    1.5382  -52.1521  -20.7573 C   0  0  0  0  0  0  0  0  0  0  0  0
    1.8718  -51.8774  -19.4557 N   0  0  0  0  0  0  0  0  0  0  0  0
    1.3561  -52.2148  -18.6168 H   0  0  0  0  0  0  0  0  0  0  0  0
    2.4922  -51.5556  -23.0258 C   0  0  0  0  0  0  0  0  0  0  0  0
    3.2750  -52.5305  -23.6832 C   0  0  0  0  0  0  0  0  0  0  0  0
    3.3612  -52.5714  -25.0473 C   0  0  0  0  0  0  0  0  0  0  0  0
    2.6769  -51.6514  -25.8033 C   0  0  0  0  0  0  0  0  0  0  0  0
    2.7604  -51.6891  -27.1580 F   0  0  0  0  0  0  0  0  0  0  0  0
    1.8937  -50.6735  -25.1851 C   0  0  0  0  0  0  0  0  0  0  0  0
    1.8208  -50.6499  -23.8091 C   0  0  0  0  0  0  0  0  0  0  0  0
    0.4102  -52.9617  -21.1684 C   0  0  0  0  0  0  0  0  0  0  0  0
   -0.6241  -53.3049  -20.3246 C   0  0  0  0  0  0  0  0  0  0  0  0
   -1.6900  -54.0782  -20.7386 C   0  0  0  0  0  0  0  0  0  0  0  0
   -1.7002  -54.4949  -21.9954 N   0  0  0  0  0  0  0  0  0  0  0  0
   -0.7571  -54.2272  -22.9033 C   0  0  0  0  0  0  0  0  0  0  0  0
    0.3231  -53.4350  -22.4580 C   0  0  0  0  0  0  0  0  0  0  0  0
   -0.7994  -54.6826  -24.2192 N   0  0  0  0  0  0  0  0  0  0  0  0
   -1.0004  -55.7348  -24.3369 H   0  0  0  0  0  0  0  0  0  0  0  0
   -0.6152  -53.9683  -25.3969 C   0  0  0  0  0  0  0  0  0  0  0  0
   -1.0968  -52.7125  -25.6487 C   0  0  0  0  0  0  0  0  0  0  0  0
   -0.8993  -52.0516  -26.8763 C   0  0  0  0  0  0  0  0  0  0  0  0
   -0.2013  -52.6812  -27.8557 C   0  0  0  0  0  0  0  0  0  0  0  0
    0.3111  -53.9477  -27.6626 C   0  0  0  0  0  0  0  0  0  0  0  0
    0.1032  -54.5629  -26.4632 C   0  0  0  0  0  0  0  0  0  0  0  0
    3.7584  -50.5068  -17.9976 S   0  0  0  0  0  0  0  0  0  0  0  0
    2.4822  -50.2483  -16.7493 C   0  0  0  0  0  0  0  0  0  0  0  0
    1.4518  -49.2938  -17.2847 C   0  0  0  0  0  0  0  0  0  0  0  0
   -0.2676  -51.0313  -17.4310 N   0  0  0  0  0  0  0  0  0  0  0  0
    0.0844  -49.7400  -16.9095 C   0  0  0  0  0  0  0  0  0  0  0  0
   -1.1542  -50.9637  -17.9713 H   0  0  0  0  0  0  0  0  0  0  0  0
   -0.3755  -51.6974  -16.6082 H   0  0  0  0  0  0  0  0  0  0  0  0
 31 32  1  0  0  0
 32 30  1  0  0  0
 30 29  1  0  0  0
 29 28  1  0  0  0
 28  1  1  0  0  0
  1  2  2  0  0  0
  2  3  1  0  0  0
  3  4  2  0  0  0
  4  5  1  0  0  0
  4 14  1  0  0  0
 14 15  2  0  0  0
 15 16  1  0  0  0
 16 17  2  0  0  0
 17 18  1  0  0  0
 18 20  1  0  0  0
 20 22  1  0  0  0
 22 23  2  0  0  0
 23 24  1  0  0  0
 24 25  2  0  0  0
 25 26  1  0  0  0
 26 27  2  0  0  0
 18 19  2  0  0  0
  3  7  1  0  0  0
  7  8  2  0  0  0
  8  9  1  0  0  0
  9 10  2  0  0  0
 10 11  1  0  0  0
 10 12  1  0  0  0
 12 13  2  0  0  0
  5  1  1  0  0  0
 19 14  1  0  0  0
 13  7  1  0  0  0
 27 22  1  0  0  0
 31 33  1  0  0  0
 31 34  1  0  0  0
  5  6  1  0  0  0
 20 21  1  0  0  0
M  END
> <minimizedAffinity>
-7.91498

> <CNNscore>
0.5317736864

> <CNNaffinity>
7.2222976685

> <CNN_VS>
3.8406279087

> <CNNaffinity_variance>
0.4056971967

$$$$
[H]c1nc(N([H])c2c([H])c([H])c([H])c([H])c2[H])c([H])c(-c2c(-c3c([H])c([H])c(F)c([H])c3[H])nc(SC([H])([H])C([H])([H])C([H])([H])N([H])[H])n2[H])c1[H]


 34 37  0  0  0  0  0  0  0  0999 V2000
   -0.5417  -52.3136  -18.4179 C   0  0  0  0  0  0  0  0  0  0  0  0
    0.3993  -51.5274  -18.9098 N   0  0  0  0  0  0  0  0  0  0  0  0
    0.5629  -51.7199  -20.2345 C   0  0  0  0  0  0  0  0  0  0  0  0
   -0.3334  -52.6826  -20.5737 C   0  0  0  0  0  0  0  0  0  0  0  0
   -1.0273  -53.0612  -19.4530 N   0  0  0  0  0  0  0  0  0  0  0  0
   -1.7772  -53.7824  -19.4228 H   0  0  0  0  0  0  0  0  0  0  0  0
    1.5143  -51.0249  -21.0742 C   0  0  0  0  0  0  0  0  0  0  0  0
    2.7451  -51.6425  -21.3889 C   0  0  0  0  0  0  0  0  0  0  0  0
    3.6731  -51.0180  -22.1755 C   0  0  0  0  0  0  0  0  0  0  0  0
    3.4137  -49.7654  -22.6753 C   0  0  0  0  0  0  0  0  0  0  0  0
    4.3330  -49.1424  -23.4566 F   0  0  0  0  0  0  0  0  0  0  0  0
    2.2063  -49.1259  -22.3833 C   0  0  0  0  0  0  0  0  0  0  0  0
    1.2850  -49.7728  -21.5884 C   0  0  0  0  0  0  0  0  0  0  0  0
   -0.5366  -53.2335  -21.8973 C   0  0  0  0  0  0  0  0  0  0  0  0
   -0.8200  -54.5621  -22.1301 C   0  0  0  0  0  0  0  0  0  0  0  0
   -1.0101  -55.0655  -23.4012 C   0  0  0  0  0  0  0  0  0  0  0  0
   -0.9127  -54.2251  -24.4199 N   0  0  0  0  0  0  0  0  0  0  0  0
   -0.6434  -52.9203  -24.3190 C   0  0  0  0  0  0  0  0  0  0  0  0
   -0.4528  -52.4275  -23.0100 C   0  0  0  0  0  0  0  0  0  0  0  0
   -0.5479  -52.0638  -25.4135 N   0  0  0  0  0  0  0  0  0  0  0  0
   -0.3216  -51.0369  -25.1773 H   0  0  0  0  0  0  0  0  0  0  0  0
   -0.7072  -52.3510  -26.7638 C   0  0  0  0  0  0  0  0  0  0  0  0
   -1.8970  -52.3607  -27.4397 C   0  0  0  0  0  0  0  0  0  0  0  0
   -1.9958  -52.6883  -28.8055 C   0  0  0  0  0  0  0  0  0  0  0  0
   -0.8663  -53.0082  -29.4871 C   0  0  0  0  0  0  0  0  0  0  0  0
    0.3639  -53.0152  -28.8622 C   0  0  0  0  0  0  0  0  0  0  0  0
    0.4282  -52.6941  -27.5383 C   0  0  0  0  0  0  0  0  0  0  0  0
   -1.1771  -52.4989  -16.7650 S   0  0  0  0  0  0  0  0  0  0  0  0
   -2.9278  -52.9231  -16.8596 C   0  0  0  0  0  0  0  0  0  0  0  0
   -3.6670  -52.2253  -15.7523 C   0  0  0  0  0  0  0  0  0  0  0  0
   -4.5120  -53.9339  -14.2150 N   0  0  0  0  0  0  0  0  0  0  0  0
   -4.8216  -53.0450  -15.3000 C   0  0  0  0  0  0  0  0  0  0  0  0
   -4.7695  -54.9084  -14.4731 H   0  0  0  0  0  0  0  0  0  0  0  0
   -5.0596  -53.6109  -13.3618 H   0  0  0  0  0  0  0  0  0  0  0  0
 31 32  1  0  0  0
 32 30  1  0  0  0
 30 29  1  0  0  0
 29 28  1  0  0  0
 28  1  1  0  0  0
  1  2  2  0  0  0
  2  3  1  0  0  0
  3  4  2  0  0  0
  4  5  1  0  0  0
  4 14  1  0  0  0
 14 15  2  0  0  0
 15 16  1  0  0  0
 16 17  2  0  0  0
 17 18  1  0  0  0
 18 20  1  0  0  0
 20 22  1  0  0  0
 22 23  2  0  0  0
 23 24  1  0  0  0
 24 25  2  0  0  0
 25 26  1  0  0  0
 26 27  2  0  0  0
 18 19  2  0  0  0
  3  7  1  0  0  0
  7  8  2  0  0  0
  8  9  1  0  0  0
  9 10  2  0  0  0
 10 11  1  0  0  0
 10 12  1  0  0  0
 12 13  2  0  0  0
  5  1  1  0  0  0
 19 14  1  0  0  0
 13  7  1  0  0  0
 27 22  1  0  0  0
 31 33  1  0  0  0
 31 34  1  0  0  0
  5  6  1  0  0  0
 20 21  1  0  0  0
M  END
> <minimizedAffinity>
-8.51582

> <CNNscore>
0.5207752585

> <CNNaffinity>
7.0089745522

> <CNN_VS>
3.6501004696

> <CNNaffinity_variance>
0.1154387742

$$$$
[H]c1nc(N([H])c2c([H])c([H])c([H])c([H])c2[H])c([H])c(-c2c(-c3c([H])c([H])c(F)c([H])c3[H])nc(SC([H])([H])C([H])([H])C([H])([H])N([H])[H])n2[H])c1[H]


 34 37  0  0  0  0  0  0  0  0999 V2000
   -0.2526  -52.9161  -22.2225 C   0  0  0  0  0  0  0  0  0  0  0  0
   -0.6158  -53.0837  -23.4818 N   0  0  0  0  0  0  0  0  0  0  0  0
    0.3533  -52.6903  -24.3331 C   0  0  0  0  0  0  0  0  0  0  0  0
    1.3717  -52.2557  -23.5463 C   0  0  0  0  0  0  0  0  0  0  0  0
    1.0082  -52.3905  -22.2308 N   0  0  0  0  0  0  0  0  0  0  0  0
    1.5987  -52.1348  -21.4126 H   0  0  0  0  0  0  0  0  0  0  0  0
    0.2734  -52.7352  -25.7771 C   0  0  0  0  0  0  0  0  0  0  0  0
    1.3371  -53.3002  -26.5150 C   0  0  0  0  0  0  0  0  0  0  0  0
    1.3027  -53.3581  -27.8808 C   0  0  0  0  0  0  0  0  0  0  0  0
    0.2171  -52.8604  -28.5589 C   0  0  0  0  0  0  0  0  0  0  0  0
    0.1798  -52.9162  -29.9151 F   0  0  0  0  0  0  0  0  0  0  0  0
   -0.8520  -52.2945  -27.8598 C   0  0  0  0  0  0  0  0  0  0  0  0
   -0.7970  -52.2459  -26.4836 C   0  0  0  0  0  0  0  0  0  0  0  0
    2.6415  -51.7308  -24.0036 C   0  0  0  0  0  0  0  0  0  0  0  0
    3.8300  -52.4203  -23.8951 C   0  0  0  0  0  0  0  0  0  0  0  0
    5.0292  -51.8999  -24.3382 C   0  0  0  0  0  0  0  0  0  0  0  0
    5.0157  -50.6936  -24.8842 N   0  0  0  0  0  0  0  0  0  0  0  0
    3.9293  -49.9321  -25.0429 C   0  0  0  0  0  0  0  0  0  0  0  0
    2.7143  -50.4843  -24.5828 C   0  0  0  0  0  0  0  0  0  0  0  0
    3.9510  -48.6654  -25.6223 N   0  0  0  0  0  0  0  0  0  0  0  0
    4.4738  -48.5970  -26.5622 H   0  0  0  0  0  0  0  0  0  0  0  0
    3.3952  -47.4811  -25.1537 C   0  0  0  0  0  0  0  0  0  0  0  0
    3.2547  -47.1349  -23.8373 C   0  0  0  0  0  0  0  0  0  0  0  0
    2.6559  -45.9290  -23.4253 C   0  0  0  0  0  0  0  0  0  0  0  0
    2.1972  -45.0680  -24.3693 C   0  0  0  0  0  0  0  0  0  0  0  0
    2.3108  -45.3591  -25.7132 C   0  0  0  0  0  0  0  0  0  0  0  0
    2.8949  -46.5351  -26.0819 C   0  0  0  0  0  0  0  0  0  0  0  0
   -1.1062  -53.2488  -20.6958 S   0  0  0  0  0  0  0  0  0  0  0  0
    0.0744  -53.1471  -19.3358 C   0  0  0  0  0  0  0  0  0  0  0  0
   -0.0183  -51.7881  -18.7002 C   0  0  0  0  0  0  0  0  0  0  0  0
   -1.1634  -53.1594  -17.0254 N   0  0  0  0  0  0  0  0  0  0  0  0
   -0.5415  -51.8969  -17.3131 C   0  0  0  0  0  0  0  0  0  0  0  0
   -2.1294  -53.0041  -16.6714 H   0  0  0  0  0  0  0  0  0  0  0  0
   -0.5689  -53.6579  -16.2972 H   0  0  0  0  0  0  0  0  0  0  0  0
 31 32  1  0  0  0
 32 30  1  0  0  0
 30 29  1  0  0  0
 29 28  1  0  0  0
 28  1  1  0  0  0
  1  2  2  0  0  0
  2  3  1  0  0  0
  3  4  2  0  0  0
  4  5  1  0  0  0
  4 14  1  0  0  0
 14 15  2  0  0  0
 15 16  1  0  0  0
 16 17  2  0  0  0
 17 18  1  0  0  0
 18 20  1  0  0  0
 20 22  1  0  0  0
 22 23  2  0  0  0
 23 24  1  0  0  0
 24 25  2  0  0  0
 25 26  1  0  0  0
 26 27  2  0  0  0
 18 19  2  0  0  0
  3  7  1  0  0  0
  7  8  2  0  0  0
  8  9  1  0  0  0
  9 10  2  0  0  0
 10 11  1  0  0  0
 10 12  1  0  0  0
 12 13  2  0  0  0
  5  1  1  0  0  0
 19 14  1  0  0  0
 13  7  1  0  0  0
 27 22  1  0  0  0
 31 33  1  0  0  0
 31 34  1  0  0  0
  5  6  1  0  0  0
 20 21  1  0  0  0
M  END
> <minimizedAffinity>
-7.84404

> <CNNscore>
0.4937081933

> <CNNaffinity>
7.1699485779

> <CNN_VS>
3.5398623943

> <CNNaffinity_variance>
0.1021877155

$$$$
[H]c1nc(N([H])c2c([H])c([H])c([H])c([H])c2[H])c([H])c(-c2c(-c3c([H])c([H])c(F)c([H])c3[H])nc(SC([H])([H])C([H])([H])C([H])([H])N([H])[H])n2[H])c1[H]


 34 37  0  0  0  0  0  0  0  0999 V2000
   -0.2197  -53.4273  -22.4944 C   0  0  0  0  0  0  0  0  0  0  0  0
   -0.5526  -53.5800  -23.7639 N   0  0  0  0  0  0  0  0  0  0  0  0
    0.3411  -52.9914  -24.5844 C   0  0  0  0  0  0  0  0  0  0  0  0
    1.2784  -52.4454  -23.7667 C   0  0  0  0  0  0  0  0  0  0  0  0
    0.9418  -52.7090  -22.4636 N   0  0  0  0  0  0  0  0  0  0  0  0
    1.4849  -52.4089  -21.6279 H   0  0  0  0  0  0  0  0  0  0  0  0
    0.2684  -52.9681  -26.0293 C   0  0  0  0  0  0  0  0  0  0  0  0
   -0.8968  -52.4770  -26.6589 C   0  0  0  0  0  0  0  0  0  0  0  0
   -1.0074  -52.4419  -28.0214 C   0  0  0  0  0  0  0  0  0  0  0  0
    0.0290  -52.8901  -28.8031 C   0  0  0  0  0  0  0  0  0  0  0  0
   -0.0775  -52.8567  -30.1563 F   0  0  0  0  0  0  0  0  0  0  0  0
    1.1956  -53.3824  -28.2126 C   0  0  0  0  0  0  0  0  0  0  0  0
    1.2863  -53.4093  -26.8378 C   0  0  0  0  0  0  0  0  0  0  0  0
    2.4485  -51.7015  -24.1841 C   0  0  0  0  0  0  0  0  0  0  0  0
    3.7101  -52.2515  -24.2574 C   0  0  0  0  0  0  0  0  0  0  0  0
    4.8118  -51.5228  -24.6583 C   0  0  0  0  0  0  0  0  0  0  0  0
    4.6285  -50.2515  -24.9800 N   0  0  0  0  0  0  0  0  0  0  0  0
    3.4567  -49.6102  -24.9483 C   0  0  0  0  0  0  0  0  0  0  0  0
    2.3441  -50.3747  -24.5355 C   0  0  0  0  0  0  0  0  0  0  0  0
    3.2995  -48.2698  -25.2937 N   0  0  0  0  0  0  0  0  0  0  0  0
    3.1878  -47.5900  -24.4650 H   0  0  0  0  0  0  0  0  0  0  0  0
    3.2640  -47.6919  -26.5570 C   0  0  0  0  0  0  0  0  0  0  0  0
    3.9420  -48.1424  -27.6569 C   0  0  0  0  0  0  0  0  0  0  0  0
    3.8865  -47.4944  -28.9057 C   0  0  0  0  0  0  0  0  0  0  0  0
    3.1290  -46.3750  -29.0311 C   0  0  0  0  0  0  0  0  0  0  0  0
    2.4206  -45.8715  -27.9594 C   0  0  0  0  0  0  0  0  0  0  0  0
    2.4943  -46.5204  -26.7621 C   0  0  0  0  0  0  0  0  0  0  0  0
   -1.0086  -53.9753  -20.9953 S   0  0  0  0  0  0  0  0  0  0  0  0
    0.0481  -53.5546  -19.5952 C   0  0  0  0  0  0  0  0  0  0  0  0
   -0.3028  -52.1772  -19.1063 C   0  0  0  0  0  0  0  0  0  0  0  0
   -1.2906  -53.2882  -17.1603 N   0  0  0  0  0  0  0  0  0  0  0  0
   -0.5039  -52.1834  -17.6335 C   0  0  0  0  0  0  0  0  0  0  0  0
   -2.0957  -52.9350  -16.6038 H   0  0  0  0  0  0  0  0  0  0  0  0
   -0.6611  -53.9063  -16.5654 H   0  0  0  0  0  0  0  0  0  0  0  0
 31 32  1  0  0  0
 32 30  1  0  0  0
 30 29  1  0  0  0
 29 28  1  0  0  0
 28  1  1  0  0  0
  1  2  2  0  0  0
  2  3  1  0  0  0
  3  4  2  0  0  0
  4  5  1  0  0  0
  4 14  1  0  0  0
 14 15  2  0  0  0
 15 16  1  0  0  0
 16 17  2  0  0  0
 17 18  1  0  0  0
 18 20  1  0  0  0
 20 22  1  0  0  0
 22 23  2  0  0  0
 23 24  1  0  0  0
 24 25  2  0  0  0
 25 26  1  0  0  0
 26 27  2  0  0  0
 18 19  2  0  0  0
  3  7  1  0  0  0
  7  8  2  0  0  0
  8  9  1  0  0  0
  9 10  2  0  0  0
 10 11  1  0  0  0
 10 12  1  0  0  0
 12 13  2  0  0  0
  5  1  1  0  0  0
 19 14  1  0  0  0
 13  7  1  0  0  0
 27 22  1  0  0  0
 31 33  1  0  0  0
 31 34  1  0  0  0
  5  6  1  0  0  0
 20 21  1  0  0  0
M  END
> <minimizedAffinity>
-8.04188

> <CNNscore>
0.4372124672

> <CNNaffinity>
7.1209669113

> <CNN_VS>
3.1133754253

> <CNNaffinity_variance>
0.1515246779

$$$$
[H]c1nc(N([H])c2c([H])c([H])c([H])c([H])c2[H])c([H])c(-c2c(-c3c([H])c([H])c(F)c([H])c3[H])nc(SC([H])([H])C([H])([H])C([H])([H])N([H])[H])n2[H])c1[H]


 34 37  0  0  0  0  0  0  0  0999 V2000
   -0.4022  -52.4083  -25.8180 C   0  0  0  0  0  0  0  0  0  0  0  0
   -0.8402  -52.6045  -24.5870 N   0  0  0  0  0  0  0  0  0  0  0  0
    0.1592  -52.5161  -23.6860 C   0  0  0  0  0  0  0  0  0  0  0  0
    1.2770  -52.2491  -24.4102 C   0  0  0  0  0  0  0  0  0  0  0  0
    0.9421  -52.1794  -25.7384 N   0  0  0  0  0  0  0  0  0  0  0  0
    1.6042  -51.9865  -26.5180 H   0  0  0  0  0  0  0  0  0  0  0  0
    0.0197  -52.6856  -22.2559 C   0  0  0  0  0  0  0  0  0  0  0  0
   -0.1789  -51.5516  -21.4374 C   0  0  0  0  0  0  0  0  0  0  0  0
   -0.3111  -51.6681  -20.0814 C   0  0  0  0  0  0  0  0  0  0  0  0
   -0.2516  -52.9075  -19.4927 C   0  0  0  0  0  0  0  0  0  0  0  0
   -0.3823  -53.0267  -18.1465 F   0  0  0  0  0  0  0  0  0  0  0  0
   -0.0559  -54.0498  -20.2730 C   0  0  0  0  0  0  0  0  0  0  0  0
    0.0752  -53.9101  -21.6377 C   0  0  0  0  0  0  0  0  0  0  0  0
    2.6135  -52.0661  -23.8839 C   0  0  0  0  0  0  0  0  0  0  0  0
    3.7304  -52.6637  -24.4270 C   0  0  0  0  0  0  0  0  0  0  0  0
    4.9956  -52.4748  -23.9083 C   0  0  0  0  0  0  0  0  0  0  0  0
    5.1190  -51.6873  -22.8510 N   0  0  0  0  0  0  0  0  0  0  0  0
    4.1129  -51.0555  -22.2394 C   0  0  0  0  0  0  0  0  0  0  0  0
    2.8284  -51.2631  -22.7868 C   0  0  0  0  0  0  0  0  0  0  0  0
    4.2787  -50.2332  -21.1272 N   0  0  0  0  0  0  0  0  0  0  0  0
    5.1483  -49.5971  -21.1494 H   0  0  0  0  0  0  0  0  0  0  0  0
    3.4802  -50.1239  -19.9951 C   0  0  0  0  0  0  0  0  0  0  0  0
    3.4189  -51.0334  -18.9745 C   0  0  0  0  0  0  0  0  0  0  0  0
    2.5661  -50.8784  -17.8648 C   0  0  0  0  0  0  0  0  0  0  0  0
    1.7690  -49.7816  -17.7978 C   0  0  0  0  0  0  0  0  0  0  0  0
    1.7859  -48.8278  -18.7947 C   0  0  0  0  0  0  0  0  0  0  0  0
    2.6218  -49.0055  -19.8575 C   0  0  0  0  0  0  0  0  0  0  0  0
   -1.2493  -52.4093  -27.3841 S   0  0  0  0  0  0  0  0  0  0  0  0
   -0.0692  -52.8272  -28.6828 C   0  0  0  0  0  0  0  0  0  0  0  0
    0.6594  -54.0860  -28.3034 C   0  0  0  0  0  0  0  0  0  0  0  0
    2.9303  -53.3661  -27.7365 N   0  0  0  0  0  0  0  0  0  0  0  0
    2.0870  -54.0033  -28.7092 C   0  0  0  0  0  0  0  0  0  0  0  0
    3.4450  -52.5774  -28.1786 H   0  0  0  0  0  0  0  0  0  0  0  0
    3.6068  -54.0970  -27.3618 H   0  0  0  0  0  0  0  0  0  0  0  0
 31 32  1  0  0  0
 32 30  1  0  0  0
 30 29  1  0  0  0
 29 28  1  0  0  0
 28  1  1  0  0  0
  1  2  2  0  0  0
  2  3  1  0  0  0
  3  4  2  0  0  0
  4  5  1  0  0  0
  4 14  1  0  0  0
 14 15  2  0  0  0
 15 16  1  0  0  0
 16 17  2  0  0  0
 17 18  1  0  0  0
 18 20  1  0  0  0
 20 22  1  0  0  0
 22 23  2  0  0  0
 23 24  1  0  0  0
 24 25  2  0  0  0
 25 26  1  0  0  0
 26 27  2  0  0  0
 18 19  2  0  0  0
  3  7  1  0  0  0
  7  8  2  0  0  0
  8  9  1  0  0  0
  9 10  2  0  0  0
 10 11  1  0  0  0
 10 12  1  0  0  0
 12 13  2  0  0  0
  5  1  1  0  0  0
 19 14  1  0  0  0
 13  7  1  0  0  0
 27 22  1  0  0  0
 31 33  1  0  0  0
 31 34  1  0  0  0
  5  6  1  0  0  0
 20 21  1  0  0  0
M  END
> <minimizedAffinity>
-7.29642

> <CNNscore>
0.3080137372

> <CNNaffinity>
6.7942171097

> <CNN_VS>
2.0927121639

> <CNNaffinity_variance>
0.3376310170

$$$$
[H]/C(C(=O)N([H])c1sc2nc([H])nc(N([H])c3c([H])c([H])c(F)c(Cl)c3[H])c2c1[H])=C(/[H])C([H])([H])N1C([H])([H])C2([H])C([H])([H])C(=O)C1([H])C([H])([H])C2([H])[H]


 35 39  0  0  0  0  0  0  0  0999 V2000
   -0.1280  -53.4086  -23.6353 C   0  0  0  0  0  0  0  0  0  0  0  0
   -0.8449  -54.4759  -23.9649 N   0  0  0  0  0  0  0  0  0  0  0  0
   -1.5494  -55.2629  -23.1712 C   0  0  0  0  0  0  0  0  0  0  0  0
   -1.5279  -54.9230  -21.8469 N   0  0  0  0  0  0  0  0  0  0  0  0
   -0.8104  -53.8339  -21.4278 C   0  0  0  0  0  0  0  0  0  0  0  0
   -0.5498  -53.1174  -19.9031 S   0  0  0  0  0  0  0  0  0  0  0  0
    0.4641  -51.8277  -20.3726 C   0  0  0  0  0  0  0  0  0  0  0  0
    0.5690  -51.9990  -21.7243 C   0  0  0  0  0  0  0  0  0  0  0  0
   -0.0954  -53.0443  -22.2721 C   0  0  0  0  0  0  0  0  0  0  0  0
    1.0671  -50.8029  -19.5517 N   0  0  0  0  0  0  0  0  0  0  0  0
    2.3922  -51.0569  -19.1177 C   0  0  0  0  0  0  0  0  0  0  0  0
    3.0331  -52.0758  -19.3977 O   0  0  0  0  0  0  0  0  0  0  0  0
    0.5194  -49.9759  -19.3362 H   0  0  0  0  0  0  0  0  0  0  0  0
    3.0471  -50.0293  -18.2729 C   0  0  0  0  0  0  0  0  0  0  0  0
    2.3985  -48.9571  -17.8987 C   0  0  0  0  0  0  0  0  0  0  0  0
    3.0052  -47.9138  -17.0657 C   0  0  0  0  0  0  0  0  0  0  0  0
    2.2581  -47.5726  -15.9064 N   0  0  0  0  0  0  0  0  0  0  0  0
    1.2344  -48.5020  -15.5525 C   0  0  0  0  0  0  0  0  0  0  0  0
    1.5904  -49.2475  -14.2705 C   0  0  0  0  0  0  0  0  0  0  0  0
    3.0360  -49.6192  -14.3116 C   0  0  0  0  0  0  0  0  0  0  0  0
    3.9415  -48.4414  -14.4785 C   0  0  0  0  0  0  0  0  0  0  0  0
    3.0971  -47.2077  -14.7738 C   0  0  0  0  0  0  0  0  0  0  0  0
    2.1830  -47.0209  -13.6172 C   0  0  0  0  0  0  0  0  0  0  0  0
    2.0195  -45.9674  -13.0614 O   0  0  0  0  0  0  0  0  0  0  0  0
    1.4407  -48.2192  -13.1394 C   0  0  0  0  0  0  0  0  0  0  0  0
    0.5443  -52.6762  -24.6304 N   0  0  0  0  0  0  0  0  0  0  0  0
    1.2762  -51.9853  -24.2444 H   0  0  0  0  0  0  0  0  0  0  0  0
   -0.4518  -52.9186  -30.0610 F   0  0  0  0  0  0  0  0  0  0  0  0
   -0.1428  -52.8607  -28.7497 C   0  0  0  0  0  0  0  0  0  0  0  0
    1.1454  -52.9745  -28.2750 C   0  0  0  0  0  0  0  0  0  0  0  0
    1.4145  -52.9100  -26.9292 C   0  0  0  0  0  0  0  0  0  0  0  0
    0.4001  -52.7305  -26.0253 C   0  0  0  0  0  0  0  0  0  0  0  0
   -0.8949  -52.6182  -26.5360 C   0  0  0  0  0  0  0  0  0  0  0  0
   -1.1825  -52.6789  -27.8602 C   0  0  0  0  0  0  0  0  0  0  0  0
   -2.8582  -52.5252  -28.4052 Cl  0  0  0  0  0  0  0  0  0  0  0  0
 28 29  1  0  0  0
 29 30  2  0  0  0
 30 31  1  0  0  0
 31 32  2  0  0  0
 32 26  1  0  0  0
 26  1  1  0  0  0
  1  2  1  0  0  0
  2  3  2  0  0  0
  3  4  1  0  0  0
  4  5  2  0  0  0
  5  6  1  0  0  0
  6  7  1  0  0  0
  7 10  1  0  0  0
 10 11  1  0  0  0
 11 12  2  0  0  0
 11 14  1  0  0  0
 14 15  2  0  0  0
 15 16  1  0  0  0
 16 17  1  0  0  0
 17 18  1  0  0  0
 18 19  1  0  0  0
 19 20  1  0  0  0
 20 21  1  0  0  0
 21 22  1  0  0  0
 22 23  1  0  0  0
 23 24  2  0  0  0
 23 25  1  0  0  0
  7  8  2  0  0  0
  8  9  1  0  0  0
 32 33  1  0  0  0
 33 34  2  0  0  0
 34 35  1  0  0  0
 34 29  1  0  0  0
  9  1  2  0  0  0
  9  5  1  0  0  0
 22 17  1  0  0  0
 25 19  1  0  0  0
 26 27  1  0  0  0
 10 13  1  0  0  0
M  END
> <minimizedAffinity>
-8.34404

> <CNNscore>
0.8704798818

> <CNNaffinity>
7.3524770737

> <CNN_VS>
6.4001832008

> <CNNaffinity_variance>
0.2370682657

$$$$
[H]/C(C(=O)N([H])c1sc2nc([H])nc(N([H])c3c([H])c([H])c(F)c(Cl)c3[H])c2c1[H])=C(/[H])C([H])([H])N1C([H])([H])C2([H])C([H])([H])C(=O)C1([H])C([H])([H])C2([H])[H]


 35 39  0  0  0  0  0  0  0  0999 V2000
    0.0727  -53.5334  -23.6746 C   0  0  0  0  0  0  0  0  0  0  0  0
   -0.7839  -54.5214  -23.9022 N   0  0  0  0  0  0  0  0  0  0  0  0
   -1.5479  -55.1562  -23.0310 C   0  0  0  0  0  0  0  0  0  0  0  0
   -1.4307  -54.7314  -21.7366 N   0  0  0  0  0  0  0  0  0  0  0  0
   -0.5671  -53.7158  -21.4214 C   0  0  0  0  0  0  0  0  0  0  0  0
   -0.1578  -52.9349  -19.9625 S   0  0  0  0  0  0  0  0  0  0  0  0
    0.9885  -51.8195  -20.5572 C   0  0  0  0  0  0  0  0  0  0  0  0
    1.0164  -52.0954  -21.8953 C   0  0  0  0  0  0  0  0  0  0  0  0
    0.2056  -53.0833  -22.3436 C   0  0  0  0  0  0  0  0  0  0  0  0
    1.7469  -50.8253  -19.8331 N   0  0  0  0  0  0  0  0  0  0  0  0
    1.4536  -49.4742  -20.1451 C   0  0  0  0  0  0  0  0  0  0  0  0
    0.6110  -49.1188  -20.9762 O   0  0  0  0  0  0  0  0  0  0  0  0
    2.4329  -51.1436  -19.1561 H   0  0  0  0  0  0  0  0  0  0  0  0
    2.2105  -48.4229  -19.4235 C   0  0  0  0  0  0  0  0  0  0  0  0
    2.8728  -47.5053  -20.0789 C   0  0  0  0  0  0  0  0  0  0  0  0
    3.6367  -46.4481  -19.4084 C   0  0  0  0  0  0  0  0  0  0  0  0
    5.0476  -46.5833  -19.5074 N   0  0  0  0  0  0  0  0  0  0  0  0
    5.7636  -45.3564  -19.6449 C   0  0  0  0  0  0  0  0  0  0  0  0
    6.5664  -45.0464  -18.3857 C   0  0  0  0  0  0  0  0  0  0  0  0
    5.7310  -45.3613  -17.1888 C   0  0  0  0  0  0  0  0  0  0  0  0
    5.2656  -46.7815  -17.1536 C   0  0  0  0  0  0  0  0  0  0  0  0
    5.6115  -47.4472  -18.4800 C   0  0  0  0  0  0  0  0  0  0  0  0
    7.0878  -47.3710  -18.6314 C   0  0  0  0  0  0  0  0  0  0  0  0
    7.7742  -48.3077  -18.9425 O   0  0  0  0  0  0  0  0  0  0  0  0
    7.7280  -46.0514  -18.3783 C   0  0  0  0  0  0  0  0  0  0  0  0
    0.7897  -52.9625  -24.7416 N   0  0  0  0  0  0  0  0  0  0  0  0
    1.6973  -52.4646  -24.4406 H   0  0  0  0  0  0  0  0  0  0  0  0
   -0.7951  -52.9565  -30.0359 F   0  0  0  0  0  0  0  0  0  0  0  0
   -0.3447  -52.9646  -28.7650 C   0  0  0  0  0  0  0  0  0  0  0  0
    0.9710  -53.2052  -28.4350 C   0  0  0  0  0  0  0  0  0  0  0  0
    1.3862  -53.2042  -27.1253 C   0  0  0  0  0  0  0  0  0  0  0  0
    0.4940  -52.9628  -26.1135 C   0  0  0  0  0  0  0  0  0  0  0  0
   -0.8324  -52.7221  -26.4785 C   0  0  0  0  0  0  0  0  0  0  0  0
   -1.2632  -52.7182  -27.7647 C   0  0  0  0  0  0  0  0  0  0  0  0
   -2.9665  -52.4017  -28.1216 Cl  0  0  0  0  0  0  0  0  0  0  0  0
 28 29  1  0  0  0
 29 30  2  0  0  0
 30 31  1  0  0  0
 31 32  2  0  0  0
 32 26  1  0  0  0
 26  1  1  0  0  0
  1  2  1  0  0  0
  2  3  2  0  0  0
  3  4  1  0  0  0
  4  5  2  0  0  0
  5  6  1  0  0  0
  6  7  1  0  0  0
  7 10  1  0  0  0
 10 11  1  0  0  0
 11 12  2  0  0  0
 11 14  1  0  0  0
 14 15  2  0  0  0
 15 16  1  0  0  0
 16 17  1  0  0  0
 17 18  1  0  0  0
 18 19  1  0  0  0
 19 20  1  0  0  0
 20 21  1  0  0  0
 21 22  1  0  0  0
 22 23  1  0  0  0
 23 24  2  0  0  0
 23 25  1  0  0  0
  7  8  2  0  0  0
  8  9  1  0  0  0
 32 33  1  0  0  0
 33 34  2  0  0  0
 34 35  1  0  0  0
 34 29  1  0  0  0
  9  1  2  0  0  0
  9  5  1  0  0  0
 22 17  1  0  0  0
 25 19  1  0  0  0
 26 27  1  0  0  0
 10 13  1  0  0  0
M  END
> <minimizedAffinity>
-7.99060

> <CNNscore>
0.8599140048

> <CNNaffinity>
7.3267183304

> <CNN_VS>
6.3003478050

> <CNNaffinity_variance>
0.2941733599

$$$$
[H]/C(C(=O)N([H])c1sc2nc([H])nc(N([H])c3c([H])c([H])c(F)c(Cl)c3[H])c2c1[H])=C(/[H])C([H])([H])N1C([H])([H])C2([H])C([H])([H])C(=O)C1([H])C([H])([H])C2([H])[H]


 35 39  0  0  0  0  0  0  0  0999 V2000
   -0.0988  -53.2065  -23.4949 C   0  0  0  0  0  0  0  0  0  0  0  0
   -0.7406  -54.3334  -23.7775 N   0  0  0  0  0  0  0  0  0  0  0  0
   -1.3572  -55.1526  -22.9442 C   0  0  0  0  0  0  0  0  0  0  0  0
   -1.3216  -54.7798  -21.6291 N   0  0  0  0  0  0  0  0  0  0  0  0
   -0.6781  -53.6289  -21.2576 C   0  0  0  0  0  0  0  0  0  0  0  0
   -0.4271  -52.8575  -19.7583 S   0  0  0  0  0  0  0  0  0  0  0  0
    0.4688  -51.5056  -20.2888 C   0  0  0  0  0  0  0  0  0  0  0  0
    0.5452  -51.7013  -21.6390 C   0  0  0  0  0  0  0  0  0  0  0  0
   -0.0527  -52.8076  -22.1419 C   0  0  0  0  0  0  0  0  0  0  0  0
    1.0155  -50.4177  -19.5106 N   0  0  0  0  0  0  0  0  0  0  0  0
    2.3017  -50.6372  -18.9573 C   0  0  0  0  0  0  0  0  0  0  0  0
    2.9542  -51.6765  -19.1031 O   0  0  0  0  0  0  0  0  0  0  0  0
    0.4593  -49.5750  -19.4060 H   0  0  0  0  0  0  0  0  0  0  0  0
    2.8983  -49.5446  -18.1516 C   0  0  0  0  0  0  0  0  0  0  0  0
    2.8451  -48.3040  -18.5620 C   0  0  0  0  0  0  0  0  0  0  0  0
    3.4225  -47.1917  -17.8004 C   0  0  0  0  0  0  0  0  0  0  0  0
    3.4104  -45.9420  -18.4762 N   0  0  0  0  0  0  0  0  0  0  0  0
    3.6101  -44.8019  -17.6412 C   0  0  0  0  0  0  0  0  0  0  0  0
    4.9676  -44.1593  -17.9067 C   0  0  0  0  0  0  0  0  0  0  0  0
    5.9916  -45.2353  -18.0586 C   0  0  0  0  0  0  0  0  0  0  0  0
    5.6695  -46.2037  -19.1509 C   0  0  0  0  0  0  0  0  0  0  0  0
    4.2601  -45.9243  -19.6584 C   0  0  0  0  0  0  0  0  0  0  0  0
    4.2498  -44.5262  -20.1619 C   0  0  0  0  0  0  0  0  0  0  0  0
    3.7932  -44.2056  -21.2269 O   0  0  0  0  0  0  0  0  0  0  0  0
    4.8434  -43.4840  -19.2806 C   0  0  0  0  0  0  0  0  0  0  0  0
    0.4837  -52.4492  -24.5272 N   0  0  0  0  0  0  0  0  0  0  0  0
    1.1513  -51.6777  -24.1791 H   0  0  0  0  0  0  0  0  0  0  0  0
   -0.5738  -52.9453  -29.9288 F   0  0  0  0  0  0  0  0  0  0  0  0
   -0.2500  -52.8254  -28.6254 C   0  0  0  0  0  0  0  0  0  0  0  0
    1.0452  -52.9020  -28.1622 C   0  0  0  0  0  0  0  0  0  0  0  0
    1.3295  -52.7743  -26.8241 C   0  0  0  0  0  0  0  0  0  0  0  0
    0.3237  -52.5673  -25.9165 C   0  0  0  0  0  0  0  0  0  0  0  0
   -0.9786  -52.4939  -26.4154 C   0  0  0  0  0  0  0  0  0  0  0  0
   -1.2812  -52.6170  -27.7319 C   0  0  0  0  0  0  0  0  0  0  0  0
   -2.9651  -52.5084  -28.2622 Cl  0  0  0  0  0  0  0  0  0  0  0  0
 28 29  1  0  0  0
 29 30  2  0  0  0
 30 31  1  0  0  0
 31 32  2  0  0  0
 32 26  1  0  0  0
 26  1  1  0  0  0
  1  2  1  0  0  0
  2  3  2  0  0  0
  3  4  1  0  0  0
  4  5  2  0  0  0
  5  6  1  0  0  0
  6  7  1  0  0  0
  7 10  1  0  0  0
 10 11  1  0  0  0
 11 12  2  0  0  0
 11 14  1  0  0  0
 14 15  2  0  0  0
 15 16  1  0  0  0
 16 17  1  0  0  0
 17 18  1  0  0  0
 18 19  1  0  0  0
 19 20  1  0  0  0
 20 21  1  0  0  0
 21 22  1  0  0  0
 22 23  1  0  0  0
 23 24  2  0  0  0
 23 25  1  0  0  0
  7  8  2  0  0  0
  8  9  1  0  0  0
 32 33  1  0  0  0
 33 34  2  0  0  0
 34 35  1  0  0  0
 34 29  1  0  0  0
  9  1  2  0  0  0
  9  5  1  0  0  0
 22 17  1  0  0  0
 25 19  1  0  0  0
 26 27  1  0  0  0
 10 13  1  0  0  0
M  END
> <minimizedAffinity>
-8.39792

> <CNNscore>
0.8556138277

> <CNNaffinity>
7.3013968468

> <CNN_VS>
6.2471761703

> <CNNaffinity_variance>
0.2759305537

$$$$
[H]/C(C(=O)N([H])c1sc2nc([H])nc(N([H])c3c([H])c([H])c(F)c(Cl)c3[H])c2c1[H])=C(/[H])C([H])([H])N1C([H])([H])C2([H])C([H])([H])C(=O)C1([H])C([H])([H])C2([H])[H]


 35 39  0  0  0  0  0  0  0  0999 V2000
   -0.2534  -53.0428  -23.3724 C   0  0  0  0  0  0  0  0  0  0  0  0
   -0.8171  -54.2006  -23.6939 N   0  0  0  0  0  0  0  0  0  0  0  0
   -1.3312  -55.1105  -22.8855 C   0  0  0  0  0  0  0  0  0  0  0  0
   -1.2674  -54.8078  -21.5536 N   0  0  0  0  0  0  0  0  0  0  0  0
   -0.7000  -53.6308  -21.1420 C   0  0  0  0  0  0  0  0  0  0  0  0
   -0.4447  -52.9241  -19.6120 S   0  0  0  0  0  0  0  0  0  0  0  0
    0.3192  -51.4779  -20.0986 C   0  0  0  0  0  0  0  0  0  0  0  0
    0.3516  -51.5934  -21.4598 C   0  0  0  0  0  0  0  0  0  0  0  0
   -0.1796  -52.7154  -22.0016 C   0  0  0  0  0  0  0  0  0  0  0  0
    0.8128  -50.3934  -19.2812 N   0  0  0  0  0  0  0  0  0  0  0  0
    2.1025  -50.5763  -18.7225 C   0  0  0  0  0  0  0  0  0  0  0  0
    2.7994  -51.5822  -18.8946 O   0  0  0  0  0  0  0  0  0  0  0  0
    0.2208  -49.5786  -19.1556 H   0  0  0  0  0  0  0  0  0  0  0  0
    2.6455  -49.4859  -17.8771 C   0  0  0  0  0  0  0  0  0  0  0  0
    2.8802  -49.6782  -16.6050 C   0  0  0  0  0  0  0  0  0  0  0  0
    3.4146  -48.6296  -15.7300 C   0  0  0  0  0  0  0  0  0  0  0  0
    2.8260  -47.3494  -15.9123 N   0  0  0  0  0  0  0  0  0  0  0  0
    2.0042  -46.9035  -14.8340 C   0  0  0  0  0  0  0  0  0  0  0  0
    2.6574  -45.7428  -14.0908 C   0  0  0  0  0  0  0  0  0  0  0  0
    4.1136  -46.0301  -13.9278 C   0  0  0  0  0  0  0  0  0  0  0  0
    4.8172  -46.2572  -15.2271 C   0  0  0  0  0  0  0  0  0  0  0  0
    3.7813  -46.3381  -16.3418 C   0  0  0  0  0  0  0  0  0  0  0  0
    3.0493  -45.0449  -16.3481 C   0  0  0  0  0  0  0  0  0  0  0  0
    2.8404  -44.4032  -17.3431 O   0  0  0  0  0  0  0  0  0  0  0  0
    2.5581  -44.5377  -15.0379 C   0  0  0  0  0  0  0  0  0  0  0  0
    0.2228  -52.1865  -24.3816 N   0  0  0  0  0  0  0  0  0  0  0  0
    0.6674  -51.2778  -24.0090 H   0  0  0  0  0  0  0  0  0  0  0  0
   -0.2726  -52.9145  -29.8374 F   0  0  0  0  0  0  0  0  0  0  0  0
   -0.0849  -52.7342  -28.5144 C   0  0  0  0  0  0  0  0  0  0  0  0
    1.1613  -52.7145  -27.9275 C   0  0  0  0  0  0  0  0  0  0  0  0
    1.3059  -52.5280  -26.5740 C   0  0  0  0  0  0  0  0  0  0  0  0
    0.2061  -52.3571  -25.7745 C   0  0  0  0  0  0  0  0  0  0  0  0
   -1.0436  -52.3816  -26.3975 C   0  0  0  0  0  0  0  0  0  0  0  0
   -1.2087  -52.5640  -27.7314 C   0  0  0  0  0  0  0  0  0  0  0  0
   -2.8366  -52.5784  -28.4232 Cl  0  0  0  0  0  0  0  0  0  0  0  0
 28 29  1  0  0  0
 29 30  2  0  0  0
 30 31  1  0  0  0
 31 32  2  0  0  0
 32 26  1  0  0  0
 26  1  1  0  0  0
  1  2  1  0  0  0
  2  3  2  0  0  0
  3  4  1  0  0  0
  4  5  2  0  0  0
  5  6  1  0  0  0
  6  7  1  0  0  0
  7 10  1  0  0  0
 10 11  1  0  0  0
 11 12  2  0  0  0
 11 14  1  0  0  0
 14 15  2  0  0  0
 15 16  1  0  0  0
 16 17  1  0  0  0
 17 18  1  0  0  0
 18 19  1  0  0  0
 19 20  1  0  0  0
 20 21  1  0  0  0
 21 22  1  0  0  0
 22 23  1  0  0  0
 23 24  2  0  0  0
 23 25  1  0  0  0
  7  8  2  0  0  0
  8  9  1  0  0  0
 32 33  1  0  0  0
 33 34  2  0  0  0
 34 35  1  0  0  0
 34 29  1  0  0  0
  9  1  2  0  0  0
  9  5  1  0  0  0
 22 17  1  0  0  0
 25 19  1  0  0  0
 26 27  1  0  0  0
 10 13  1  0  0  0
M  END
> <minimizedAffinity>
-8.05108

> <CNNscore>
0.8199203610

> <CNNaffinity>
7.0778336525

> <CNN_VS>
5.8032598495

> <CNNaffinity_variance>
0.2934921384

$$$$
[H]/C(C(=O)N([H])c1sc2nc([H])nc(N([H])c3c([H])c([H])c(F)c(Cl)c3[H])c2c1[H])=C(/[H])C([H])([H])N1C([H])([H])C2([H])C([H])([H])C(=O)C1([H])C([H])([H])C2([H])[H]


 35 39  0  0  0  0  0  0  0  0999 V2000
   -0.1947  -53.0050  -23.2888 C   0  0  0  0  0  0  0  0  0  0  0  0
   -0.6984  -54.1937  -23.5968 N   0  0  0  0  0  0  0  0  0  0  0  0
   -1.1697  -55.1175  -22.7782 C   0  0  0  0  0  0  0  0  0  0  0  0
   -1.1269  -54.7944  -21.4502 N   0  0  0  0  0  0  0  0  0  0  0  0
   -0.6209  -53.5851  -21.0524 C   0  0  0  0  0  0  0  0  0  0  0  0
   -0.4080  -52.8462  -19.5310 S   0  0  0  0  0  0  0  0  0  0  0  0
    0.2846  -51.3702  -20.0342 C   0  0  0  0  0  0  0  0  0  0  0  0
    0.3287  -51.5020  -21.3937 C   0  0  0  0  0  0  0  0  0  0  0  0
   -0.1434  -52.6561  -21.9222 C   0  0  0  0  0  0  0  0  0  0  0  0
    0.7198  -50.2516  -19.2297 N   0  0  0  0  0  0  0  0  0  0  0  0
    0.4829  -50.3612  -17.8366 C   0  0  0  0  0  0  0  0  0  0  0  0
   -0.0584  -51.3322  -17.2969 O   0  0  0  0  0  0  0  0  0  0  0  0
    1.1614  -49.4665  -19.6975 H   0  0  0  0  0  0  0  0  0  0  0  0
    0.9149  -49.2339  -16.9758 C   0  0  0  0  0  0  0  0  0  0  0  0
    1.4609  -49.4539  -15.8080 C   0  0  0  0  0  0  0  0  0  0  0  0
    1.9013  -48.3713  -14.9221 C   0  0  0  0  0  0  0  0  0  0  0  0
    3.3037  -48.3219  -14.6995 N   0  0  0  0  0  0  0  0  0  0  0  0
    4.0035  -47.3459  -15.4706 C   0  0  0  0  0  0  0  0  0  0  0  0
    4.5122  -46.2114  -14.5872 C   0  0  0  0  0  0  0  0  0  0  0  0
    3.4487  -45.8491  -13.6037 C   0  0  0  0  0  0  0  0  0  0  0  0
    3.0201  -46.9996  -12.7506 C   0  0  0  0  0  0  0  0  0  0  0  0
    3.6561  -48.2760  -13.2876 C   0  0  0  0  0  0  0  0  0  0  0  0
    5.1285  -48.0848  -13.2284 C   0  0  0  0  0  0  0  0  0  0  0  0
    5.8873  -48.8972  -12.7704 O   0  0  0  0  0  0  0  0  0  0  0  0
    5.6689  -46.8091  -13.7723 C   0  0  0  0  0  0  0  0  0  0  0  0
    0.2424  -52.1393  -24.3077 N   0  0  0  0  0  0  0  0  0  0  0  0
    0.6616  -51.2148  -23.9447 H   0  0  0  0  0  0  0  0  0  0  0  0
   -0.2927  -52.8945  -29.7560 F   0  0  0  0  0  0  0  0  0  0  0  0
   -0.0954  -52.7083  -28.4353 C   0  0  0  0  0  0  0  0  0  0  0  0
    1.1545  -52.6974  -27.8558 C   0  0  0  0  0  0  0  0  0  0  0  0
    1.3090  -52.5043  -26.5044 C   0  0  0  0  0  0  0  0  0  0  0  0
    0.2157  -52.3180  -25.6994 C   0  0  0  0  0  0  0  0  0  0  0  0
   -1.0379  -52.3338  -26.3148 C   0  0  0  0  0  0  0  0  0  0  0  0
   -1.2128  -52.5224  -27.6466 C   0  0  0  0  0  0  0  0  0  0  0  0
   -2.8448  -52.5250  -28.3286 Cl  0  0  0  0  0  0  0  0  0  0  0  0
 28 29  1  0  0  0
 29 30  2  0  0  0
 30 31  1  0  0  0
 31 32  2  0  0  0
 32 26  1  0  0  0
 26  1  1  0  0  0
  1  2  1  0  0  0
  2  3  2  0  0  0
  3  4  1  0  0  0
  4  5  2  0  0  0
  5  6  1  0  0  0
  6  7  1  0  0  0
  7 10  1  0  0  0
 10 11  1  0  0  0
 11 12  2  0  0  0
 11 14  1  0  0  0
 14 15  2  0  0  0
 15 16  1  0  0  0
 16 17  1  0  0  0
 17 18  1  0  0  0
 18 19  1  0  0  0
 19 20  1  0  0  0
 20 21  1  0  0  0
 21 22  1  0  0  0
 22 23  1  0  0  0
 23 24  2  0  0  0
 23 25  1  0  0  0
  7  8  2  0  0  0
  8  9  1  0  0  0
 32 33  1  0  0  0
 33 34  2  0  0  0
 34 35  1  0  0  0
 34 29  1  0  0  0
  9  1  2  0  0  0
  9  5  1  0  0  0
 22 17  1  0  0  0
 25 19  1  0  0  0
 26 27  1  0  0  0
 10 13  1  0  0  0
M  END
> <minimizedAffinity>
-8.09544

> <CNNscore>
0.7682462335

> <CNNaffinity>
7.0031213760

> <CNN_VS>
5.3801217079

> <CNNaffinity_variance>
0.3613345623

$$$$
[H]/C(C(=O)N([H])c1sc2nc([H])nc(N([H])c3c([H])c([H])c(F)c(Cl)c3[H])c2c1[H])=C(/[H])C([H])([H])N1C([H])([H])C2([H])C([H])([H])C(=O)C1([H])C([H])([H])C2([H])[H]


 35 39  0  0  0  0  0  0  0  0999 V2000
   -0.4636  -53.2106  -23.7954 C   0  0  0  0  0  0  0  0  0  0  0  0
   -1.0895  -54.3539  -24.0458 N   0  0  0  0  0  0  0  0  0  0  0  0
   -1.5028  -55.2644  -23.1822 C   0  0  0  0  0  0  0  0  0  0  0  0
   -1.2468  -54.9795  -21.8695 N   0  0  0  0  0  0  0  0  0  0  0  0
   -0.6042  -53.8182  -21.5302 C   0  0  0  0  0  0  0  0  0  0  0  0
   -0.1229  -53.1354  -20.0443 S   0  0  0  0  0  0  0  0  0  0  0  0
    0.5935  -51.6973  -20.6193 C   0  0  0  0  0  0  0  0  0  0  0  0
    0.4323  -51.7964  -21.9726 C   0  0  0  0  0  0  0  0  0  0  0  0
   -0.1917  -52.9017  -22.4453 C   0  0  0  0  0  0  0  0  0  0  0  0
    1.2182  -50.6322  -19.8688 N   0  0  0  0  0  0  0  0  0  0  0  0
    2.5762  -50.8359  -19.5177 C   0  0  0  0  0  0  0  0  0  0  0  0
    3.2277  -51.8439  -19.8120 O   0  0  0  0  0  0  0  0  0  0  0  0
    0.6612  -49.8152  -19.6398 H   0  0  0  0  0  0  0  0  0  0  0  0
    3.2541  -49.7658  -18.7470 C   0  0  0  0  0  0  0  0  0  0  0  0
    4.4586  -49.3700  -19.0674 C   0  0  0  0  0  0  0  0  0  0  0  0
    5.1688  -48.3176  -18.3334 C   0  0  0  0  0  0  0  0  0  0  0  0
    5.7226  -47.2961  -19.1509 N   0  0  0  0  0  0  0  0  0  0  0  0
    6.1298  -46.1191  -18.4539 C   0  0  0  0  0  0  0  0  0  0  0  0
    7.6493  -45.9875  -18.4416 C   0  0  0  0  0  0  0  0  0  0  0  0
    8.2496  -47.3287  -18.1762 C   0  0  0  0  0  0  0  0  0  0  0  0
    7.8408  -48.3639  -19.1742 C   0  0  0  0  0  0  0  0  0  0  0  0
    6.7456  -47.7872  -20.0631 C   0  0  0  0  0  0  0  0  0  0  0  0
    7.3176  -46.5916  -20.7353 C   0  0  0  0  0  0  0  0  0  0  0  0
    7.2228  -46.3824  -21.9154 O   0  0  0  0  0  0  0  0  0  0  0  0
    8.0433  -45.6145  -19.8786 C   0  0  0  0  0  0  0  0  0  0  0  0
   -0.1168  -52.3505  -24.8530 N   0  0  0  0  0  0  0  0  0  0  0  0
    0.3293  -51.4228  -24.5327 H   0  0  0  0  0  0  0  0  0  0  0  0
   -0.2630  -53.1859  -30.3140 F   0  0  0  0  0  0  0  0  0  0  0  0
   -0.2917  -52.9624  -28.9845 C   0  0  0  0  0  0  0  0  0  0  0  0
   -1.3679  -52.3918  -28.3410 C   0  0  0  0  0  0  0  0  0  0  0  0
   -1.3538  -52.1821  -26.9832 C   0  0  0  0  0  0  0  0  0  0  0  0
   -0.2614  -52.5381  -26.2362 C   0  0  0  0  0  0  0  0  0  0  0  0
    0.8140  -53.1144  -26.9159 C   0  0  0  0  0  0  0  0  0  0  0  0
    0.8207  -53.3304  -28.2550 C   0  0  0  0  0  0  0  0  0  0  0  0
    2.2344  -54.0678  -29.0207 Cl  0  0  0  0  0  0  0  0  0  0  0  0
 28 29  1  0  0  0
 29 30  2  0  0  0
 30 31  1  0  0  0
 31 32  2  0  0  0
 32 26  1  0  0  0
 26  1  1  0  0  0
  1  2  1  0  0  0
  2  3  2  0  0  0
  3  4  1  0  0  0
  4  5  2  0  0  0
  5  6  1  0  0  0
  6  7  1  0  0  0
  7 10  1  0  0  0
 10 11  1  0  0  0
 11 12  2  0  0  0
 11 14  1  0  0  0
 14 15  2  0  0  0
 15 16  1  0  0  0
 16 17  1  0  0  0
 17 18  1  0  0  0
 18 19  1  0  0  0
 19 20  1  0  0  0
 20 21  1  0  0  0
 21 22  1  0  0  0
 22 23  1  0  0  0
 23 24  2  0  0  0
 23 25  1  0  0  0
  7  8  2  0  0  0
  8  9  1  0  0  0
 32 33  1  0  0  0
 33 34  2  0  0  0
 34 35  1  0  0  0
 34 29  1  0  0  0
  9  1  2  0  0  0
  9  5  1  0  0  0
 22 17  1  0  0  0
 25 19  1  0  0  0
 26 27  1  0  0  0
 10 13  1  0  0  0
M  END
> <minimizedAffinity>
-7.65055

> <CNNscore>
0.7459555268

> <CNNaffinity>
7.0899634361

> <CNN_VS>
5.2887973785

> <CNNaffinity_variance>
0.1247874722

$$$$
[H]/C(C(=O)N([H])c1sc2nc([H])nc(N([H])c3c([H])c([H])c(F)c(Cl)c3[H])c2c1[H])=C(/[H])C([H])([H])N1C([H])([H])C2([H])C([H])([H])C(=O)C1([H])C([H])([H])C2([H])[H]


 35 39  0  0  0  0  0  0  0  0999 V2000
   -0.1334  -53.9158  -21.3351 C   0  0  0  0  0  0  0  0  0  0  0  0
   -1.0410  -54.8517  -21.5840 N   0  0  0  0  0  0  0  0  0  0  0  0
   -1.6257  -55.1364  -22.7341 C   0  0  0  0  0  0  0  0  0  0  0  0
   -1.2372  -54.3616  -23.7916 N   0  0  0  0  0  0  0  0  0  0  0  0
   -0.3043  -53.3741  -23.6148 C   0  0  0  0  0  0  0  0  0  0  0  0
    0.4112  -52.2356  -24.6626 S   0  0  0  0  0  0  0  0  0  0  0  0
    1.4371  -51.4437  -23.5526 C   0  0  0  0  0  0  0  0  0  0  0  0
    1.1855  -52.1021  -22.3818 C   0  0  0  0  0  0  0  0  0  0  0  0
    0.2783  -53.1072  -22.4161 C   0  0  0  0  0  0  0  0  0  0  0  0
    2.3497  -50.3476  -23.7837 N   0  0  0  0  0  0  0  0  0  0  0  0
    3.6116  -50.6962  -24.3268 C   0  0  0  0  0  0  0  0  0  0  0  0
    3.9561  -51.8507  -24.6020 O   0  0  0  0  0  0  0  0  0  0  0  0
    2.0424  -49.4091  -23.5490 H   0  0  0  0  0  0  0  0  0  0  0  0
    4.5773  -49.5996  -24.5791 C   0  0  0  0  0  0  0  0  0  0  0  0
    4.1806  -48.4612  -25.0858 C   0  0  0  0  0  0  0  0  0  0  0  0
    5.0992  -47.3500  -25.3543 C   0  0  0  0  0  0  0  0  0  0  0  0
    4.4902  -46.2057  -25.9359 N   0  0  0  0  0  0  0  0  0  0  0  0
    4.5974  -45.0080  -25.1671 C   0  0  0  0  0  0  0  0  0  0  0  0
    5.5325  -44.0076  -25.8387 C   0  0  0  0  0  0  0  0  0  0  0  0
    6.7251  -44.7364  -26.3642 C   0  0  0  0  0  0  0  0  0  0  0  0
    6.3723  -45.8232  -27.3283 C   0  0  0  0  0  0  0  0  0  0  0  0
    4.8599  -46.0093  -27.3304 C   0  0  0  0  0  0  0  0  0  0  0  0
    4.2640  -44.7123  -27.7440 C   0  0  0  0  0  0  0  0  0  0  0  0
    3.4106  -44.6098  -28.5845 O   0  0  0  0  0  0  0  0  0  0  0  0
    4.7687  -43.4874  -27.0655 C   0  0  0  0  0  0  0  0  0  0  0  0
    0.3953  -53.7735  -20.0394 N   0  0  0  0  0  0  0  0  0  0  0  0
    1.0114  -54.6009  -19.7262 H   0  0  0  0  0  0  0  0  0  0  0  0
   -0.6018  -49.7931  -16.3376 F   0  0  0  0  0  0  0  0  0  0  0  0
   -0.3020  -50.7318  -17.2580 C   0  0  0  0  0  0  0  0  0  0  0  0
    0.7590  -50.6188  -18.1294 C   0  0  0  0  0  0  0  0  0  0  0  0
    1.0276  -51.6005  -19.0523 C   0  0  0  0  0  0  0  0  0  0  0  0
    0.2400  -52.7196  -19.1259 C   0  0  0  0  0  0  0  0  0  0  0  0
   -0.8277  -52.8064  -18.2298 C   0  0  0  0  0  0  0  0  0  0  0  0
   -1.1104  -51.8493  -17.3112 C   0  0  0  0  0  0  0  0  0  0  0  0
   -2.4875  -52.0552  -16.2205 Cl  0  0  0  0  0  0  0  0  0  0  0  0
 28 29  1  0  0  0
 29 30  2  0  0  0
 30 31  1  0  0  0
 31 32  2  0  0  0
 32 26  1  0  0  0
 26  1  1  0  0  0
  1  2  1  0  0  0
  2  3  2  0  0  0
  3  4  1  0  0  0
  4  5  2  0  0  0
  5  6  1  0  0  0
  6  7  1  0  0  0
  7 10  1  0  0  0
 10 11  1  0  0  0
 11 12  2  0  0  0
 11 14  1  0  0  0
 14 15  2  0  0  0
 15 16  1  0  0  0
 16 17  1  0  0  0
 17 18  1  0  0  0
 18 19  1  0  0  0
 19 20  1  0  0  0
 20 21  1  0  0  0
 21 22  1  0  0  0
 22 23  1  0  0  0
 23 24  2  0  0  0
 23 25  1  0  0  0
  7  8  2  0  0  0
  8  9  1  0  0  0
 32 33  1  0  0  0
 33 34  2  0  0  0
 34 35  1  0  0  0
 34 29  1  0  0  0
  9  1  2  0  0  0
  9  5  1  0  0  0
 22 17  1  0  0  0
 25 19  1  0  0  0
 26 27  1  0  0  0
 10 13  1  0  0  0
M  END
> <minimizedAffinity>
-7.01813

> <CNNscore>
0.5407544374

> <CNNaffinity>
6.9765090942

> <CNN_VS>
3.7725782394

> <CNNaffinity_variance>
0.3247748017

$$$$
[H]/C(C(=O)N([H])c1sc2nc([H])nc(N([H])c3c([H])c([H])c(F)c(Cl)c3[H])c2c1[H])=C(/[H])C([H])([H])N1C([H])([H])C2([H])C([H])([H])C(=O)C1([H])C([H])([H])C2([H])[H]


 35 39  0  0  0  0  0  0  0  0999 V2000
   -0.1589  -53.7540  -20.9879 C   0  0  0  0  0  0  0  0  0  0  0  0
   -1.0093  -54.7112  -21.3376 N   0  0  0  0  0  0  0  0  0  0  0  0
   -1.4888  -54.9779  -22.5395 C   0  0  0  0  0  0  0  0  0  0  0  0
   -1.0443  -54.1568  -23.5384 N   0  0  0  0  0  0  0  0  0  0  0  0
   -0.1648  -53.1449  -23.2570 C   0  0  0  0  0  0  0  0  0  0  0  0
    0.5916  -51.9500  -24.2088 S   0  0  0  0  0  0  0  0  0  0  0  0
    1.4955  -51.1605  -22.9958 C   0  0  0  0  0  0  0  0  0  0  0  0
    1.1742  -51.8644  -21.8694 C   0  0  0  0  0  0  0  0  0  0  0  0
    0.3094  -52.8976  -22.0073 C   0  0  0  0  0  0  0  0  0  0  0  0
    2.3839  -50.0276  -23.1192 N   0  0  0  0  0  0  0  0  0  0  0  0
    3.7339  -50.3298  -23.4274 C   0  0  0  0  0  0  0  0  0  0  0  0
    4.1716  -51.4740  -23.5897 O   0  0  0  0  0  0  0  0  0  0  0  0
    1.9994  -49.0985  -22.9810 H   0  0  0  0  0  0  0  0  0  0  0  0
    4.6780  -49.1945  -23.5627 C   0  0  0  0  0  0  0  0  0  0  0  0
    4.4044  -48.1858  -24.3489 C   0  0  0  0  0  0  0  0  0  0  0  0
    5.3081  -47.0430  -24.5159 C   0  0  0  0  0  0  0  0  0  0  0  0
    5.2129  -46.3919  -25.7751 N   0  0  0  0  0  0  0  0  0  0  0  0
    4.0563  -46.7258  -26.5417 C   0  0  0  0  0  0  0  0  0  0  0  0
    3.0948  -45.5448  -26.6255 C   0  0  0  0  0  0  0  0  0  0  0  0
    3.0115  -44.8918  -25.2853 C   0  0  0  0  0  0  0  0  0  0  0  0
    4.3373  -44.4277  -24.7738 C   0  0  0  0  0  0  0  0  0  0  0  0
    5.4328  -44.9550  -25.6925 C   0  0  0  0  0  0  0  0  0  0  0  0
    5.1612  -44.4102  -27.0482 C   0  0  0  0  0  0  0  0  0  0  0  0
    5.9981  -43.8886  -27.7358 O   0  0  0  0  0  0  0  0  0  0  0  0
    3.7686  -44.5289  -27.5600 C   0  0  0  0  0  0  0  0  0  0  0  0
    0.2582  -53.6361  -19.6497 N   0  0  0  0  0  0  0  0  0  0  0  0
    1.0727  -54.2915  -19.3871 H   0  0  0  0  0  0  0  0  0  0  0  0
   -2.0206  -50.5365  -15.6822 F   0  0  0  0  0  0  0  0  0  0  0  0
   -1.4106  -51.2524  -16.6483 C   0  0  0  0  0  0  0  0  0  0  0  0
   -0.2147  -50.8778  -17.2204 C   0  0  0  0  0  0  0  0  0  0  0  0
    0.3714  -51.6383  -18.2032 C   0  0  0  0  0  0  0  0  0  0  0  0
   -0.2259  -52.7926  -18.6379 C   0  0  0  0  0  0  0  0  0  0  0  0
   -1.4370  -53.1469  -18.0395 C   0  0  0  0  0  0  0  0  0  0  0  0
   -2.0325  -52.4110  -17.0680 C   0  0  0  0  0  0  0  0  0  0  0  0
   -3.5684  -52.9475  -16.3738 Cl  0  0  0  0  0  0  0  0  0  0  0  0
 28 29  1  0  0  0
 29 30  2  0  0  0
 30 31  1  0  0  0
 31 32  2  0  0  0
 32 26  1  0  0  0
 26  1  1  0  0  0
  1  2  1  0  0  0
  2  3  2  0  0  0
  3  4  1  0  0  0
  4  5  2  0  0  0
  5  6  1  0  0  0
  6  7  1  0  0  0
  7 10  1  0  0  0
 10 11  1  0  0  0
 11 12  2  0  0  0
 11 14  1  0  0  0
 14 15  2  0  0  0
 15 16  1  0  0  0
 16 17  1  0  0  0
 17 18  1  0  0  0
 18 19  1  0  0  0
 19 20  1  0  0  0
 20 21  1  0  0  0
 21 22  1  0  0  0
 22 23  1  0  0  0
 23 24  2  0  0  0
 23 25  1  0  0  0
  7  8  2  0  0  0
  8  9  1  0  0  0
 32 33  1  0  0  0
 33 34  2  0  0  0
 34 35  1  0  0  0
 34 29  1  0  0  0
  9  1  2  0  0  0
  9  5  1  0  0  0
 22 17  1  0  0  0
 25 19  1  0  0  0
 26 27  1  0  0  0
 10 13  1  0  0  0
M  END
> <minimizedAffinity>
-7.00101

> <CNNscore>
0.5287668705

> <CNNaffinity>
6.9026556015

> <CNN_VS>
3.6498956680

> <CNNaffinity_variance>
0.1467480808

$$$$
[H]/C(C(=O)N([H])c1sc2nc([H])nc(N([H])c3c([H])c([H])c(F)c(Cl)c3[H])c2c1[H])=C(/[H])C([H])([H])N1C([H])([H])C2([H])C([H])([H])C(=O)C1([H])C([H])([H])C2([H])[H]


 35 39  0  0  0  0  0  0  0  0999 V2000
    0.0216  -53.8179  -21.5996 C   0  0  0  0  0  0  0  0  0  0  0  0
   -0.8374  -54.8087  -21.8047 N   0  0  0  0  0  0  0  0  0  0  0  0
   -1.4372  -55.1488  -22.9317 C   0  0  0  0  0  0  0  0  0  0  0  0
   -1.1241  -54.3740  -24.0141 N   0  0  0  0  0  0  0  0  0  0  0  0
   -0.2448  -53.3318  -23.8827 C   0  0  0  0  0  0  0  0  0  0  0  0
    0.3740  -52.1753  -24.9715 S   0  0  0  0  0  0  0  0  0  0  0  0
    1.3839  -51.3046  -23.9067 C   0  0  0  0  0  0  0  0  0  0  0  0
    1.2039  -51.9531  -22.7173 C   0  0  0  0  0  0  0  0  0  0  0  0
    0.3554  -53.0086  -22.7067 C   0  0  0  0  0  0  0  0  0  0  0  0
    2.2251  -50.1631  -24.1844 N   0  0  0  0  0  0  0  0  0  0  0  0
    3.5474  -50.4552  -24.6027 C   0  0  0  0  0  0  0  0  0  0  0  0
    3.9988  -51.5978  -24.7364 O   0  0  0  0  0  0  0  0  0  0  0  0
    1.8302  -49.2355  -24.0667 H   0  0  0  0  0  0  0  0  0  0  0  0
    4.4429  -49.3108  -24.8978 C   0  0  0  0  0  0  0  0  0  0  0  0
    4.1026  -48.4030  -25.7755 C   0  0  0  0  0  0  0  0  0  0  0  0
    4.9563  -47.2559  -26.1012 C   0  0  0  0  0  0  0  0  0  0  0  0
    4.7863  -46.7458  -27.4162 N   0  0  0  0  0  0  0  0  0  0  0  0
    3.6770  -47.2848  -28.1344 C   0  0  0  0  0  0  0  0  0  0  0  0
    2.5841  -46.2374  -28.3214 C   0  0  0  0  0  0  0  0  0  0  0  0
    2.4245  -45.4713  -27.0497 C   0  0  0  0  0  0  0  0  0  0  0  0
    3.6869  -44.8087  -26.5999 C   0  0  0  0  0  0  0  0  0  0  0  0
    4.8368  -45.2919  -27.4753 C   0  0  0  0  0  0  0  0  0  0  0  0
    4.5041  -44.9167  -28.8742 C   0  0  0  0  0  0  0  0  0  0  0  0
    5.2747  -44.3707  -29.6181 O   0  0  0  0  0  0  0  0  0  0  0  0
    3.1352  -45.2458  -29.3569 C   0  0  0  0  0  0  0  0  0  0  0  0
    0.5779  -53.6203  -20.3229 N   0  0  0  0  0  0  0  0  0  0  0  0
    1.5013  -54.1528  -20.1620 H   0  0  0  0  0  0  0  0  0  0  0  0
   -0.9224  -50.2709  -16.1910 F   0  0  0  0  0  0  0  0  0  0  0  0
   -0.6087  -51.1276  -17.1838 C   0  0  0  0  0  0  0  0  0  0  0  0
   -1.2621  -52.3247  -17.3786 C   0  0  0  0  0  0  0  0  0  0  0  0
   -0.9087  -53.1680  -18.4040 C   0  0  0  0  0  0  0  0  0  0  0  0
    0.1083  -52.8337  -19.2597 C   0  0  0  0  0  0  0  0  0  0  0  0
    0.7518  -51.6143  -19.0378 C   0  0  0  0  0  0  0  0  0  0  0  0
    0.4188  -50.7672  -18.0321 C   0  0  0  0  0  0  0  0  0  0  0  0
    1.2970  -49.2443  -17.8365 Cl  0  0  0  0  0  0  0  0  0  0  0  0
 28 29  1  0  0  0
 29 30  2  0  0  0
 30 31  1  0  0  0
 31 32  2  0  0  0
 32 26  1  0  0  0
 26  1  1  0  0  0
  1  2  1  0  0  0
  2  3  2  0  0  0
  3  4  1  0  0  0
  4  5  2  0  0  0
  5  6  1  0  0  0
  6  7  1  0  0  0
  7 10  1  0  0  0
 10 11  1  0  0  0
 11 12  2  0  0  0
 11 14  1  0  0  0
 14 15  2  0  0  0
 15 16  1  0  0  0
 16 17  1  0  0  0
 17 18  1  0  0  0
 18 19  1  0  0  0
 19 20  1  0  0  0
 20 21  1  0  0  0
 21 22  1  0  0  0
 22 23  1  0  0  0
 23 24  2  0  0  0
 23 25  1  0  0  0
  7  8  2  0  0  0
  8  9  1  0  0  0
 32 33  1  0  0  0
 33 34  2  0  0  0
 34 35  1  0  0  0
 34 29  1  0  0  0
  9  1  2  0  0  0
  9  5  1  0  0  0
 22 17  1  0  0  0
 25 19  1  0  0  0
 26 27  1  0  0  0
 10 13  1  0  0  0
M  END
> <minimizedAffinity>
-7.52273

> <CNNscore>
0.4666324854

> <CNNaffinity>
7.0211763382

> <CNN_VS>
3.2763090134

> <CNNaffinity_variance>
0.2483224869

$$$$
[H]C#Cc1c([H])c([H])c([H])c(N([H])c2nc([H])nc3c([H])c4c(c([H])c23)N(C(=O)/C([H])=C(\[H])C([H])([H])N2C([H])([H])C([H])([H])OC([H])([H])C2([H])[H])C([H])([H])C([H])([H])O4)c1[H]


 35 39  0  0  0  0  0  0  0  0999 V2000
    3.1104  -50.3900  -21.3409 O   0  0  0  0  0  0  0  0  0  0  0  0
    2.8916  -50.1365  -20.0781 C   0  0  0  0  0  0  0  0  0  0  0  0
    1.6585  -50.4315  -19.5341 N   0  0  0  0  0  0  0  0  0  0  0  0
    1.0388  -49.6142  -18.4839 C   0  0  0  0  0  0  0  0  0  0  0  0
    0.6130  -50.4846  -17.3423 C   0  0  0  0  0  0  0  0  0  0  0  0
   -0.1182  -51.5852  -17.8610 O   0  0  0  0  0  0  0  0  0  0  0  0
   -0.0490  -52.0553  -19.1413 C   0  0  0  0  0  0  0  0  0  0  0  0
   -0.8313  -53.0748  -19.6047 C   0  0  0  0  0  0  0  0  0  0  0  0
   -0.7485  -53.5390  -20.8980 C   0  0  0  0  0  0  0  0  0  0  0  0
   -1.5115  -54.5371  -21.3497 N   0  0  0  0  0  0  0  0  0  0  0  0
   -1.4443  -55.0037  -22.6004 C   0  0  0  0  0  0  0  0  0  0  0  0
   -0.5671  -54.4358  -23.4309 N   0  0  0  0  0  0  0  0  0  0  0  0
    0.2644  -53.4145  -23.0930 C   0  0  0  0  0  0  0  0  0  0  0  0
    0.1611  -52.9681  -21.8004 C   0  0  0  0  0  0  0  0  0  0  0  0
    0.9524  -51.9354  -21.3293 C   0  0  0  0  0  0  0  0  0  0  0  0
    0.8452  -51.4949  -20.0319 C   0  0  0  0  0  0  0  0  0  0  0  0
    4.0794  -49.5590  -19.4615 C   0  0  0  0  0  0  0  0  0  0  0  0
    4.4145  -48.3036  -19.4714 C   0  0  0  0  0  0  0  0  0  0  0  0
    5.6931  -47.9351  -18.7729 C   0  0  0  0  0  0  0  0  0  0  0  0
    6.7879  -47.7920  -19.6627 N   0  0  0  0  0  0  0  0  0  0  0  0
    6.5271  -47.2111  -20.9330 C   0  0  0  0  0  0  0  0  0  0  0  0
    7.2329  -47.9527  -22.0569 C   0  0  0  0  0  0  0  0  0  0  0  0
    6.9376  -49.3039  -21.8997 O   0  0  0  0  0  0  0  0  0  0  0  0
    7.6906  -49.7771  -20.8354 C   0  0  0  0  0  0  0  0  0  0  0  0
    7.6760  -48.9013  -19.6316 C   0  0  0  0  0  0  0  0  0  0  0  0
    1.1470  -52.8303  -24.0123 N   0  0  0  0  0  0  0  0  0  0  0  0
    2.0146  -52.3707  -23.6670 H   0  0  0  0  0  0  0  0  0  0  0  0
    0.9682  -52.8044  -25.4181 C   0  0  0  0  0  0  0  0  0  0  0  0
    2.1093  -52.8921  -26.2318 C   0  0  0  0  0  0  0  0  0  0  0  0
    2.0469  -52.9046  -27.6041 C   0  0  0  0  0  0  0  0  0  0  0  0
    0.8051  -52.8275  -28.2045 C   0  0  0  0  0  0  0  0  0  0  0  0
   -0.3394  -52.7407  -27.4458 C   0  0  0  0  0  0  0  0  0  0  0  0
   -0.2546  -52.7296  -26.0368 C   0  0  0  0  0  0  0  0  0  0  0  0
   -1.6250  -52.6610  -28.0791 C   0  0  0  0  0  0  0  0  0  0  0  0
   -2.7248  -52.5755  -28.6089 C   0  0  0  0  0  0  0  0  0  0  0  0
  1  2  2  0  0  0
  2 17  1  0  0  0
 17 18  2  0  0  0
 18 19  1  0  0  0
 19 20  1  0  0  0
 20 21  1  0  0  0
 21 22  1  0  0  0
 22 23  1  0  0  0
 23 24  1  0  0  0
 24 25  1  0  0  0
  2  3  1  0  0  0
  3  4  1  0  0  0
  4  5  1  0  0  0
  5  6  1  0  0  0
  6  7  1  0  0  0
  7  8  2  0  0  0
  8  9  1  0  0  0
  9 10  2  0  0  0
 10 11  1  0  0  0
 11 12  2  0  0  0
 12 13  1  0  0  0
 13 26  1  0  0  0
 26 28  1  0  0  0
 28 29  2  0  0  0
 29 30  1  0  0  0
 30 31  2  0  0  0
 31 32  1  0  0  0
 32 33  2  0  0  0
 32 34  1  0  0  0
 34 35  3  0  0  0
 13 14  2  0  0  0
 14 15  1  0  0  0
 15 16  2  0  0  0
 25 20  1  0  0  0
 16  3  1  0  0  0
 16  7  1  0  0  0
 14  9  1  0  0  0
 33 28  1  0  0  0
 26 27  1  0  0  0
M  END
> <minimizedAffinity>
-8.34324

> <CNNscore>
0.8236383796

> <CNNaffinity>
7.5054216385

> <CNN_VS>
6.1817531586

> <CNNaffinity_variance>
0.2546463013

$$$$
[H]C#Cc1c([H])c([H])c([H])c(N([H])c2nc([H])nc3c([H])c4c(c([H])c23)N(C(=O)/C([H])=C(\[H])C([H])([H])N2C([H])([H])C([H])([H])OC([H])([H])C2([H])[H])C([H])([H])C([H])([H])O4)c1[H]


 35 39  0  0  0  0  0  0  0  0999 V2000
    1.7550  -49.6350  -22.8648 O   0  0  0  0  0  0  0  0  0  0  0  0
    2.0399  -49.6198  -21.5898 C   0  0  0  0  0  0  0  0  0  0  0  0
    1.2970  -50.3941  -20.7228 N   0  0  0  0  0  0  0  0  0  0  0  0
    0.9893  -49.9750  -19.3500 C   0  0  0  0  0  0  0  0  0  0  0  0
    1.3568  -51.0624  -18.3882 C   0  0  0  0  0  0  0  0  0  0  0  0
    0.8117  -52.2857  -18.8589 O   0  0  0  0  0  0  0  0  0  0  0  0
    0.4510  -52.5532  -20.1486 C   0  0  0  0  0  0  0  0  0  0  0  0
   -0.1368  -53.7256  -20.5307 C   0  0  0  0  0  0  0  0  0  0  0  0
   -0.4931  -53.9814  -21.8356 C   0  0  0  0  0  0  0  0  0  0  0  0
   -1.0652  -55.1284  -22.2089 N   0  0  0  0  0  0  0  0  0  0  0  0
   -1.4158  -55.3967  -23.4704 C   0  0  0  0  0  0  0  0  0  0  0  0
   -1.1776  -54.4640  -24.3951 N   0  0  0  0  0  0  0  0  0  0  0  0
   -0.6021  -53.2582  -24.1430 C   0  0  0  0  0  0  0  0  0  0  0  0
   -0.2588  -53.0262  -22.8357 C   0  0  0  0  0  0  0  0  0  0  0  0
    0.3363  -51.8391  -22.4468 C   0  0  0  0  0  0  0  0  0  0  0  0
    0.6799  -51.6145  -21.1352 C   0  0  0  0  0  0  0  0  0  0  0  0
    3.1647  -48.7300  -21.3301 C   0  0  0  0  0  0  0  0  0  0  0  0
    4.1307  -48.4551  -22.1546 C   0  0  0  0  0  0  0  0  0  0  0  0
    5.1932  -47.5104  -21.6675 C   0  0  0  0  0  0  0  0  0  0  0  0
    5.3545  -46.3792  -22.5071 N   0  0  0  0  0  0  0  0  0  0  0  0
    5.8261  -45.1807  -21.9069 C   0  0  0  0  0  0  0  0  0  0  0  0
    5.0627  -43.9589  -22.3924 C   0  0  0  0  0  0  0  0  0  0  0  0
    3.7076  -44.2486  -22.2612 O   0  0  0  0  0  0  0  0  0  0  0  0
    3.3650  -45.1245  -23.2806 C   0  0  0  0  0  0  0  0  0  0  0  0
    4.3180  -46.2523  -23.4713 C   0  0  0  0  0  0  0  0  0  0  0  0
   -0.4020  -52.2984  -25.1452 N   0  0  0  0  0  0  0  0  0  0  0  0
   -1.1781  -51.6522  -25.3964 H   0  0  0  0  0  0  0  0  0  0  0  0
    0.7984  -52.1136  -25.8758 C   0  0  0  0  0  0  0  0  0  0  0  0
    1.1907  -53.1231  -26.7696 C   0  0  0  0  0  0  0  0  0  0  0  0
    2.3199  -53.0327  -27.5468 C   0  0  0  0  0  0  0  0  0  0  0  0
    3.0995  -51.8971  -27.4407 C   0  0  0  0  0  0  0  0  0  0  0  0
    2.7523  -50.8830  -26.5782 C   0  0  0  0  0  0  0  0  0  0  0  0
    1.5879  -50.9944  -25.7881 C   0  0  0  0  0  0  0  0  0  0  0  0
    3.5688  -49.7071  -26.4752 C   0  0  0  0  0  0  0  0  0  0  0  0
    4.2819  -48.7163  -26.3893 C   0  0  0  0  0  0  0  0  0  0  0  0
  1  2  2  0  0  0
  2 17  1  0  0  0
 17 18  2  0  0  0
 18 19  1  0  0  0
 19 20  1  0  0  0
 20 21  1  0  0  0
 21 22  1  0  0  0
 22 23  1  0  0  0
 23 24  1  0  0  0
 24 25  1  0  0  0
  2  3  1  0  0  0
  3  4  1  0  0  0
  4  5  1  0  0  0
  5  6  1  0  0  0
  6  7  1  0  0  0
  7  8  2  0  0  0
  8  9  1  0  0  0
  9 10  2  0  0  0
 10 11  1  0  0  0
 11 12  2  0  0  0
 12 13  1  0  0  0
 13 26  1  0  0  0
 26 28  1  0  0  0
 28 29  2  0  0  0
 29 30  1  0  0  0
 30 31  2  0  0  0
 31 32  1  0  0  0
 32 33  2  0  0  0
 32 34  1  0  0  0
 34 35  3  0  0  0
 13 14  2  0  0  0
 14 15  1  0  0  0
 15 16  2  0  0  0
 25 20  1  0  0  0
 16  3  1  0  0  0
 16  7  1  0  0  0
 14  9  1  0  0  0
 33 28  1  0  0  0
 26 27  1  0  0  0
M  END
> <minimizedAffinity>
-7.81682

> <CNNscore>
0.6025811434

> <CNNaffinity>
7.0252752304

> <CNN_VS>
4.2332983017

> <CNNaffinity_variance>
0.1349855363

$$$$
[H]C#Cc1c([H])c([H])c([H])c(N([H])c2nc([H])nc3c([H])c4c(c([H])c23)N(C(=O)/C([H])=C(\[H])C([H])([H])N2C([H])([H])C([H])([H])OC([H])([H])C2([H])[H])C([H])([H])C([H])([H])O4)c1[H]


 35 39  0  0  0  0  0  0  0  0999 V2000
    2.6539  -50.2984  -23.8561 O   0  0  0  0  0  0  0  0  0  0  0  0
    2.8494  -50.5541  -25.1223 C   0  0  0  0  0  0  0  0  0  0  0  0
    2.5468  -51.8077  -25.6124 N   0  0  0  0  0  0  0  0  0  0  0  0
    3.3216  -52.4499  -26.6812 C   0  0  0  0  0  0  0  0  0  0  0  0
    2.4037  -52.9235  -27.7653 C   0  0  0  0  0  0  0  0  0  0  0  0
    1.3402  -53.6522  -27.1711 O   0  0  0  0  0  0  0  0  0  0  0  0
    0.9313  -53.5482  -25.8722 C   0  0  0  0  0  0  0  0  0  0  0  0
   -0.0530  -54.3288  -25.3355 C   0  0  0  0  0  0  0  0  0  0  0  0
   -0.4556  -54.2108  -24.0244 C   0  0  0  0  0  0  0  0  0  0  0  0
   -1.4194  -54.9721  -23.5011 N   0  0  0  0  0  0  0  0  0  0  0  0
   -1.8262  -54.8710  -22.2320 C   0  0  0  0  0  0  0  0  0  0  0  0
   -1.2320  -53.9603  -21.4579 N   0  0  0  0  0  0  0  0  0  0  0  0
   -0.2405  -53.1266  -21.8709 C   0  0  0  0  0  0  0  0  0  0  0  0
    0.1446  -53.2653  -23.1798 C   0  0  0  0  0  0  0  0  0  0  0  0
    1.1417  -52.4759  -23.7251 C   0  0  0  0  0  0  0  0  0  0  0  0
    1.5207  -52.6187  -25.0383 C   0  0  0  0  0  0  0  0  0  0  0  0
    3.3790  -49.3792  -25.8032 C   0  0  0  0  0  0  0  0  0  0  0  0
    4.2944  -48.5773  -25.3478 C   0  0  0  0  0  0  0  0  0  0  0  0
    4.6826  -47.4198  -26.2243 C   0  0  0  0  0  0  0  0  0  0  0  0
    3.5762  -46.6185  -26.6042 N   0  0  0  0  0  0  0  0  0  0  0  0
    3.2012  -46.6281  -27.9748 C   0  0  0  0  0  0  0  0  0  0  0  0
    2.8815  -45.2340  -28.4902 C   0  0  0  0  0  0  0  0  0  0  0  0
    3.9441  -44.4126  -28.1245 O   0  0  0  0  0  0  0  0  0  0  0  0
    3.8317  -44.1609  -26.7652 C   0  0  0  0  0  0  0  0  0  0  0  0
    3.5451  -45.3641  -25.9366 C   0  0  0  0  0  0  0  0  0  0  0  0
    0.3742  -52.2074  -21.0091 N   0  0  0  0  0  0  0  0  0  0  0  0
    1.1537  -51.6163  -21.3640 H   0  0  0  0  0  0  0  0  0  0  0  0
    0.0245  -51.9949  -19.6521 C   0  0  0  0  0  0  0  0  0  0  0  0
   -0.7611  -52.9668  -19.0116 C   0  0  0  0  0  0  0  0  0  0  0  0
   -1.1325  -52.8738  -17.6922 C   0  0  0  0  0  0  0  0  0  0  0  0
   -0.7121  -51.7745  -16.9689 C   0  0  0  0  0  0  0  0  0  0  0  0
    0.0594  -50.7984  -17.5563 C   0  0  0  0  0  0  0  0  0  0  0  0
    0.4311  -50.9122  -18.9133 C   0  0  0  0  0  0  0  0  0  0  0  0
    0.4913  -49.6600  -16.7962 C   0  0  0  0  0  0  0  0  0  0  0  0
    0.8399  -48.6834  -16.1465 C   0  0  0  0  0  0  0  0  0  0  0  0
  1  2  2  0  0  0
  2 17  1  0  0  0
 17 18  2  0  0  0
 18 19  1  0  0  0
 19 20  1  0  0  0
 20 21  1  0  0  0
 21 22  1  0  0  0
 22 23  1  0  0  0
 23 24  1  0  0  0
 24 25  1  0  0  0
  2  3  1  0  0  0
  3  4  1  0  0  0
  4  5  1  0  0  0
  5  6  1  0  0  0
  6  7  1  0  0  0
  7  8  2  0  0  0
  8  9  1  0  0  0
  9 10  2  0  0  0
 10 11  1  0  0  0
 11 12  2  0  0  0
 12 13  1  0  0  0
 13 26  1  0  0  0
 26 28  1  0  0  0
 28 29  2  0  0  0
 29 30  1  0  0  0
 30 31  2  0  0  0
 31 32  1  0  0  0
 32 33  2  0  0  0
 32 34  1  0  0  0
 34 35  3  0  0  0
 13 14  2  0  0  0
 14 15  1  0  0  0
 15 16  2  0  0  0
 25 20  1  0  0  0
 16  3  1  0  0  0
 16  7  1  0  0  0
 14  9  1  0  0  0
 33 28  1  0  0  0
 26 27  1  0  0  0
M  END
> <minimizedAffinity>
-8.32353

> <CNNscore>
0.5863215923

> <CNNaffinity>
7.2427949905

> <CNN_VS>
4.2466073036

> <CNNaffinity_variance>
0.3232606649

$$$$
[H]C#Cc1c([H])c([H])c([H])c(N([H])c2nc([H])nc3c([H])c4c(c([H])c23)N(C(=O)/C([H])=C(\[H])C([H])([H])N2C([H])([H])C([H])([H])OC([H])([H])C2([H])[H])C([H])([H])C([H])([H])O4)c1[H]


 35 39  0  0  0  0  0  0  0  0999 V2000
    2.6851  -50.0623  -23.5162 O   0  0  0  0  0  0  0  0  0  0  0  0
    2.8283  -49.4702  -22.3605 C   0  0  0  0  0  0  0  0  0  0  0  0
    1.8567  -49.6314  -21.3944 N   0  0  0  0  0  0  0  0  0  0  0  0
    1.4930  -48.5680  -20.4500 C   0  0  0  0  0  0  0  0  0  0  0  0
    1.5301  -49.0934  -19.0483 C   0  0  0  0  0  0  0  0  0  0  0  0
    0.8054  -50.3133  -19.0033 O   0  0  0  0  0  0  0  0  0  0  0  0
    0.5396  -51.1218  -20.0713 C   0  0  0  0  0  0  0  0  0  0  0  0
   -0.2260  -52.2495  -19.9805 C   0  0  0  0  0  0  0  0  0  0  0  0
   -0.4835  -53.0558  -21.0662 C   0  0  0  0  0  0  0  0  0  0  0  0
   -1.2297  -54.1592  -20.9764 N   0  0  0  0  0  0  0  0  0  0  0  0
   -1.4889  -54.9561  -22.0176 C   0  0  0  0  0  0  0  0  0  0  0  0
   -0.9710  -54.6224  -23.2018 N   0  0  0  0  0  0  0  0  0  0  0  0
   -0.1968  -53.5269  -23.4231 C   0  0  0  0  0  0  0  0  0  0  0  0
    0.0431  -52.7385  -22.3269 C   0  0  0  0  0  0  0  0  0  0  0  0
    0.8180  -51.5956  -22.4170 C   0  0  0  0  0  0  0  0  0  0  0  0
    1.0563  -50.8116  -21.3137 C   0  0  0  0  0  0  0  0  0  0  0  0
    4.0736  -48.7135  -22.3269 C   0  0  0  0  0  0  0  0  0  0  0  0
    4.7633  -48.3269  -23.3581 C   0  0  0  0  0  0  0  0  0  0  0  0
    6.0262  -47.5598  -23.0833 C   0  0  0  0  0  0  0  0  0  0  0  0
    6.6463  -47.0748  -24.2626 N   0  0  0  0  0  0  0  0  0  0  0  0
    5.8058  -46.5079  -25.2582 C   0  0  0  0  0  0  0  0  0  0  0  0
    6.1887  -46.9632  -26.6573 C   0  0  0  0  0  0  0  0  0  0  0  0
    6.2875  -48.3511  -26.6195 O   0  0  0  0  0  0  0  0  0  0  0  0
    7.4695  -48.6702  -25.9679 C   0  0  0  0  0  0  0  0  0  0  0  0
    7.7079  -47.9059  -24.7127 C   0  0  0  0  0  0  0  0  0  0  0  0
    0.2978  -53.2023  -24.6942 N   0  0  0  0  0  0  0  0  0  0  0  0
    1.3256  -53.1986  -24.8572 H   0  0  0  0  0  0  0  0  0  0  0  0
   -0.4939  -52.8677  -25.8213 C   0  0  0  0  0  0  0  0  0  0  0  0
   -1.7282  -52.2362  -25.5986 C   0  0  0  0  0  0  0  0  0  0  0  0
   -2.5595  -51.8440  -26.6197 C   0  0  0  0  0  0  0  0  0  0  0  0
   -2.1587  -52.0835  -27.9199 C   0  0  0  0  0  0  0  0  0  0  0  0
   -0.9570  -52.6991  -28.1840 C   0  0  0  0  0  0  0  0  0  0  0  0
   -0.1164  -53.0944  -27.1211 C   0  0  0  0  0  0  0  0  0  0  0  0
   -0.5495  -52.9435  -29.5384 C   0  0  0  0  0  0  0  0  0  0  0  0
   -0.1911  -53.1680  -30.6867 C   0  0  0  0  0  0  0  0  0  0  0  0
  1  2  2  0  0  0
  2 17  1  0  0  0
 17 18  2  0  0  0
 18 19  1  0  0  0
 19 20  1  0  0  0
 20 21  1  0  0  0
 21 22  1  0  0  0
 22 23  1  0  0  0
 23 24  1  0  0  0
 24 25  1  0  0  0
  2  3  1  0  0  0
  3  4  1  0  0  0
  4  5  1  0  0  0
  5  6  1  0  0  0
  6  7  1  0  0  0
  7  8  2  0  0  0
  8  9  1  0  0  0
  9 10  2  0  0  0
 10 11  1  0  0  0
 11 12  2  0  0  0
 12 13  1  0  0  0
 13 26  1  0  0  0
 26 28  1  0  0  0
 28 29  2  0  0  0
 29 30  1  0  0  0
 30 31  2  0  0  0
 31 32  1  0  0  0
 32 33  2  0  0  0
 32 34  1  0  0  0
 34 35  3  0  0  0
 13 14  2  0  0  0
 14 15  1  0  0  0
 15 16  2  0  0  0
 25 20  1  0  0  0
 16  3  1  0  0  0
 16  7  1  0  0  0
 14  9  1  0  0  0
 33 28  1  0  0  0
 26 27  1  0  0  0
M  END
> <minimizedAffinity>
-7.20521

> <CNNscore>
0.5792746544

> <CNNaffinity>
7.1756210327

> <CNN_VS>
4.1566553116

> <CNNaffinity_variance>
0.3034926653

$$$$
[H]C#Cc1c([H])c([H])c([H])c(N([H])c2nc([H])nc3c([H])c4c(c([H])c23)N(C(=O)/C([H])=C(\[H])C([H])([H])N2C([H])([H])C([H])([H])OC([H])([H])C2([H])[H])C([H])([H])C([H])([H])O4)c1[H]


 35 39  0  0  0  0  0  0  0  0999 V2000
    3.4861  -51.1099  -22.8899 O   0  0  0  0  0  0  0  0  0  0  0  0
    3.4560  -51.0663  -24.1953 C   0  0  0  0  0  0  0  0  0  0  0  0
    2.7521  -52.0303  -24.8869 N   0  0  0  0  0  0  0  0  0  0  0  0
    3.1838  -52.5440  -26.1926 C   0  0  0  0  0  0  0  0  0  0  0  0
    2.0525  -52.4711  -27.1709 C   0  0  0  0  0  0  0  0  0  0  0  0
    0.8981  -53.0384  -26.5704 O   0  0  0  0  0  0  0  0  0  0  0  0
    0.6852  -53.1784  -25.2287 C   0  0  0  0  0  0  0  0  0  0  0  0
   -0.4153  -53.7987  -24.7090 C   0  0  0  0  0  0  0  0  0  0  0  0
   -0.6168  -53.9304  -23.3536 C   0  0  0  0  0  0  0  0  0  0  0  0
   -1.6938  -54.5345  -22.8462 N   0  0  0  0  0  0  0  0  0  0  0  0
   -1.9088  -54.6699  -21.5340 C   0  0  0  0  0  0  0  0  0  0  0  0
   -0.9944  -54.1730  -20.6981 N   0  0  0  0  0  0  0  0  0  0  0  0
    0.1422  -53.5372  -21.0889 C   0  0  0  0  0  0  0  0  0  0  0  0
    0.3213  -53.4210  -22.4436 C   0  0  0  0  0  0  0  0  0  0  0  0
    1.4356  -52.7934  -22.9719 C   0  0  0  0  0  0  0  0  0  0  0  0
    1.6073  -52.6783  -24.3305 C   0  0  0  0  0  0  0  0  0  0  0  0
    4.2215  -49.9264  -24.6844 C   0  0  0  0  0  0  0  0  0  0  0  0
    3.8725  -48.6773  -24.6032 C   0  0  0  0  0  0  0  0  0  0  0  0
    4.8208  -47.6666  -25.1845 C   0  0  0  0  0  0  0  0  0  0  0  0
    4.6525  -46.3704  -24.6350 N   0  0  0  0  0  0  0  0  0  0  0  0
    4.4676  -46.2745  -23.2293 C   0  0  0  0  0  0  0  0  0  0  0  0
    3.3718  -45.2866  -22.8625 C   0  0  0  0  0  0  0  0  0  0  0  0
    2.2585  -45.6112  -23.6324 O   0  0  0  0  0  0  0  0  0  0  0  0
    2.5025  -45.1774  -24.9270 C   0  0  0  0  0  0  0  0  0  0  0  0
    3.8533  -45.5226  -25.4491 C   0  0  0  0  0  0  0  0  0  0  0  0
    1.0884  -53.0604  -20.1709 N   0  0  0  0  0  0  0  0  0  0  0  0
    1.9332  -53.6319  -19.9640 H   0  0  0  0  0  0  0  0  0  0  0  0
    1.0054  -51.8302  -19.4719 C   0  0  0  0  0  0  0  0  0  0  0  0
    0.1823  -51.7691  -18.3359 C   0  0  0  0  0  0  0  0  0  0  0  0
    0.0520  -50.6359  -17.5702 C   0  0  0  0  0  0  0  0  0  0  0  0
    0.7640  -49.5107  -17.9381 C   0  0  0  0  0  0  0  0  0  0  0  0
    1.5829  -49.5261  -19.0436 C   0  0  0  0  0  0  0  0  0  0  0  0
    1.7038  -50.7004  -19.8176 C   0  0  0  0  0  0  0  0  0  0  0  0
    2.3186  -48.3519  -19.4176 C   0  0  0  0  0  0  0  0  0  0  0  0
    2.9381  -47.3521  -19.7555 C   0  0  0  0  0  0  0  0  0  0  0  0
  1  2  2  0  0  0
  2 17  1  0  0  0
 17 18  2  0  0  0
 18 19  1  0  0  0
 19 20  1  0  0  0
 20 21  1  0  0  0
 21 22  1  0  0  0
 22 23  1  0  0  0
 23 24  1  0  0  0
 24 25  1  0  0  0
  2  3  1  0  0  0
  3  4  1  0  0  0
  4  5  1  0  0  0
  5  6  1  0  0  0
  6  7  1  0  0  0
  7  8  2  0  0  0
  8  9  1  0  0  0
  9 10  2  0  0  0
 10 11  1  0  0  0
 11 12  2  0  0  0
 12 13  1  0  0  0
 13 26  1  0  0  0
 26 28  1  0  0  0
 28 29  2  0  0  0
 29 30  1  0  0  0
 30 31  2  0  0  0
 31 32  1  0  0  0
 32 33  2  0  0  0
 32 34  1  0  0  0
 34 35  3  0  0  0
 13 14  2  0  0  0
 14 15  1  0  0  0
 15 16  2  0  0  0
 25 20  1  0  0  0
 16  3  1  0  0  0
 16  7  1  0  0  0
 14  9  1  0  0  0
 33 28  1  0  0  0
 26 27  1  0  0  0
M  END
> <minimizedAffinity>
-7.27349

> <CNNscore>
0.5758337975

> <CNNaffinity>
7.2274031639

> <CNN_VS>
4.1617832184

> <CNNaffinity_variance>
0.2833446264

$$$$
[H]C#Cc1c([H])c([H])c([H])c(N([H])c2nc([H])nc3c([H])c4c(c([H])c23)N(C(=O)/C([H])=C(\[H])C([H])([H])N2C([H])([H])C([H])([H])OC([H])([H])C2([H])[H])C([H])([H])C([H])([H])O4)c1[H]


 35 39  0  0  0  0  0  0  0  0999 V2000
    1.7649  -49.5682  -22.8390 O   0  0  0  0  0  0  0  0  0  0  0  0
    2.0627  -49.5330  -21.5674 C   0  0  0  0  0  0  0  0  0  0  0  0
    1.3335  -50.2996  -20.6818 N   0  0  0  0  0  0  0  0  0  0  0  0
    1.0372  -49.8629  -19.3120 C   0  0  0  0  0  0  0  0  0  0  0  0
    1.4214  -50.9341  -18.3388 C   0  0  0  0  0  0  0  0  0  0  0  0
    0.8793  -52.1673  -18.7864 O   0  0  0  0  0  0  0  0  0  0  0  0
    0.5072  -52.4554  -20.0685 C   0  0  0  0  0  0  0  0  0  0  0  0
   -0.0770  -53.6368  -20.4278 C   0  0  0  0  0  0  0  0  0  0  0  0
   -0.4449  -53.9134  -21.7252 C   0  0  0  0  0  0  0  0  0  0  0  0
   -1.0134  -55.0691  -22.0763 N   0  0  0  0  0  0  0  0  0  0  0  0
   -1.3751  -55.3575  -23.3303 C   0  0  0  0  0  0  0  0  0  0  0  0
   -1.1524  -54.4366  -24.2705 N   0  0  0  0  0  0  0  0  0  0  0  0
   -0.5820  -53.2238  -24.0414 C   0  0  0  0  0  0  0  0  0  0  0  0
   -0.2269  -52.9711  -22.7412 C   0  0  0  0  0  0  0  0  0  0  0  0
    0.3646  -51.7749  -22.3752 C   0  0  0  0  0  0  0  0  0  0  0  0
    0.7201  -51.5295  -21.0706 C   0  0  0  0  0  0  0  0  0  0  0  0
    3.1844  -48.6326  -21.3318 C   0  0  0  0  0  0  0  0  0  0  0  0
    3.1074  -47.3551  -21.1069 C   0  0  0  0  0  0  0  0  0  0  0  0
    4.4024  -46.6219  -20.8970 C   0  0  0  0  0  0  0  0  0  0  0  0
    4.4478  -45.9215  -19.6650 N   0  0  0  0  0  0  0  0  0  0  0  0
    5.7283  -45.6656  -19.1046 C   0  0  0  0  0  0  0  0  0  0  0  0
    5.7590  -45.9231  -17.6065 C   0  0  0  0  0  0  0  0  0  0  0  0
    5.2127  -47.1868  -17.4008 O   0  0  0  0  0  0  0  0  0  0  0  0
    3.8394  -47.0821  -17.5641 C   0  0  0  0  0  0  0  0  0  0  0  0
    3.4180  -46.3124  -18.7668 C   0  0  0  0  0  0  0  0  0  0  0  0
   -0.3982  -52.2771  -25.0591 N   0  0  0  0  0  0  0  0  0  0  0  0
   -1.1624  -51.6049  -25.2760 H   0  0  0  0  0  0  0  0  0  0  0  0
    0.7700  -52.1394  -25.8499 C   0  0  0  0  0  0  0  0  0  0  0  0
    1.1147  -53.1946  -26.7099 C   0  0  0  0  0  0  0  0  0  0  0  0
    2.2090  -53.1527  -27.5394 C   0  0  0  0  0  0  0  0  0  0  0  0
    3.0010  -52.0209  -27.5230 C   0  0  0  0  0  0  0  0  0  0  0  0
    2.7000  -50.9631  -26.6963 C   0  0  0  0  0  0  0  0  0  0  0  0
    1.5710  -51.0250  -25.8513 C   0  0  0  0  0  0  0  0  0  0  0  0
    3.5292  -49.7915  -26.6866 C   0  0  0  0  0  0  0  0  0  0  0  0
    4.2528  -48.8047  -26.6803 C   0  0  0  0  0  0  0  0  0  0  0  0
  1  2  2  0  0  0
  2 17  1  0  0  0
 17 18  2  0  0  0
 18 19  1  0  0  0
 19 20  1  0  0  0
 20 21  1  0  0  0
 21 22  1  0  0  0
 22 23  1  0  0  0
 23 24  1  0  0  0
 24 25  1  0  0  0
  2  3  1  0  0  0
  3  4  1  0  0  0
  4  5  1  0  0  0
  5  6  1  0  0  0
  6  7  1  0  0  0
  7  8  2  0  0  0
  8  9  1  0  0  0
  9 10  2  0  0  0
 10 11  1  0  0  0
 11 12  2  0  0  0
 12 13  1  0  0  0
 13 26  1  0  0  0
 26 28  1  0  0  0
 28 29  2  0  0  0
 29 30  1  0  0  0
 30 31  2  0  0  0
 31 32  1  0  0  0
 32 33  2  0  0  0
 32 34  1  0  0  0
 34 35  3  0  0  0
 13 14  2  0  0  0
 14 15  1  0  0  0
 15 16  2  0  0  0
 25 20  1  0  0  0
 16  3  1  0  0  0
 16  7  1  0  0  0
 14  9  1  0  0  0
 33 28  1  0  0  0
 26 27  1  0  0  0
M  END
> <minimizedAffinity>
-7.39832

> <CNNscore>
0.5615217090

> <CNNaffinity>
7.0113792419

> <CNN_VS>
3.9370417595

> <CNNaffinity_variance>
0.1501652151

$$$$
[H]C#Cc1c([H])c([H])c([H])c(N([H])c2nc([H])nc3c([H])c4c(c([H])c23)N(C(=O)/C([H])=C(\[H])C([H])([H])N2C([H])([H])C([H])([H])OC([H])([H])C2([H])[H])C([H])([H])C([H])([H])O4)c1[H]


 35 39  0  0  0  0  0  0  0  0999 V2000
    2.7876  -50.8336  -24.2340 O   0  0  0  0  0  0  0  0  0  0  0  0
    2.4327  -51.3169  -25.3948 C   0  0  0  0  0  0  0  0  0  0  0  0
    1.7421  -52.5100  -25.4467 N   0  0  0  0  0  0  0  0  0  0  0  0
    1.9169  -53.4811  -26.5336 C   0  0  0  0  0  0  0  0  0  0  0  0
    0.5838  -53.8606  -27.1004 C   0  0  0  0  0  0  0  0  0  0  0  0
   -0.2844  -54.1959  -26.0285 O   0  0  0  0  0  0  0  0  0  0  0  0
   -0.1379  -53.7982  -24.7303 C   0  0  0  0  0  0  0  0  0  0  0  0
   -0.9659  -54.2118  -23.7256 C   0  0  0  0  0  0  0  0  0  0  0  0
   -0.8064  -53.8004  -22.4216 C   0  0  0  0  0  0  0  0  0  0  0  0
   -1.6175  -54.2030  -21.4406 N   0  0  0  0  0  0  0  0  0  0  0  0
   -1.4810  -53.8129  -20.1695 C   0  0  0  0  0  0  0  0  0  0  0  0
   -0.4801  -52.9794  -19.8776 N   0  0  0  0  0  0  0  0  0  0  0  0
    0.4115  -52.4984  -20.7844 C   0  0  0  0  0  0  0  0  0  0  0  0
    0.2333  -52.9247  -22.0756 C   0  0  0  0  0  0  0  0  0  0  0  0
    1.0712  -52.5072  -23.0945 C   0  0  0  0  0  0  0  0  0  0  0  0
    0.8851  -52.9366  -24.3866 C   0  0  0  0  0  0  0  0  0  0  0  0
    2.8658  -50.4317  -26.4688 C   0  0  0  0  0  0  0  0  0  0  0  0
    3.4298  -49.2701  -26.3239 C   0  0  0  0  0  0  0  0  0  0  0  0
    3.7873  -48.5259  -27.5797 C   0  0  0  0  0  0  0  0  0  0  0  0
    3.9368  -47.1312  -27.3724 N   0  0  0  0  0  0  0  0  0  0  0  0
    4.4277  -46.7064  -26.1084 C   0  0  0  0  0  0  0  0  0  0  0  0
    3.6608  -45.5093  -25.5696 C   0  0  0  0  0  0  0  0  0  0  0  0
    2.3072  -45.8220  -25.6569 O   0  0  0  0  0  0  0  0  0  0  0  0
    1.9380  -45.7206  -26.9900 C   0  0  0  0  0  0  0  0  0  0  0  0
    2.8806  -46.3697  -27.9422 C   0  0  0  0  0  0  0  0  0  0  0  0
    1.4661  -51.6489  -20.4215 N   0  0  0  0  0  0  0  0  0  0  0  0
    2.1690  -51.3719  -21.1373 H   0  0  0  0  0  0  0  0  0  0  0  0
    1.6763  -51.1089  -19.1280 C   0  0  0  0  0  0  0  0  0  0  0  0
    2.9462  -51.2576  -18.5475 C   0  0  0  0  0  0  0  0  0  0  0  0
    3.2651  -50.7483  -17.3120 C   0  0  0  0  0  0  0  0  0  0  0  0
    2.2904  -50.0608  -16.6149 C   0  0  0  0  0  0  0  0  0  0  0  0
    1.0326  -49.8910  -17.1461 C   0  0  0  0  0  0  0  0  0  0  0  0
    0.7244  -50.4215  -18.4174 C   0  0  0  0  0  0  0  0  0  0  0  0
    0.0269  -49.1751  -16.4140 C   0  0  0  0  0  0  0  0  0  0  0  0
   -0.8303  -48.5794  -15.7753 C   0  0  0  0  0  0  0  0  0  0  0  0
  1  2  2  0  0  0
  2 17  1  0  0  0
 17 18  2  0  0  0
 18 19  1  0  0  0
 19 20  1  0  0  0
 20 21  1  0  0  0
 21 22  1  0  0  0
 22 23  1  0  0  0
 23 24  1  0  0  0
 24 25  1  0  0  0
  2  3  1  0  0  0
  3  4  1  0  0  0
  4  5  1  0  0  0
  5  6  1  0  0  0
  6  7  1  0  0  0
  7  8  2  0  0  0
  8  9  1  0  0  0
  9 10  2  0  0  0
 10 11  1  0  0  0
 11 12  2  0  0  0
 12 13  1  0  0  0
 13 26  1  0  0  0
 26 28  1  0  0  0
 28 29  2  0  0  0
 29 30  1  0  0  0
 30 31  2  0  0  0
 31 32  1  0  0  0
 32 33  2  0  0  0
 32 34  1  0  0  0
 34 35  3  0  0  0
 13 14  2  0  0  0
 14 15  1  0  0  0
 15 16  2  0  0  0
 25 20  1  0  0  0
 16  3  1  0  0  0
 16  7  1  0  0  0
 14  9  1  0  0  0
 33 28  1  0  0  0
 26 27  1  0  0  0
M  END
> <minimizedAffinity>
-8.06228

> <CNNscore>
0.4687689841

> <CNNaffinity>
7.0675382614

> <CNN_VS>
3.3130426407

> <CNNaffinity_variance>
0.3599048257

$$$$
[H]C#Cc1c([H])c([H])c([H])c(N([H])c2nc([H])nc3c([H])c4c(c([H])c23)N(C(=O)/C([H])=C(\[H])C([H])([H])N2C([H])([H])C([H])([H])OC([H])([H])C2([H])[H])C([H])([H])C([H])([H])O4)c1[H]


 35 39  0  0  0  0  0  0  0  0999 V2000
    2.0440  -49.5602  -23.0929 O   0  0  0  0  0  0  0  0  0  0  0  0
    2.4350  -49.4807  -21.8488 C   0  0  0  0  0  0  0  0  0  0  0  0
    1.7453  -50.1778  -20.8785 N   0  0  0  0  0  0  0  0  0  0  0  0
    1.5658  -49.6696  -19.5131 C   0  0  0  0  0  0  0  0  0  0  0  0
    1.9811  -50.7111  -18.5205 C   0  0  0  0  0  0  0  0  0  0  0  0
    1.3634  -51.9405  -18.8699 O   0  0  0  0  0  0  0  0  0  0  0  0
    0.8884  -52.2701  -20.1071 C   0  0  0  0  0  0  0  0  0  0  0  0
    0.2371  -53.4422  -20.3680 C   0  0  0  0  0  0  0  0  0  0  0  0
   -0.2344  -53.7611  -21.6214 C   0  0  0  0  0  0  0  0  0  0  0  0
   -0.8686  -54.9079  -21.8763 N   0  0  0  0  0  0  0  0  0  0  0  0
   -1.3312  -55.2369  -23.0864 C   0  0  0  0  0  0  0  0  0  0  0  0
   -1.1446  -54.3680  -24.0823 N   0  0  0  0  0  0  0  0  0  0  0  0
   -0.5154  -53.1698  -23.9518 C   0  0  0  0  0  0  0  0  0  0  0  0
   -0.0573  -52.8740  -22.6934 C   0  0  0  0  0  0  0  0  0  0  0  0
    0.6023  -51.6872  -22.4272 C   0  0  0  0  0  0  0  0  0  0  0  0
    1.0609  -51.3985  -21.1643 C   0  0  0  0  0  0  0  0  0  0  0  0
    3.6028  -48.6157  -21.7365 C   0  0  0  0  0  0  0  0  0  0  0  0
    4.3442  -48.1980  -22.7184 C   0  0  0  0  0  0  0  0  0  0  0  0
    5.5076  -47.3146  -22.3648 C   0  0  0  0  0  0  0  0  0  0  0  0
    6.7568  -47.9772  -22.4691 N   0  0  0  0  0  0  0  0  0  0  0  0
    6.8891  -48.9693  -23.4777 C   0  0  0  0  0  0  0  0  0  0  0  0
    7.6082  -50.2089  -22.9700 C   0  0  0  0  0  0  0  0  0  0  0  0
    6.9831  -50.5833  -21.7840 O   0  0  0  0  0  0  0  0  0  0  0  0
    7.3849  -49.6937  -20.7987 C   0  0  0  0  0  0  0  0  0  0  0  0
    7.3404  -48.2620  -21.2048 C   0  0  0  0  0  0  0  0  0  0  0  0
   -0.3724  -52.2771  -25.0233 N   0  0  0  0  0  0  0  0  0  0  0  0
   -1.1706  -51.6642  -25.2881 H   0  0  0  0  0  0  0  0  0  0  0  0
    0.7965  -52.1202  -25.8095 C   0  0  0  0  0  0  0  0  0  0  0  0
    1.1702  -53.1758  -26.6568 C   0  0  0  0  0  0  0  0  0  0  0  0
    2.2676  -53.1168  -27.4813 C   0  0  0  0  0  0  0  0  0  0  0  0
    3.0329  -51.9667  -27.4726 C   0  0  0  0  0  0  0  0  0  0  0  0
    2.7030  -50.9077  -26.6584 C   0  0  0  0  0  0  0  0  0  0  0  0
    1.5713  -50.9874  -25.8185 C   0  0  0  0  0  0  0  0  0  0  0  0
    3.5045  -49.7171  -26.6567 C   0  0  0  0  0  0  0  0  0  0  0  0
    4.1707  -48.6906  -26.6537 C   0  0  0  0  0  0  0  0  0  0  0  0
  1  2  2  0  0  0
  2 17  1  0  0  0
 17 18  2  0  0  0
 18 19  1  0  0  0
 19 20  1  0  0  0
 20 21  1  0  0  0
 21 22  1  0  0  0
 22 23  1  0  0  0
 23 24  1  0  0  0
 24 25  1  0  0  0
  2  3  1  0  0  0
  3  4  1  0  0  0
  4  5  1  0  0  0
  5  6  1  0  0  0
  6  7  1  0  0  0
  7  8  2  0  0  0
  8  9  1  0  0  0
  9 10  2  0  0  0
 10 11  1  0  0  0
 11 12  2  0  0  0
 12 13  1  0  0  0
 13 26  1  0  0  0
 26 28  1  0  0  0
 28 29  2  0  0  0
 29 30  1  0  0  0
 30 31  2  0  0  0
 31 32  1  0  0  0
 32 33  2  0  0  0
 32 34  1  0  0  0
 34 35  3  0  0  0
 13 14  2  0  0  0
 14 15  1  0  0  0
 15 16  2  0  0  0
 25 20  1  0  0  0
 16  3  1  0  0  0
 16  7  1  0  0  0
 14  9  1  0  0  0
 33 28  1  0  0  0
 26 27  1  0  0  0
M  END
> <minimizedAffinity>
-7.74792

> <CNNscore>
0.4458268285

> <CNNaffinity>
6.9750075340

> <CNN_VS>
3.1096456051

> <CNNaffinity_variance>
0.2883493602

$$$$
[H]C#Cc1c([H])c([H])c([H])c(N([H])c2nc([H])nc3c([H])c4c(c([H])c23)N(C(=O)/C([H])=C(\[H])C([H])([H])N2C([H])([H])C([H])([H])OC([H])([H])C2([H])[H])C([H])([H])C([H])([H])O4)c1[H]


 35 39  0  0  0  0  0  0  0  0999 V2000
    2.2523  -48.7663  -23.0358 O   0  0  0  0  0  0  0  0  0  0  0  0
    2.9345  -48.3610  -21.9979 C   0  0  0  0  0  0  0  0  0  0  0  0
    2.5086  -48.7085  -20.7325 N   0  0  0  0  0  0  0  0  0  0  0  0
    2.6635  -47.8227  -19.5722 C   0  0  0  0  0  0  0  0  0  0  0  0
    3.3175  -48.5628  -18.4468 C   0  0  0  0  0  0  0  0  0  0  0  0
    2.6439  -49.7994  -18.2669 O   0  0  0  0  0  0  0  0  0  0  0  0
    1.8842  -50.4366  -19.2059 C   0  0  0  0  0  0  0  0  0  0  0  0
    1.1991  -51.5910  -18.9527 C   0  0  0  0  0  0  0  0  0  0  0  0
    0.4387  -52.2229  -19.9106 C   0  0  0  0  0  0  0  0  0  0  0  0
   -0.2286  -53.3525  -19.6633 N   0  0  0  0  0  0  0  0  0  0  0  0
   -0.9697  -53.9823  -20.5802 C   0  0  0  0  0  0  0  0  0  0  0  0
   -1.0394  -53.4461  -21.8005 N   0  0  0  0  0  0  0  0  0  0  0  0
   -0.4078  -52.3023  -22.1769 C   0  0  0  0  0  0  0  0  0  0  0  0
    0.3410  -51.6904  -21.2046 C   0  0  0  0  0  0  0  0  0  0  0  0
    1.0353  -50.5208  -21.4591 C   0  0  0  0  0  0  0  0  0  0  0  0
    1.7858  -49.9144  -20.4804 C   0  0  0  0  0  0  0  0  0  0  0  0
    4.0868  -47.5753  -22.4212 C   0  0  0  0  0  0  0  0  0  0  0  0
    4.1966  -46.9148  -23.5349 C   0  0  0  0  0  0  0  0  0  0  0  0
    5.4858  -46.1773  -23.7644 C   0  0  0  0  0  0  0  0  0  0  0  0
    5.4341  -45.3086  -24.8839 N   0  0  0  0  0  0  0  0  0  0  0  0
    4.2689  -44.5104  -25.0396 C   0  0  0  0  0  0  0  0  0  0  0  0
    3.7860  -44.4779  -26.4809 C   0  0  0  0  0  0  0  0  0  0  0  0
    3.7185  -45.7985  -26.9160 O   0  0  0  0  0  0  0  0  0  0  0  0
    5.0161  -46.2326  -27.1428 C   0  0  0  0  0  0  0  0  0  0  0  0
    5.9797  -45.8886  -26.0612 C   0  0  0  0  0  0  0  0  0  0  0  0
   -0.5385  -51.7621  -23.4640 N   0  0  0  0  0  0  0  0  0  0  0  0
   -1.2107  -50.9844  -23.6263 H   0  0  0  0  0  0  0  0  0  0  0  0
    0.1829  -52.1856  -24.6083 C   0  0  0  0  0  0  0  0  0  0  0  0
    1.5010  -52.6358  -24.4300 C   0  0  0  0  0  0  0  0  0  0  0  0
    2.2783  -53.0945  -25.4657 C   0  0  0  0  0  0  0  0  0  0  0  0
    1.7346  -53.1117  -26.7356 C   0  0  0  0  0  0  0  0  0  0  0  0
    0.4469  -52.6802  -26.9559 C   0  0  0  0  0  0  0  0  0  0  0  0
   -0.3362  -52.2127  -25.8784 C   0  0  0  0  0  0  0  0  0  0  0  0
   -0.1090  -52.7020  -28.2790 C   0  0  0  0  0  0  0  0  0  0  0  0
   -0.5953  -52.7048  -29.4019 C   0  0  0  0  0  0  0  0  0  0  0  0
  1  2  2  0  0  0
  2 17  1  0  0  0
 17 18  2  0  0  0
 18 19  1  0  0  0
 19 20  1  0  0  0
 20 21  1  0  0  0
 21 22  1  0  0  0
 22 23  1  0  0  0
 23 24  1  0  0  0
 24 25  1  0  0  0
  2  3  1  0  0  0
  3  4  1  0  0  0
  4  5  1  0  0  0
  5  6  1  0  0  0
  6  7  1  0  0  0
  7  8  2  0  0  0
  8  9  1  0  0  0
  9 10  2  0  0  0
 10 11  1  0  0  0
 11 12  2  0  0  0
 12 13  1  0  0  0
 13 26  1  0  0  0
 26 28  1  0  0  0
 28 29  2  0  0  0
 29 30  1  0  0  0
 30 31  2  0  0  0
 31 32  1  0  0  0
 32 33  2  0  0  0
 32 34  1  0  0  0
 34 35  3  0  0  0
 13 14  2  0  0  0
 14 15  1  0  0  0
 15 16  2  0  0  0
 25 20  1  0  0  0
 16  3  1  0  0  0
 16  7  1  0  0  0
 14  9  1  0  0  0
 33 28  1  0  0  0
 26 27  1  0  0  0
M  END
> <minimizedAffinity>
-7.35884

> <CNNscore>
0.4126066566

> <CNNaffinity>
6.9574279785

> <CNN_VS>
2.8706810474

> <CNNaffinity_variance>
0.2673334181

$$$$
[H]C([H])=C([H])C(=O)N([H])c1c([H])c([H])c([H])c(N([H])c2nc(N([H])c3c([H])c([H])c4c(c3[H])N(C(=O)C(F)(F)F)C([H])([H])C([H])([H])O4)nc([H])c2F)c1[H]


 39 42  0  0  0  0  0  0  0  0999 V2000
   -0.3814  -53.9132  -25.3307 F   0  0  0  0  0  0  0  0  0  0  0  0
   -0.6292  -53.9657  -23.9869 C   0  0  0  0  0  0  0  0  0  0  0  0
   -1.1840  -55.0612  -23.3887 C   0  0  0  0  0  0  0  0  0  0  0  0
   -1.3912  -55.0282  -22.0749 N   0  0  0  0  0  0  0  0  0  0  0  0
   -1.1072  -54.0105  -21.2543 C   0  0  0  0  0  0  0  0  0  0  0  0
   -0.5524  -52.9215  -21.8687 N   0  0  0  0  0  0  0  0  0  0  0  0
   -0.3114  -52.8645  -23.1621 C   0  0  0  0  0  0  0  0  0  0  0  0
   -1.3296  -53.9833  -19.8630 N   0  0  0  0  0  0  0  0  0  0  0  0
   -1.9469  -54.7667  -19.4784 H   0  0  0  0  0  0  0  0  0  0  0  0
   -0.8155  -53.0273  -18.9848 C   0  0  0  0  0  0  0  0  0  0  0  0
   -1.2804  -52.6997  -17.7403 C   0  0  0  0  0  0  0  0  0  0  0  0
   -0.7243  -51.7046  -16.9271 C   0  0  0  0  0  0  0  0  0  0  0  0
    0.3532  -51.0316  -17.4312 C   0  0  0  0  0  0  0  0  0  0  0  0
    0.9890  -50.0394  -16.7453 O   0  0  0  0  0  0  0  0  0  0  0  0
    1.7551  -49.0021  -17.3262 C   0  0  0  0  0  0  0  0  0  0  0  0
    2.0248  -49.1910  -18.7964 C   0  0  0  0  0  0  0  0  0  0  0  0
    2.0120  -50.5891  -19.1760 N   0  0  0  0  0  0  0  0  0  0  0  0
    2.9973  -51.2518  -19.9253 C   0  0  0  0  0  0  0  0  0  0  0  0
    2.9379  -52.4796  -20.1251 O   0  0  0  0  0  0  0  0  0  0  0  0
    0.8688  -51.3284  -18.6973 C   0  0  0  0  0  0  0  0  0  0  0  0
    0.3042  -52.3025  -19.4661 C   0  0  0  0  0  0  0  0  0  0  0  0
    4.1689  -50.5436  -20.5255 C   0  0  0  0  0  0  0  0  0  0  0  0
    4.8593  -49.7943  -19.6142 F   0  0  0  0  0  0  0  0  0  0  0  0
    3.6955  -49.7369  -21.5708 F   0  0  0  0  0  0  0  0  0  0  0  0
    4.9975  -51.4925  -21.0802 F   0  0  0  0  0  0  0  0  0  0  0  0
    0.2279  -51.7426  -23.7981 N   0  0  0  0  0  0  0  0  0  0  0  0
   -0.4081  -50.9640  -24.1105 H   0  0  0  0  0  0  0  0  0  0  0  0
    1.6125  -51.5790  -24.0593 C   0  0  0  0  0  0  0  0  0  0  0  0
    2.5959  -52.4897  -23.7625 C   0  0  0  0  0  0  0  0  0  0  0  0
    3.9263  -52.2248  -24.0277 C   0  0  0  0  0  0  0  0  0  0  0  0
    4.3335  -51.0304  -24.6057 C   0  0  0  0  0  0  0  0  0  0  0  0
    3.3520  -50.1203  -24.9028 C   0  0  0  0  0  0  0  0  0  0  0  0
    2.0220  -50.3828  -24.6386 C   0  0  0  0  0  0  0  0  0  0  0  0
    3.6446  -48.8513  -25.4714 N   0  0  0  0  0  0  0  0  0  0  0  0
    3.7870  -48.6252  -26.8332 C   0  0  0  0  0  0  0  0  0  0  0  0
    3.6915  -49.4730  -27.7374 O   0  0  0  0  0  0  0  0  0  0  0  0
    3.7546  -48.0334  -24.7927 H   0  0  0  0  0  0  0  0  0  0  0  0
    4.0813  -47.2434  -27.2617 C   0  0  0  0  0  0  0  0  0  0  0  0
    3.1015  -46.5153  -27.7524 C   0  0  0  0  0  0  0  0  0  0  0  0
  1  2  1  0  0  0
  2  3  2  0  0  0
  3  4  1  0  0  0
  4  5  2  0  0  0
  5  8  1  0  0  0
  8 10  1  0  0  0
 10 11  2  0  0  0
 11 12  1  0  0  0
 12 13  2  0  0  0
 13 14  1  0  0  0
 14 15  1  0  0  0
 15 16  1  0  0  0
 16 17  1  0  0  0
 17 18  1  0  0  0
 18 19  2  0  0  0
 18 22  1  0  0  0
 22 23  1  0  0  0
 22 24  1  0  0  0
 22 25  1  0  0  0
 17 20  1  0  0  0
 20 21  2  0  0  0
  5  6  1  0  0  0
  6  7  2  0  0  0
  7 26  1  0  0  0
 26 28  1  0  0  0
 28 29  2  0  0  0
 29 30  1  0  0  0
 30 31  2  0  0  0
 31 32  1  0  0  0
 32 34  1  0  0  0
 34 35  1  0  0  0
 35 36  2  0  0  0
 35 38  1  0  0  0
 38 39  2  0  0  0
 32 33  2  0  0  0
  7  2  1  0  0  0
 33 28  1  0  0  0
 21 10  1  0  0  0
 20 13  1  0  0  0
  8  9  1  0  0  0
 26 27  1  0  0  0
 34 37  1  0  0  0
M  END
> <minimizedAffinity>
-8.57438

> <CNNscore>
0.7987633944

> <CNNaffinity>
7.4806947708

> <CNN_VS>
5.9753050804

> <CNNaffinity_variance>
0.0737648755

$$$$
[H]C([H])=C([H])C(=O)N([H])c1c([H])c([H])c([H])c(N([H])c2nc(N([H])c3c([H])c([H])c4c(c3[H])N(C(=O)C(F)(F)F)C([H])([H])C([H])([H])O4)nc([H])c2F)c1[H]


 39 42  0  0  0  0  0  0  0  0999 V2000
   -1.6881  -55.4410  -22.1987 F   0  0  0  0  0  0  0  0  0  0  0  0
   -0.8837  -54.4624  -22.7138 C   0  0  0  0  0  0  0  0  0  0  0  0
   -0.7811  -54.2327  -24.0563 C   0  0  0  0  0  0  0  0  0  0  0  0
    0.0253  -53.2598  -24.4723 N   0  0  0  0  0  0  0  0  0  0  0  0
    0.7666  -52.4604  -23.6969 C   0  0  0  0  0  0  0  0  0  0  0  0
    0.6526  -52.7033  -22.3554 N   0  0  0  0  0  0  0  0  0  0  0  0
   -0.1200  -53.6440  -21.8530 C   0  0  0  0  0  0  0  0  0  0  0  0
    1.6185  -51.4314  -24.1453 N   0  0  0  0  0  0  0  0  0  0  0  0
    1.1325  -50.5935  -24.5974 H   0  0  0  0  0  0  0  0  0  0  0  0
    3.0111  -51.4386  -24.0440 C   0  0  0  0  0  0  0  0  0  0  0  0
    3.8601  -52.4880  -24.2681 C   0  0  0  0  0  0  0  0  0  0  0  0
    5.2508  -52.4237  -24.1178 C   0  0  0  0  0  0  0  0  0  0  0  0
    5.7700  -51.2229  -23.7218 C   0  0  0  0  0  0  0  0  0  0  0  0
    7.1060  -51.0231  -23.5365 O   0  0  0  0  0  0  0  0  0  0  0  0
    7.6794  -50.0322  -22.7061 C   0  0  0  0  0  0  0  0  0  0  0  0
    6.6895  -49.0218  -22.1872 C   0  0  0  0  0  0  0  0  0  0  0  0
    5.5505  -48.8737  -23.0703 N   0  0  0  0  0  0  0  0  0  0  0  0
    5.0280  -47.6621  -23.5502 C   0  0  0  0  0  0  0  0  0  0  0  0
    4.0974  -47.6443  -24.3776 O   0  0  0  0  0  0  0  0  0  0  0  0
    4.9464  -50.1183  -23.4809 C   0  0  0  0  0  0  0  0  0  0  0  0
    3.5950  -50.2129  -23.6348 C   0  0  0  0  0  0  0  0  0  0  0  0
    5.5431  -46.3294  -23.1109 C   0  0  0  0  0  0  0  0  0  0  0  0
    6.8771  -46.1676  -23.3614 F   0  0  0  0  0  0  0  0  0  0  0  0
    5.2785  -46.1958  -21.7398 F   0  0  0  0  0  0  0  0  0  0  0  0
    4.8192  -45.3595  -23.7665 F   0  0  0  0  0  0  0  0  0  0  0  0
   -0.2164  -53.9147  -20.4850 N   0  0  0  0  0  0  0  0  0  0  0  0
   -0.3963  -54.8996  -20.1595 H   0  0  0  0  0  0  0  0  0  0  0  0
   -0.0860  -52.9239  -19.4784 C   0  0  0  0  0  0  0  0  0  0  0  0
   -0.8343  -52.8463  -18.3301 C   0  0  0  0  0  0  0  0  0  0  0  0
   -0.6539  -51.8208  -17.4211 C   0  0  0  0  0  0  0  0  0  0  0  0
    0.2894  -50.8225  -17.6218 C   0  0  0  0  0  0  0  0  0  0  0  0
    1.0375  -50.8994  -18.7682 C   0  0  0  0  0  0  0  0  0  0  0  0
    0.8589  -51.9230  -19.6780 C   0  0  0  0  0  0  0  0  0  0  0  0
    2.0155  -49.9232  -19.0996 N   0  0  0  0  0  0  0  0  0  0  0  0
    1.8184  -48.9115  -20.0288 C   0  0  0  0  0  0  0  0  0  0  0  0
    0.7909  -48.7138  -20.7000 O   0  0  0  0  0  0  0  0  0  0  0  0
    2.9518  -49.9869  -18.5888 H   0  0  0  0  0  0  0  0  0  0  0  0
    2.9342  -47.9703  -20.2501 C   0  0  0  0  0  0  0  0  0  0  0  0
    3.1845  -47.0645  -19.3293 C   0  0  0  0  0  0  0  0  0  0  0  0
  1  2  1  0  0  0
  2  3  2  0  0  0
  3  4  1  0  0  0
  4  5  2  0  0  0
  5  8  1  0  0  0
  8 10  1  0  0  0
 10 11  2  0  0  0
 11 12  1  0  0  0
 12 13  2  0  0  0
 13 14  1  0  0  0
 14 15  1  0  0  0
 15 16  1  0  0  0
 16 17  1  0  0  0
 17 18  1  0  0  0
 18 19  2  0  0  0
 18 22  1  0  0  0
 22 23  1  0  0  0
 22 24  1  0  0  0
 22 25  1  0  0  0
 17 20  1  0  0  0
 20 21  2  0  0  0
  5  6  1  0  0  0
  6  7  2  0  0  0
  7 26  1  0  0  0
 26 28  1  0  0  0
 28 29  2  0  0  0
 29 30  1  0  0  0
 30 31  2  0  0  0
 31 32  1  0  0  0
 32 34  1  0  0  0
 34 35  1  0  0  0
 35 36  2  0  0  0
 35 38  1  0  0  0
 38 39  2  0  0  0
 32 33  2  0  0  0
  7  2  1  0  0  0
 33 28  1  0  0  0
 21 10  1  0  0  0
 20 13  1  0  0  0
  8  9  1  0  0  0
 26 27  1  0  0  0
 34 37  1  0  0  0
M  END
> <minimizedAffinity>
-7.42983

> <CNNscore>
0.2196085900

> <CNNaffinity>
6.7688951492

> <CNN_VS>
1.4865075350

> <CNNaffinity_variance>
0.1363804936

$$$$
[H]C([H])=C([H])C(=O)N([H])c1c([H])c([H])c([H])c(N([H])c2nc(N([H])c3c([H])c([H])c4c(c3[H])N(C(=O)C(F)(F)F)C([H])([H])C([H])([H])O4)nc([H])c2F)c1[H]


 39 42  0  0  0  0  0  0  0  0999 V2000
   -0.0336  -52.1812  -27.5739 F   0  0  0  0  0  0  0  0  0  0  0  0
    1.1862  -52.2970  -26.9667 C   0  0  0  0  0  0  0  0  0  0  0  0
    2.3398  -52.4819  -27.6744 C   0  0  0  0  0  0  0  0  0  0  0  0
    3.4842  -52.5845  -27.0038 N   0  0  0  0  0  0  0  0  0  0  0  0
    3.6313  -52.5247  -25.6754 C   0  0  0  0  0  0  0  0  0  0  0  0
    2.4670  -52.3393  -24.9816 N   0  0  0  0  0  0  0  0  0  0  0  0
    1.2894  -52.2271  -25.5601 C   0  0  0  0  0  0  0  0  0  0  0  0
    4.8476  -52.6341  -24.9724 N   0  0  0  0  0  0  0  0  0  0  0  0
    5.4207  -53.5135  -25.1747 H   0  0  0  0  0  0  0  0  0  0  0  0
    5.3335  -51.7000  -24.0553 C   0  0  0  0  0  0  0  0  0  0  0  0
    6.5972  -51.1805  -23.9813 C   0  0  0  0  0  0  0  0  0  0  0  0
    7.0177  -50.2636  -23.0100 C   0  0  0  0  0  0  0  0  0  0  0  0
    6.0862  -49.8769  -22.0876 C   0  0  0  0  0  0  0  0  0  0  0  0
    6.3624  -48.9916  -21.0880 O   0  0  0  0  0  0  0  0  0  0  0  0
    5.6674  -48.8986  -19.8598 C   0  0  0  0  0  0  0  0  0  0  0  0
    4.4066  -49.7218  -19.8071 C   0  0  0  0  0  0  0  0  0  0  0  0
    3.8370  -49.9285  -21.1231 N   0  0  0  0  0  0  0  0  0  0  0  0
    2.4981  -49.7143  -21.4879 C   0  0  0  0  0  0  0  0  0  0  0  0
    2.1246  -49.8371  -22.6695 O   0  0  0  0  0  0  0  0  0  0  0  0
    4.7800  -50.3767  -22.1193 C   0  0  0  0  0  0  0  0  0  0  0  0
    4.4013  -51.2697  -23.0773 C   0  0  0  0  0  0  0  0  0  0  0  0
    1.4434  -49.3290  -20.5012 C   0  0  0  0  0  0  0  0  0  0  0  0
    0.1965  -49.7555  -20.8642 F   0  0  0  0  0  0  0  0  0  0  0  0
    1.4681  -47.9329  -20.3673 F   0  0  0  0  0  0  0  0  0  0  0  0
    1.7890  -49.8660  -19.2818 F   0  0  0  0  0  0  0  0  0  0  0  0
    0.0941  -52.0675  -24.8531 N   0  0  0  0  0  0  0  0  0  0  0  0
   -0.4928  -51.2075  -25.0082 H   0  0  0  0  0  0  0  0  0  0  0  0
   -0.3936  -53.0119  -23.9137 C   0  0  0  0  0  0  0  0  0  0  0  0
   -0.7970  -54.2921  -24.2018 C   0  0  0  0  0  0  0  0  0  0  0  0
   -1.2894  -55.1301  -23.2191 C   0  0  0  0  0  0  0  0  0  0  0  0
   -1.3995  -54.7219  -21.8970 C   0  0  0  0  0  0  0  0  0  0  0  0
   -0.9966  -53.4436  -21.6082 C   0  0  0  0  0  0  0  0  0  0  0  0
   -0.5044  -52.6044  -22.5886 C   0  0  0  0  0  0  0  0  0  0  0  0
   -1.0855  -52.9006  -20.2981 N   0  0  0  0  0  0  0  0  0  0  0  0
    0.0083  -52.6838  -19.4720 C   0  0  0  0  0  0  0  0  0  0  0  0
    1.1970  -52.9308  -19.7390 O   0  0  0  0  0  0  0  0  0  0  0  0
   -2.0624  -52.6472  -19.9472 H   0  0  0  0  0  0  0  0  0  0  0  0
   -0.2550  -52.1019  -18.1409 C   0  0  0  0  0  0  0  0  0  0  0  0
   -1.1784  -52.6552  -17.3844 C   0  0  0  0  0  0  0  0  0  0  0  0
  1  2  1  0  0  0
  2  3  2  0  0  0
  3  4  1  0  0  0
  4  5  2  0  0  0
  5  8  1  0  0  0
  8 10  1  0  0  0
 10 11  2  0  0  0
 11 12  1  0  0  0
 12 13  2  0  0  0
 13 14  1  0  0  0
 14 15  1  0  0  0
 15 16  1  0  0  0
 16 17  1  0  0  0
 17 18  1  0  0  0
 18 19  2  0  0  0
 18 22  1  0  0  0
 22 23  1  0  0  0
 22 24  1  0  0  0
 22 25  1  0  0  0
 17 20  1  0  0  0
 20 21  2  0  0  0
  5  6  1  0  0  0
  6  7  2  0  0  0
  7 26  1  0  0  0
 26 28  1  0  0  0
 28 29  2  0  0  0
 29 30  1  0  0  0
 30 31  2  0  0  0
 31 32  1  0  0  0
 32 34  1  0  0  0
 34 35  1  0  0  0
 35 36  2  0  0  0
 35 38  1  0  0  0
 38 39  2  0  0  0
 32 33  2  0  0  0
  7  2  1  0  0  0
 33 28  1  0  0  0
 21 10  1  0  0  0
 20 13  1  0  0  0
  8  9  1  0  0  0
 26 27  1  0  0  0
 34 37  1  0  0  0
M  END
> <minimizedAffinity>
-8.41613

> <CNNscore>
0.2118096203

> <CNNaffinity>
6.7964506149

> <CNN_VS>
1.4395536184

> <CNNaffinity_variance>
0.4015583992

$$$$
[H]C([H])=C([H])C(=O)N([H])c1c([H])c([H])c([H])c(N([H])c2nc(N([H])c3c([H])c([H])c4c(c3[H])N(C(=O)C(F)(F)F)C([H])([H])C([H])([H])O4)nc([H])c2F)c1[H]


 39 42  0  0  0  0  0  0  0  0999 V2000
   -1.7945  -53.3872  -21.0464 F   0  0  0  0  0  0  0  0  0  0  0  0
   -0.6541  -52.8337  -21.5594 C   0  0  0  0  0  0  0  0  0  0  0  0
   -0.5511  -52.4536  -22.8673 C   0  0  0  0  0  0  0  0  0  0  0  0
    0.5956  -51.9230  -23.2839 N   0  0  0  0  0  0  0  0  0  0  0  0
    1.6881  -51.7157  -22.5402 C   0  0  0  0  0  0  0  0  0  0  0  0
    1.5687  -52.1016  -21.2332 N   0  0  0  0  0  0  0  0  0  0  0  0
    0.4736  -52.6353  -20.7330 C   0  0  0  0  0  0  0  0  0  0  0  0
    2.8994  -51.1526  -22.9889 N   0  0  0  0  0  0  0  0  0  0  0  0
    3.5146  -51.7935  -23.5834 H   0  0  0  0  0  0  0  0  0  0  0  0
    3.3347  -49.8551  -22.7119 C   0  0  0  0  0  0  0  0  0  0  0  0
    4.0242  -49.4216  -21.6125 C   0  0  0  0  0  0  0  0  0  0  0  0
    4.4029  -48.0915  -21.3926 C   0  0  0  0  0  0  0  0  0  0  0  0
    4.0501  -47.1864  -22.3540 C   0  0  0  0  0  0  0  0  0  0  0  0
    4.3550  -45.8603  -22.2649 O   0  0  0  0  0  0  0  0  0  0  0  0
    3.6591  -44.8137  -22.9134 C   0  0  0  0  0  0  0  0  0  0  0  0
    2.6533  -45.2867  -23.9306 C   0  0  0  0  0  0  0  0  0  0  0  0
    3.0052  -46.5792  -24.4827 N   0  0  0  0  0  0  0  0  0  0  0  0
    3.0560  -46.9101  -25.8462 C   0  0  0  0  0  0  0  0  0  0  0  0
    3.4564  -48.0273  -26.2237 O   0  0  0  0  0  0  0  0  0  0  0  0
    3.3461  -47.5774  -23.4978 C   0  0  0  0  0  0  0  0  0  0  0  0
    2.9904  -48.8804  -23.6827 C   0  0  0  0  0  0  0  0  0  0  0  0
    2.6415  -45.9611  -26.9242 C   0  0  0  0  0  0  0  0  0  0  0  0
    3.3183  -44.7745  -26.8751 F   0  0  0  0  0  0  0  0  0  0  0  0
    1.2605  -45.7473  -26.8024 F   0  0  0  0  0  0  0  0  0  0  0  0
    2.8577  -46.5775  -28.1359 F   0  0  0  0  0  0  0  0  0  0  0  0
    0.3577  -53.0581  -19.4057 N   0  0  0  0  0  0  0  0  0  0  0  0
    0.6339  -54.0399  -19.1449 H   0  0  0  0  0  0  0  0  0  0  0  0
   -0.1218  -52.2306  -18.3580 C   0  0  0  0  0  0  0  0  0  0  0  0
    0.3822  -51.0005  -18.0154 C   0  0  0  0  0  0  0  0  0  0  0  0
   -0.1340  -50.2811  -16.9541 C   0  0  0  0  0  0  0  0  0  0  0  0
   -1.1841  -50.7633  -16.1851 C   0  0  0  0  0  0  0  0  0  0  0  0
   -1.6884  -51.9917  -16.5267 C   0  0  0  0  0  0  0  0  0  0  0  0
   -1.1741  -52.7124  -17.5867 C   0  0  0  0  0  0  0  0  0  0  0  0
   -2.7447  -52.6041  -15.7997 N   0  0  0  0  0  0  0  0  0  0  0  0
   -4.0012  -52.0394  -15.6327 C   0  0  0  0  0  0  0  0  0  0  0  0
   -4.3826  -50.9411  -16.0726 O   0  0  0  0  0  0  0  0  0  0  0  0
   -2.5402  -53.5589  -15.3658 H   0  0  0  0  0  0  0  0  0  0  0  0
   -4.9916  -52.8119  -14.8567 C   0  0  0  0  0  0  0  0  0  0  0  0
   -5.3260  -54.0113  -15.2815 C   0  0  0  0  0  0  0  0  0  0  0  0
  1  2  1  0  0  0
  2  3  2  0  0  0
  3  4  1  0  0  0
  4  5  2  0  0  0
  5  8  1  0  0  0
  8 10  1  0  0  0
 10 11  2  0  0  0
 11 12  1  0  0  0
 12 13  2  0  0  0
 13 14  1  0  0  0
 14 15  1  0  0  0
 15 16  1  0  0  0
 16 17  1  0  0  0
 17 18  1  0  0  0
 18 19  2  0  0  0
 18 22  1  0  0  0
 22 23  1  0  0  0
 22 24  1  0  0  0
 22 25  1  0  0  0
 17 20  1  0  0  0
 20 21  2  0  0  0
  5  6  1  0  0  0
  6  7  2  0  0  0
  7 26  1  0  0  0
 26 28  1  0  0  0
 28 29  2  0  0  0
 29 30  1  0  0  0
 30 31  2  0  0  0
 31 32  1  0  0  0
 32 34  1  0  0  0
 34 35  1  0  0  0
 35 36  2  0  0  0
 35 38  1  0  0  0
 38 39  2  0  0  0
 32 33  2  0  0  0
  7  2  1  0  0  0
 33 28  1  0  0  0
 21 10  1  0  0  0
 20 13  1  0  0  0
  8  9  1  0  0  0
 26 27  1  0  0  0
 34 37  1  0  0  0
M  END
> <minimizedAffinity>
-7.94117

> <CNNscore>
0.1848304868

> <CNNaffinity>
6.6172523499

> <CNN_VS>
1.2230700254

> <CNNaffinity_variance>
0.0067040874

$$$$
[H]C([H])=C([H])C(=O)N([H])c1c([H])c([H])c([H])c(N([H])c2nc(N([H])c3c([H])c([H])c4c(c3[H])N(C(=O)C(F)(F)F)C([H])([H])C([H])([H])O4)nc([H])c2F)c1[H]


 39 42  0  0  0  0  0  0  0  0999 V2000
    7.3692  -50.2745  -20.9300 F   0  0  0  0  0  0  0  0  0  0  0  0
    6.0696  -50.3201  -21.3530 C   0  0  0  0  0  0  0  0  0  0  0  0
    5.7113  -50.8607  -22.5552 C   0  0  0  0  0  0  0  0  0  0  0  0
    4.4235  -50.8644  -22.8890 N   0  0  0  0  0  0  0  0  0  0  0  0
    3.4141  -50.3832  -22.1546 C   0  0  0  0  0  0  0  0  0  0  0  0
    3.7896  -49.8455  -20.9540 N   0  0  0  0  0  0  0  0  0  0  0  0
    5.0390  -49.7983  -20.5408 C   0  0  0  0  0  0  0  0  0  0  0  0
    2.0519  -50.3911  -22.5152 N   0  0  0  0  0  0  0  0  0  0  0  0
    1.6266  -49.4354  -22.7349 H   0  0  0  0  0  0  0  0  0  0  0  0
    1.2480  -51.5299  -22.5966 C   0  0  0  0  0  0  0  0  0  0  0  0
    0.7216  -52.2571  -21.5640 C   0  0  0  0  0  0  0  0  0  0  0  0
   -0.0565  -53.4098  -21.7270 C   0  0  0  0  0  0  0  0  0  0  0  0
   -0.2925  -53.8140  -23.0112 C   0  0  0  0  0  0  0  0  0  0  0  0
   -1.0328  -54.9190  -23.3115 O   0  0  0  0  0  0  0  0  0  0  0  0
   -0.9392  -55.6683  -24.5073 C   0  0  0  0  0  0  0  0  0  0  0  0
   -0.0944  -55.0178  -25.5718 C   0  0  0  0  0  0  0  0  0  0  0  0
   -0.0653  -53.5756  -25.4367 N   0  0  0  0  0  0  0  0  0  0  0  0
   -0.3048  -52.6440  -26.4595 C   0  0  0  0  0  0  0  0  0  0  0  0
   -0.3433  -51.4221  -26.2222 O   0  0  0  0  0  0  0  0  0  0  0  0
    0.2210  -53.1057  -24.1026 C   0  0  0  0  0  0  0  0  0  0  0  0
    0.9766  -51.9871  -23.9112 C   0  0  0  0  0  0  0  0  0  0  0  0
   -0.5282  -53.0452  -27.8820 C   0  0  0  0  0  0  0  0  0  0  0  0
    0.1854  -52.2847  -28.7657 F   0  0  0  0  0  0  0  0  0  0  0  0
   -1.9026  -52.9496  -28.1459 F   0  0  0  0  0  0  0  0  0  0  0  0
   -0.1758  -54.3698  -28.0079 F   0  0  0  0  0  0  0  0  0  0  0  0
    5.4298  -49.2232  -19.3282 N   0  0  0  0  0  0  0  0  0  0  0  0
    6.4513  -49.1773  -19.0778 H   0  0  0  0  0  0  0  0  0  0  0  0
    4.5170  -48.6837  -18.3859 C   0  0  0  0  0  0  0  0  0  0  0  0
    4.4846  -47.3793  -17.9593 C   0  0  0  0  0  0  0  0  0  0  0  0
    3.5742  -46.9546  -17.0101 C   0  0  0  0  0  0  0  0  0  0  0  0
    2.6500  -47.8214  -16.4433 C   0  0  0  0  0  0  0  0  0  0  0  0
    2.6813  -49.1244  -16.8689 C   0  0  0  0  0  0  0  0  0  0  0  0
    3.5903  -49.5510  -17.8172 C   0  0  0  0  0  0  0  0  0  0  0  0
    1.8050  -50.1123  -16.3444 N   0  0  0  0  0  0  0  0  0  0  0  0
    0.6936  -50.6000  -17.0173 C   0  0  0  0  0  0  0  0  0  0  0  0
    0.3006  -50.2530  -18.1445 O   0  0  0  0  0  0  0  0  0  0  0  0
    2.0347  -50.4928  -15.3727 H   0  0  0  0  0  0  0  0  0  0  0  0
   -0.1091  -51.6347  -16.3355 C   0  0  0  0  0  0  0  0  0  0  0  0
   -1.0309  -52.2711  -17.0256 C   0  0  0  0  0  0  0  0  0  0  0  0
  1  2  1  0  0  0
  2  3  2  0  0  0
  3  4  1  0  0  0
  4  5  2  0  0  0
  5  8  1  0  0  0
  8 10  1  0  0  0
 10 11  2  0  0  0
 11 12  1  0  0  0
 12 13  2  0  0  0
 13 14  1  0  0  0
 14 15  1  0  0  0
 15 16  1  0  0  0
 16 17  1  0  0  0
 17 18  1  0  0  0
 18 19  2  0  0  0
 18 22  1  0  0  0
 22 23  1  0  0  0
 22 24  1  0  0  0
 22 25  1  0  0  0
 17 20  1  0  0  0
 20 21  2  0  0  0
  5  6  1  0  0  0
  6  7  2  0  0  0
  7 26  1  0  0  0
 26 28  1  0  0  0
 28 29  2  0  0  0
 29 30  1  0  0  0
 30 31  2  0  0  0
 31 32  1  0  0  0
 32 34  1  0  0  0
 34 35  1  0  0  0
 35 36  2  0  0  0
 35 38  1  0  0  0
 38 39  2  0  0  0
 32 33  2  0  0  0
  7  2  1  0  0  0
 33 28  1  0  0  0
 21 10  1  0  0  0
 20 13  1  0  0  0
  8  9  1  0  0  0
 26 27  1  0  0  0
 34 37  1  0  0  0
M  END
> <minimizedAffinity>
-7.77423

> <CNNscore>
0.1804337949

> <CNNaffinity>
7.2012252808

> <CNN_VS>
1.2993444204

> <CNNaffinity_variance>
0.4017778337

$$$$
[H]C([H])=C([H])C(=O)N([H])c1c([H])c([H])c([H])c(N([H])c2nc(N([H])c3c([H])c([H])c4c(c3[H])N(C(=O)C(F)(F)F)C([H])([H])C([H])([H])O4)nc([H])c2F)c1[H]


 39 42  0  0  0  0  0  0  0  0999 V2000
    1.4676  -52.8280  -28.5461 F   0  0  0  0  0  0  0  0  0  0  0  0
    0.8251  -53.0737  -27.3642 C   0  0  0  0  0  0  0  0  0  0  0  0
   -0.5335  -53.1884  -27.2814 C   0  0  0  0  0  0  0  0  0  0  0  0
   -1.0772  -53.4283  -26.0911 N   0  0  0  0  0  0  0  0  0  0  0  0
   -0.4193  -53.5732  -24.9352 C   0  0  0  0  0  0  0  0  0  0  0  0
    0.9399  -53.4555  -25.0352 N   0  0  0  0  0  0  0  0  0  0  0  0
    1.5647  -53.2189  -26.1701 C   0  0  0  0  0  0  0  0  0  0  0  0
   -1.0027  -53.8275  -23.6780 N   0  0  0  0  0  0  0  0  0  0  0  0
   -1.9711  -54.2797  -23.7009 H   0  0  0  0  0  0  0  0  0  0  0  0
   -0.4176  -53.5320  -22.4451 C   0  0  0  0  0  0  0  0  0  0  0  0
   -0.2463  -54.3717  -21.3785 C   0  0  0  0  0  0  0  0  0  0  0  0
    0.3276  -53.9914  -20.1591 C   0  0  0  0  0  0  0  0  0  0  0  0
    0.7364  -52.6915  -20.0526 C   0  0  0  0  0  0  0  0  0  0  0  0
    1.3097  -52.1897  -18.9218 O   0  0  0  0  0  0  0  0  0  0  0  0
    1.3211  -50.8269  -18.5438 C   0  0  0  0  0  0  0  0  0  0  0  0
    0.8355  -49.8901  -19.6192 C   0  0  0  0  0  0  0  0  0  0  0  0
    1.0410  -50.4332  -20.9466 N   0  0  0  0  0  0  0  0  0  0  0  0
    1.6425  -49.7696  -22.0278 C   0  0  0  0  0  0  0  0  0  0  0  0
    1.8531  -50.3548  -23.1067 O   0  0  0  0  0  0  0  0  0  0  0  0
    0.5857  -51.7924  -21.1136 C   0  0  0  0  0  0  0  0  0  0  0  0
    0.0217  -52.1929  -22.2885 C   0  0  0  0  0  0  0  0  0  0  0  0
    2.0672  -48.3379  -21.9623 C   0  0  0  0  0  0  0  0  0  0  0  0
    1.0542  -47.5010  -21.5857 F   0  0  0  0  0  0  0  0  0  0  0  0
    2.5623  -47.9771  -23.2242 F   0  0  0  0  0  0  0  0  0  0  0  0
    3.1106  -48.2470  -21.0691 F   0  0  0  0  0  0  0  0  0  0  0  0
    2.9507  -53.0686  -26.2714 N   0  0  0  0  0  0  0  0  0  0  0  0
    3.4674  -53.5198  -27.0698 H   0  0  0  0  0  0  0  0  0  0  0  0
    3.7292  -52.3296  -25.3440 C   0  0  0  0  0  0  0  0  0  0  0  0
    4.2174  -52.8038  -24.1518 C   0  0  0  0  0  0  0  0  0  0  0  0
    4.9419  -51.9943  -23.2974 C   0  0  0  0  0  0  0  0  0  0  0  0
    5.2123  -50.6670  -23.6006 C   0  0  0  0  0  0  0  0  0  0  0  0
    4.7254  -50.1925  -24.7913 C   0  0  0  0  0  0  0  0  0  0  0  0
    4.0011  -50.9996  -25.6465 C   0  0  0  0  0  0  0  0  0  0  0  0
    4.9126  -48.8449  -25.2013 N   0  0  0  0  0  0  0  0  0  0  0  0
    6.1024  -48.3478  -25.7143 C   0  0  0  0  0  0  0  0  0  0  0  0
    7.1579  -48.9828  -25.8816 O   0  0  0  0  0  0  0  0  0  0  0  0
    4.0731  -48.1910  -25.1041 H   0  0  0  0  0  0  0  0  0  0  0  0
    6.1280  -46.9238  -26.1034 C   0  0  0  0  0  0  0  0  0  0  0  0
    5.7596  -46.5990  -27.3239 C   0  0  0  0  0  0  0  0  0  0  0  0
  1  2  1  0  0  0
  2  3  2  0  0  0
  3  4  1  0  0  0
  4  5  2  0  0  0
  5  8  1  0  0  0
  8 10  1  0  0  0
 10 11  2  0  0  0
 11 12  1  0  0  0
 12 13  2  0  0  0
 13 14  1  0  0  0
 14 15  1  0  0  0
 15 16  1  0  0  0
 16 17  1  0  0  0
 17 18  1  0  0  0
 18 19  2  0  0  0
 18 22  1  0  0  0
 22 23  1  0  0  0
 22 24  1  0  0  0
 22 25  1  0  0  0
 17 20  1  0  0  0
 20 21  2  0  0  0
  5  6  1  0  0  0
  6  7  2  0  0  0
  7 26  1  0  0  0
 26 28  1  0  0  0
 28 29  2  0  0  0
 29 30  1  0  0  0
 30 31  2  0  0  0
 31 32  1  0  0  0
 32 34  1  0  0  0
 34 35  1  0  0  0
 35 36  2  0  0  0
 35 38  1  0  0  0
 38 39  2  0  0  0
 32 33  2  0  0  0
  7  2  1  0  0  0
 33 28  1  0  0  0
 21 10  1  0  0  0
 20 13  1  0  0  0
  8  9  1  0  0  0
 26 27  1  0  0  0
 34 37  1  0  0  0
M  END
> <minimizedAffinity>
-7.79408

> <CNNscore>
0.1654662937

> <CNNaffinity>
7.0003929138

> <CNN_VS>
1.1583291292

> <CNNaffinity_variance>
0.1805834025

$$$$
[H]C([H])=C([H])C(=O)N([H])c1c([H])c([H])c([H])c(N([H])c2nc(N([H])c3c([H])c([H])c4c(c3[H])N(C(=O)C(F)(F)F)C([H])([H])C([H])([H])O4)nc([H])c2F)c1[H]


 39 42  0  0  0  0  0  0  0  0999 V2000
   -0.8201  -55.7763  -24.8162 F   0  0  0  0  0  0  0  0  0  0  0  0
   -0.8199  -54.8097  -23.8489 C   0  0  0  0  0  0  0  0  0  0  0  0
   -0.8735  -55.1089  -22.5172 C   0  0  0  0  0  0  0  0  0  0  0  0
   -0.8690  -54.1065  -21.6425 N   0  0  0  0  0  0  0  0  0  0  0  0
   -0.8162  -52.8019  -21.9340 C   0  0  0  0  0  0  0  0  0  0  0  0
   -0.7630  -52.5192  -23.2715 N   0  0  0  0  0  0  0  0  0  0  0  0
   -0.7630  -53.4452  -24.2078 C   0  0  0  0  0  0  0  0  0  0  0  0
   -0.8116  -51.7456  -21.0013 N   0  0  0  0  0  0  0  0  0  0  0  0
   -1.7734  -51.3743  -20.7192 H   0  0  0  0  0  0  0  0  0  0  0  0
    0.3317  -51.1694  -20.4442 C   0  0  0  0  0  0  0  0  0  0  0  0
    0.8891  -51.4312  -19.2223 C   0  0  0  0  0  0  0  0  0  0  0  0
    2.0271  -50.7881  -18.7201 C   0  0  0  0  0  0  0  0  0  0  0  0
    2.6012  -49.8421  -19.5223 C   0  0  0  0  0  0  0  0  0  0  0  0
    3.7115  -49.1406  -19.1558 O   0  0  0  0  0  0  0  0  0  0  0  0
    4.0824  -47.8716  -19.6580 C   0  0  0  0  0  0  0  0  0  0  0  0
    3.2618  -47.4171  -20.8371 C   0  0  0  0  0  0  0  0  0  0  0  0
    2.7236  -48.5336  -21.5874 N   0  0  0  0  0  0  0  0  0  0  0  0
    2.8042  -48.7113  -22.9778 C   0  0  0  0  0  0  0  0  0  0  0  0
    2.3856  -49.7515  -23.5198 O   0  0  0  0  0  0  0  0  0  0  0  0
    2.0722  -49.5375  -20.7810 C   0  0  0  0  0  0  0  0  0  0  0  0
    0.9617  -50.1804  -21.2416 C   0  0  0  0  0  0  0  0  0  0  0  0
    3.3891  -47.6831  -23.8915 C   0  0  0  0  0  0  0  0  0  0  0  0
    2.8273  -46.4477  -23.7284 F   0  0  0  0  0  0  0  0  0  0  0  0
    3.2205  -48.1321  -25.2097 F   0  0  0  0  0  0  0  0  0  0  0  0
    4.7424  -47.6215  -23.6472 F   0  0  0  0  0  0  0  0  0  0  0  0
   -0.7387  -53.1595  -25.5759 N   0  0  0  0  0  0  0  0  0  0  0  0
   -1.6417  -52.9884  -26.0893 H   0  0  0  0  0  0  0  0  0  0  0  0
    0.4539  -53.0840  -26.3402 C   0  0  0  0  0  0  0  0  0  0  0  0
    0.6702  -53.6982  -27.5488 C   0  0  0  0  0  0  0  0  0  0  0  0
    1.8822  -53.5908  -28.2043 C   0  0  0  0  0  0  0  0  0  0  0  0
    2.9371  -52.8589  -27.6768 C   0  0  0  0  0  0  0  0  0  0  0  0
    2.7220  -52.2448  -26.4699 C   0  0  0  0  0  0  0  0  0  0  0  0
    1.5117  -52.3509  -25.8130 C   0  0  0  0  0  0  0  0  0  0  0  0
    3.7324  -51.4903  -25.8149 N   0  0  0  0  0  0  0  0  0  0  0  0
    4.4685  -51.9533  -24.7335 C   0  0  0  0  0  0  0  0  0  0  0  0
    4.3559  -53.0620  -24.1827 O   0  0  0  0  0  0  0  0  0  0  0  0
    3.9244  -50.5105  -26.1953 H   0  0  0  0  0  0  0  0  0  0  0  0
    5.4903  -51.0465  -24.1735 C   0  0  0  0  0  0  0  0  0  0  0  0
    5.6343  -50.9921  -22.8669 C   0  0  0  0  0  0  0  0  0  0  0  0
  1  2  1  0  0  0
  2  3  2  0  0  0
  3  4  1  0  0  0
  4  5  2  0  0  0
  5  8  1  0  0  0
  8 10  1  0  0  0
 10 11  2  0  0  0
 11 12  1  0  0  0
 12 13  2  0  0  0
 13 14  1  0  0  0
 14 15  1  0  0  0
 15 16  1  0  0  0
 16 17  1  0  0  0
 17 18  1  0  0  0
 18 19  2  0  0  0
 18 22  1  0  0  0
 22 23  1  0  0  0
 22 24  1  0  0  0
 22 25  1  0  0  0
 17 20  1  0  0  0
 20 21  2  0  0  0
  5  6  1  0  0  0
  6  7  2  0  0  0
  7 26  1  0  0  0
 26 28  1  0  0  0
 28 29  2  0  0  0
 29 30  1  0  0  0
 30 31  2  0  0  0
 31 32  1  0  0  0
 32 34  1  0  0  0
 34 35  1  0  0  0
 35 36  2  0  0  0
 35 38  1  0  0  0
 38 39  2  0  0  0
 32 33  2  0  0  0
  7  2  1  0  0  0
 33 28  1  0  0  0
 21 10  1  0  0  0
 20 13  1  0  0  0
  8  9  1  0  0  0
 26 27  1  0  0  0
 34 37  1  0  0  0
M  END
> <minimizedAffinity>
-7.63051

> <CNNscore>
0.1616067588

> <CNNaffinity>
6.9172258377

> <CNN_VS>
1.1178704500

> <CNNaffinity_variance>
0.1521474719

$$$$
[H]C([H])=C([H])C(=O)N([H])c1c([H])c([H])c([H])c(N([H])c2nc(N([H])c3c([H])c([H])c4c(c3[H])N(C(=O)C(F)(F)F)C([H])([H])C([H])([H])O4)nc([H])c2F)c1[H]


 39 42  0  0  0  0  0  0  0  0999 V2000
   -2.2565  -53.6814  -20.9460 F   0  0  0  0  0  0  0  0  0  0  0  0
   -1.0947  -53.1606  -21.4450 C   0  0  0  0  0  0  0  0  0  0  0  0
   -0.9502  -52.8263  -22.7615 C   0  0  0  0  0  0  0  0  0  0  0  0
    0.2149  -52.3252  -23.1632 N   0  0  0  0  0  0  0  0  0  0  0  0
    1.2893  -52.1073  -22.3964 C   0  0  0  0  0  0  0  0  0  0  0  0
    1.1283  -52.4473  -21.0811 N   0  0  0  0  0  0  0  0  0  0  0  0
    0.0125  -52.9492  -20.5943 C   0  0  0  0  0  0  0  0  0  0  0  0
    2.5204  -51.5757  -22.8296 N   0  0  0  0  0  0  0  0  0  0  0  0
    3.3207  -51.6288  -22.1230 H   0  0  0  0  0  0  0  0  0  0  0  0
    2.7522  -50.9991  -24.0799 C   0  0  0  0  0  0  0  0  0  0  0  0
    2.5859  -51.5750  -25.3099 C   0  0  0  0  0  0  0  0  0  0  0  0
    2.8679  -50.9375  -26.5243 C   0  0  0  0  0  0  0  0  0  0  0  0
    3.3375  -49.6560  -26.4497 C   0  0  0  0  0  0  0  0  0  0  0  0
    3.6522  -48.9212  -27.5543 O   0  0  0  0  0  0  0  0  0  0  0  0
    4.5547  -47.8327  -27.5851 C   0  0  0  0  0  0  0  0  0  0  0  0
    5.0003  -47.3693  -26.2224 C   0  0  0  0  0  0  0  0  0  0  0  0
    4.0173  -47.6642  -25.1998 N   0  0  0  0  0  0  0  0  0  0  0  0
    3.5173  -46.7611  -24.2481 C   0  0  0  0  0  0  0  0  0  0  0  0
    2.6065  -47.0890  -23.4647 O   0  0  0  0  0  0  0  0  0  0  0  0
    3.5242  -49.0203  -25.2177 C   0  0  0  0  0  0  0  0  0  0  0  0
    3.2416  -49.6685  -24.0520 C   0  0  0  0  0  0  0  0  0  0  0  0
    4.0325  -45.3647  -24.1102 C   0  0  0  0  0  0  0  0  0  0  0  0
    3.8897  -44.6313  -25.2548 F   0  0  0  0  0  0  0  0  0  0  0  0
    5.3825  -45.4385  -23.7363 F   0  0  0  0  0  0  0  0  0  0  0  0
    3.3511  -44.7630  -23.0766 F   0  0  0  0  0  0  0  0  0  0  0  0
   -0.1461  -53.3254  -19.2574 N   0  0  0  0  0  0  0  0  0  0  0  0
   -0.0381  -54.3360  -18.9835 H   0  0  0  0  0  0  0  0  0  0  0  0
   -0.4525  -52.4115  -18.2167 C   0  0  0  0  0  0  0  0  0  0  0  0
    0.1917  -51.2226  -17.9802 C   0  0  0  0  0  0  0  0  0  0  0  0
   -0.1600  -50.4121  -16.9173 C   0  0  0  0  0  0  0  0  0  0  0  0
   -1.1786  -50.7572  -16.0397 C   0  0  0  0  0  0  0  0  0  0  0  0
   -1.8229  -51.9443  -16.2753 C   0  0  0  0  0  0  0  0  0  0  0  0
   -1.4730  -52.7558  -17.3367 C   0  0  0  0  0  0  0  0  0  0  0  0
   -2.8634  -52.4200  -15.4325 N   0  0  0  0  0  0  0  0  0  0  0  0
   -4.2150  -52.2852  -15.7165 C   0  0  0  0  0  0  0  0  0  0  0  0
   -4.7093  -51.7373  -16.7169 O   0  0  0  0  0  0  0  0  0  0  0  0
   -2.5664  -52.9117  -14.5316 H   0  0  0  0  0  0  0  0  0  0  0  0
   -5.1700  -52.8449  -14.7395 C   0  0  0  0  0  0  0  0  0  0  0  0
   -4.9042  -54.0151  -14.2002 C   0  0  0  0  0  0  0  0  0  0  0  0
  1  2  1  0  0  0
  2  3  2  0  0  0
  3  4  1  0  0  0
  4  5  2  0  0  0
  5  8  1  0  0  0
  8 10  1  0  0  0
 10 11  2  0  0  0
 11 12  1  0  0  0
 12 13  2  0  0  0
 13 14  1  0  0  0
 14 15  1  0  0  0
 15 16  1  0  0  0
 16 17  1  0  0  0
 17 18  1  0  0  0
 18 19  2  0  0  0
 18 22  1  0  0  0
 22 23  1  0  0  0
 22 24  1  0  0  0
 22 25  1  0  0  0
 17 20  1  0  0  0
 20 21  2  0  0  0
  5  6  1  0  0  0
  6  7  2  0  0  0
  7 26  1  0  0  0
 26 28  1  0  0  0
 28 29  2  0  0  0
 29 30  1  0  0  0
 30 31  2  0  0  0
 31 32  1  0  0  0
 32 34  1  0  0  0
 34 35  1  0  0  0
 35 36  2  0  0  0
 35 38  1  0  0  0
 38 39  2  0  0  0
 32 33  2  0  0  0
  7  2  1  0  0  0
 33 28  1  0  0  0
 21 10  1  0  0  0
 20 13  1  0  0  0
  8  9  1  0  0  0
 26 27  1  0  0  0
 34 37  1  0  0  0
M  END
> <minimizedAffinity>
-7.74848

> <CNNscore>
0.1467858255

> <CNNaffinity>
6.5636854172

> <CNN_VS>
0.9634559751

> <CNNaffinity_variance>
0.0165529381

$$$$
[H]C([H])=C([H])C(=O)N([H])c1c([H])c([H])c([H])c(N([H])c2nc(N([H])c3c([H])c([H])c4c(c3[H])N(C(=O)C(F)(F)F)C([H])([H])C([H])([H])O4)nc([H])c2F)c1[H]


 39 42  0  0  0  0  0  0  0  0999 V2000
   -0.9771  -56.1007  -24.3860 F   0  0  0  0  0  0  0  0  0  0  0  0
   -0.9043  -54.9483  -23.6535 C   0  0  0  0  0  0  0  0  0  0  0  0
   -0.9732  -54.9444  -22.2892 C   0  0  0  0  0  0  0  0  0  0  0  0
   -0.8939  -53.7777  -21.6548 N   0  0  0  0  0  0  0  0  0  0  0  0
   -0.7501  -52.5755  -22.2237 C   0  0  0  0  0  0  0  0  0  0  0  0
   -0.6828  -52.5967  -23.5899 N   0  0  0  0  0  0  0  0  0  0  0  0
   -0.7524  -53.7028  -24.3012 C   0  0  0  0  0  0  0  0  0  0  0  0
   -0.6667  -51.3438  -21.5444 N   0  0  0  0  0  0  0  0  0  0  0  0
   -1.6012  -50.9031  -21.2704 H   0  0  0  0  0  0  0  0  0  0  0  0
    0.5196  -50.6822  -21.2211 C   0  0  0  0  0  0  0  0  0  0  0  0
    1.3646  -50.0191  -22.0687 C   0  0  0  0  0  0  0  0  0  0  0  0
    2.5565  -49.4010  -21.6707 C   0  0  0  0  0  0  0  0  0  0  0  0
    2.8738  -49.4780  -20.3435 C   0  0  0  0  0  0  0  0  0  0  0  0
    4.0043  -48.9213  -19.8227 O   0  0  0  0  0  0  0  0  0  0  0  0
    4.6467  -49.3320  -18.6316 C   0  0  0  0  0  0  0  0  0  0  0  0
    3.8512  -50.3187  -17.8170 C   0  0  0  0  0  0  0  0  0  0  0  0
    2.4263  -50.1871  -18.0438 N   0  0  0  0  0  0  0  0  0  0  0  0
    1.4371  -50.0840  -17.0528 C   0  0  0  0  0  0  0  0  0  0  0  0
    0.2444  -49.8853  -17.3510 O   0  0  0  0  0  0  0  0  0  0  0  0
    2.0438  -50.1427  -19.4346 C   0  0  0  0  0  0  0  0  0  0  0  0
    0.8899  -50.7359  -19.8534 C   0  0  0  0  0  0  0  0  0  0  0  0
    1.7394  -50.2020  -15.5937 C   0  0  0  0  0  0  0  0  0  0  0  0
    2.3734  -51.3707  -15.2764 F   0  0  0  0  0  0  0  0  0  0  0  0
    0.5296  -50.0905  -14.8926 F   0  0  0  0  0  0  0  0  0  0  0  0
    2.5231  -49.1283  -15.2363 F   0  0  0  0  0  0  0  0  0  0  0  0
   -0.7138  -53.7257  -25.6984 N   0  0  0  0  0  0  0  0  0  0  0  0
   -1.5879  -53.9492  -26.2408 H   0  0  0  0  0  0  0  0  0  0  0  0
    0.4567  -53.4623  -26.4550 C   0  0  0  0  0  0  0  0  0  0  0  0
    0.6057  -53.6830  -27.8017 C   0  0  0  0  0  0  0  0  0  0  0  0
    1.8006  -53.4233  -28.4460 C   0  0  0  0  0  0  0  0  0  0  0  0
    2.9053  -52.9276  -27.7673 C   0  0  0  0  0  0  0  0  0  0  0  0
    2.7574  -52.7066  -26.4222 C   0  0  0  0  0  0  0  0  0  0  0  0
    1.5644  -52.9654  -25.7763 C   0  0  0  0  0  0  0  0  0  0  0  0
    3.8226  -52.2269  -25.6133 N   0  0  0  0  0  0  0  0  0  0  0  0
    3.8765  -50.9468  -25.0800 C   0  0  0  0  0  0  0  0  0  0  0  0
    3.0315  -50.0474  -25.2295 O   0  0  0  0  0  0  0  0  0  0  0  0
    4.6195  -52.9096  -25.4120 H   0  0  0  0  0  0  0  0  0  0  0  0
    5.0503  -50.6091  -24.2506 C   0  0  0  0  0  0  0  0  0  0  0  0
    5.8080  -51.5881  -23.8052 C   0  0  0  0  0  0  0  0  0  0  0  0
  1  2  1  0  0  0
  2  3  2  0  0  0
  3  4  1  0  0  0
  4  5  2  0  0  0
  5  8  1  0  0  0
  8 10  1  0  0  0
 10 11  2  0  0  0
 11 12  1  0  0  0
 12 13  2  0  0  0
 13 14  1  0  0  0
 14 15  1  0  0  0
 15 16  1  0  0  0
 16 17  1  0  0  0
 17 18  1  0  0  0
 18 19  2  0  0  0
 18 22  1  0  0  0
 22 23  1  0  0  0
 22 24  1  0  0  0
 22 25  1  0  0  0
 17 20  1  0  0  0
 20 21  2  0  0  0
  5  6  1  0  0  0
  6  7  2  0  0  0
  7 26  1  0  0  0
 26 28  1  0  0  0
 28 29  2  0  0  0
 29 30  1  0  0  0
 30 31  2  0  0  0
 31 32  1  0  0  0
 32 34  1  0  0  0
 34 35  1  0  0  0
 35 36  2  0  0  0
 35 38  1  0  0  0
 38 39  2  0  0  0
 32 33  2  0  0  0
  7  2  1  0  0  0
 33 28  1  0  0  0
 21 10  1  0  0  0
 20 13  1  0  0  0
  8  9  1  0  0  0
 26 27  1  0  0  0
 34 37  1  0  0  0
M  END
> <minimizedAffinity>
-8.01981

> <CNNscore>
0.1391668767

> <CNNaffinity>
6.9897980690

> <CNN_VS>
0.9727483392

> <CNNaffinity_variance>
0.1070302874

$$$$
[H]C([H])=C([H])C(=O)N([H])c1c(OC([H])([H])C([H])([H])N([H])C(=O)C([H])([H])C([H])([H])C([H])([H])N(C([H])([H])[H])C([H])([H])[H])c([H])c2nc([H])nc(N([H])c3c([H])c([H])c(Br)c(Cl)c3F)c2c1[H]


 40 42  0  0  0  0  0  0  0  0999 V2000
    2.1653  -51.6759  -21.9971 C   0  0  0  0  0  0  0  0  0  0  0  0
    1.1242  -52.2840  -22.6030 C   0  0  0  0  0  0  0  0  0  0  0  0
    0.0756  -52.8933  -21.8641 C   0  0  0  0  0  0  0  0  0  0  0  0
   -0.9545  -53.5289  -22.3431 N   0  0  0  0  0  0  0  0  0  0  0  0
   -1.8587  -54.1262  -21.4901 C   0  0  0  0  0  0  0  0  0  0  0  0
   -1.6802  -54.0627  -20.1788 N   0  0  0  0  0  0  0  0  0  0  0  0
   -0.6912  -53.4198  -19.6021 C   0  0  0  0  0  0  0  0  0  0  0  0
    0.2178  -52.8135  -20.4546 C   0  0  0  0  0  0  0  0  0  0  0  0
    1.3054  -52.1753  -19.8999 C   0  0  0  0  0  0  0  0  0  0  0  0
    2.3054  -51.5839  -20.6805 C   0  0  0  0  0  0  0  0  0  0  0  0
    3.3834  -51.0770  -19.7677 N   0  0  0  0  0  0  0  0  0  0  0  0
    3.0146  -49.8105  -19.1933 C   0  0  0  0  0  0  0  0  0  0  0  0
    2.3007  -48.9805  -19.9094 O   0  0  0  0  0  0  0  0  0  0  0  0
    4.2942  -51.5096  -19.6471 H   0  0  0  0  0  0  0  0  0  0  0  0
    3.3794  -49.4002  -17.8272 C   0  0  0  0  0  0  0  0  0  0  0  0
    2.4544  -48.6014  -17.2484 C   0  0  0  0  0  0  0  0  0  0  0  0
   -0.5291  -53.1094  -18.2479 N   0  0  0  0  0  0  0  0  0  0  0  0
    0.6063  -52.9042  -17.9381 H   0  0  0  0  0  0  0  0  0  0  0  0
   -1.3454  -52.6214  -17.2563 C   0  0  0  0  0  0  0  0  0  0  0  0
   -2.6150  -53.1033  -17.1147 C   0  0  0  0  0  0  0  0  0  0  0  0
   -3.5270  -52.3355  -16.3179 C   0  0  0  0  0  0  0  0  0  0  0  0
   -3.1415  -51.2372  -15.7538 C   0  0  0  0  0  0  0  0  0  0  0  0
   -4.5335  -50.0158  -15.0421 Br  0  0  0  0  0  0  0  0  0  0  0  0
   -1.8866  -50.7458  -15.8544 C   0  0  0  0  0  0  0  0  0  0  0  0
   -1.3583  -49.3431  -14.9761 Cl  0  0  0  0  0  0  0  0  0  0  0  0
   -0.9656  -51.4512  -16.6355 C   0  0  0  0  0  0  0  0  0  0  0  0
    0.3233  -51.1512  -16.6450 F   0  0  0  0  0  0  0  0  0  0  0  0
    3.2044  -51.0617  -22.4557 O   0  0  0  0  0  0  0  0  0  0  0  0
    4.0245  -50.7294  -23.3734 C   0  0  0  0  0  0  0  0  0  0  0  0
    4.8011  -52.2054  -23.7799 C   0  0  0  0  0  0  0  0  0  0  0  0
    3.3823  -52.6613  -26.1188 C   0  0  0  0  0  0  0  0  0  0  0  0
    3.3953  -53.3252  -27.0035 O   0  0  0  0  0  0  0  0  0  0  0  0
    4.1100  -52.4224  -24.9133 N   0  0  0  0  0  0  0  0  0  0  0  0
    5.0522  -53.4080  -25.1514 H   0  0  0  0  0  0  0  0  0  0  0  0
    2.2160  -51.5581  -26.0065 C   0  0  0  0  0  0  0  0  0  0  0  0
    1.0550  -51.9028  -26.7958 C   0  0  0  0  0  0  0  0  0  0  0  0
   -0.0576  -52.5078  -25.9944 C   0  0  0  0  0  0  0  0  0  0  0  0
   -0.2985  -53.3958  -28.1389 C   0  0  0  0  0  0  0  0  0  0  0  0
   -0.5863  -53.6518  -26.7168 N   0  0  0  0  0  0  0  0  0  0  0  0
    0.0652  -54.9180  -26.4014 C   0  0  0  0  0  0  0  0  0  0  0  0
 38 39  1  0  0  0
 39 40  1  0  0  0
 39 37  1  0  0  0
 37 36  1  0  0  0
 36 35  1  0  0  0
 35 31  1  0  0  0
 31 32  2  0  0  0
 31 33  1  0  0  0
 33 30  1  0  0  0
 30 29  1  0  0  0
 29 28  1  0  0  0
 28  1  1  0  0  0
  1  2  2  0  0  0
  2  3  1  0  0  0
  3  4  2  0  0  0
  4  5  1  0  0  0
  5  6  2  0  0  0
  6  7  1  0  0  0
  7 17  1  0  0  0
 17 19  1  0  0  0
 19 20  2  0  0  0
 20 21  1  0  0  0
 21 22  2  0  0  0
 22 23  1  0  0  0
 22 24  1  0  0  0
 24 25  1  0  0  0
 24 26  2  0  0  0
 26 27  1  0  0  0
  7  8  2  0  0  0
  8  9  1  0  0  0
  9 10  2  0  0  0
 10 11  1  0  0  0
 11 12  1  0  0  0
 12 13  2  0  0  0
 12 15  1  0  0  0
 15 16  2  0  0  0
 10  1  1  0  0  0
  8  3  1  0  0  0
 26 19  1  0  0  0
 33 34  1  0  0  0
 17 18  1  0  0  0
 11 14  1  0  0  0
M  END
> <minimizedAffinity>
-8.59273

> <CNNscore>
0.6421931386

> <CNNaffinity>
7.7741637230

> <CNN_VS>
4.9925146103

> <CNNaffinity_variance>
0.0316421948

$$$$
[H]C([H])=C([H])C(=O)N([H])c1c(OC([H])([H])C([H])([H])N([H])C(=O)C([H])([H])C([H])([H])C([H])([H])N(C([H])([H])[H])C([H])([H])[H])c([H])c2nc([H])nc(N([H])c3c([H])c([H])c(Br)c(Cl)c3F)c2c1[H]


 40 42  0  0  0  0  0  0  0  0999 V2000
    1.5828  -51.6014  -24.3023 C   0  0  0  0  0  0  0  0  0  0  0  0
    0.5974  -52.4863  -24.5606 C   0  0  0  0  0  0  0  0  0  0  0  0
   -0.0118  -53.2544  -23.5330 C   0  0  0  0  0  0  0  0  0  0  0  0
   -0.9440  -54.1520  -23.6730 N   0  0  0  0  0  0  0  0  0  0  0  0
   -1.3900  -54.8647  -22.5798 C   0  0  0  0  0  0  0  0  0  0  0  0
   -0.8670  -54.6451  -21.3824 N   0  0  0  0  0  0  0  0  0  0  0  0
    0.0532  -53.7412  -21.1371 C   0  0  0  0  0  0  0  0  0  0  0  0
    0.5015  -53.0186  -22.2314 C   0  0  0  0  0  0  0  0  0  0  0  0
    1.5080  -52.0984  -22.0363 C   0  0  0  0  0  0  0  0  0  0  0  0
    2.0647  -51.3626  -23.0889 C   0  0  0  0  0  0  0  0  0  0  0  0
    3.1968  -50.5399  -22.5471 N   0  0  0  0  0  0  0  0  0  0  0  0
    2.7012  -49.4370  -21.7674 C   0  0  0  0  0  0  0  0  0  0  0  0
    1.5757  -48.8728  -22.1226 O   0  0  0  0  0  0  0  0  0  0  0  0
    4.1763  -50.6742  -22.7792 H   0  0  0  0  0  0  0  0  0  0  0  0
    3.3826  -48.9164  -20.5705 C   0  0  0  0  0  0  0  0  0  0  0  0
    2.6459  -48.0055  -19.8949 C   0  0  0  0  0  0  0  0  0  0  0  0
    0.5119  -53.2825  -19.8979 N   0  0  0  0  0  0  0  0  0  0  0  0
    1.6523  -53.5625  -19.6778 H   0  0  0  0  0  0  0  0  0  0  0  0
    0.1307  -52.2932  -19.0239 C   0  0  0  0  0  0  0  0  0  0  0  0
    0.9385  -51.2119  -18.8181 C   0  0  0  0  0  0  0  0  0  0  0  0
    0.6763  -50.4028  -17.6635 C   0  0  0  0  0  0  0  0  0  0  0  0
   -0.2985  -50.6949  -16.8651 C   0  0  0  0  0  0  0  0  0  0  0  0
   -0.3408  -49.8187  -15.0857 Br  0  0  0  0  0  0  0  0  0  0  0  0
   -1.1305  -51.7430  -17.0534 C   0  0  0  0  0  0  0  0  0  0  0  0
   -2.5138  -52.0323  -16.0431 Cl  0  0  0  0  0  0  0  0  0  0  0  0
   -0.9038  -52.5716  -18.1572 C   0  0  0  0  0  0  0  0  0  0  0  0
   -1.7670  -53.5050  -18.5241 F   0  0  0  0  0  0  0  0  0  0  0  0
    2.2618  -50.8059  -25.0595 O   0  0  0  0  0  0  0  0  0  0  0  0
    2.7748  -50.4427  -26.1686 C   0  0  0  0  0  0  0  0  0  0  0  0
    3.3199  -48.8442  -25.8613 C   0  0  0  0  0  0  0  0  0  0  0  0
    4.3648  -48.4091  -28.3931 C   0  0  0  0  0  0  0  0  0  0  0  0
    4.8294  -48.9681  -29.2270 O   0  0  0  0  0  0  0  0  0  0  0  0
    3.8260  -48.6280  -27.0887 N   0  0  0  0  0  0  0  0  0  0  0  0
    4.0817  -49.9884  -27.0864 H   0  0  0  0  0  0  0  0  0  0  0  0
    4.1506  -46.8228  -28.5601 C   0  0  0  0  0  0  0  0  0  0  0  0
    2.9888  -46.5059  -29.3598 C   0  0  0  0  0  0  0  0  0  0  0  0
    3.3196  -46.0979  -30.7636 C   0  0  0  0  0  0  0  0  0  0  0  0
    2.0808  -46.8246  -32.6029 C   0  0  0  0  0  0  0  0  0  0  0  0
    3.1185  -47.2374  -31.6419 N   0  0  0  0  0  0  0  0  0  0  0  0
    4.2834  -47.5937  -32.4440 C   0  0  0  0  0  0  0  0  0  0  0  0
 38 39  1  0  0  0
 39 40  1  0  0  0
 39 37  1  0  0  0
 37 36  1  0  0  0
 36 35  1  0  0  0
 35 31  1  0  0  0
 31 32  2  0  0  0
 31 33  1  0  0  0
 33 30  1  0  0  0
 30 29  1  0  0  0
 29 28  1  0  0  0
 28  1  1  0  0  0
  1  2  2  0  0  0
  2  3  1  0  0  0
  3  4  2  0  0  0
  4  5  1  0  0  0
  5  6  2  0  0  0
  6  7  1  0  0  0
  7 17  1  0  0  0
 17 19  1  0  0  0
 19 20  2  0  0  0
 20 21  1  0  0  0
 21 22  2  0  0  0
 22 23  1  0  0  0
 22 24  1  0  0  0
 24 25  1  0  0  0
 24 26  2  0  0  0
 26 27  1  0  0  0
  7  8  2  0  0  0
  8  9  1  0  0  0
  9 10  2  0  0  0
 10 11  1  0  0  0
 11 12  1  0  0  0
 12 13  2  0  0  0
 12 15  1  0  0  0
 15 16  2  0  0  0
 10  1  1  0  0  0
  8  3  1  0  0  0
 26 19  1  0  0  0
 33 34  1  0  0  0
 17 18  1  0  0  0
 11 14  1  0  0  0
M  END
> <minimizedAffinity>
-7.81336

> <CNNscore>
0.6022961140

> <CNNaffinity>
7.4483213425

> <CNN_VS>
4.4860949516

> <CNNaffinity_variance>
0.1494195163

$$$$
[H]C([H])=C([H])C(=O)N([H])c1c(OC([H])([H])C([H])([H])N([H])C(=O)C([H])([H])C([H])([H])C([H])([H])N(C([H])([H])[H])C([H])([H])[H])c([H])c2nc([H])nc(N([H])c3c([H])c([H])c(Br)c(Cl)c3F)c2c1[H]


 40 42  0  0  0  0  0  0  0  0999 V2000
    0.5070  -51.6264  -18.8774 C   0  0  0  0  0  0  0  0  0  0  0  0
   -0.3887  -52.6328  -18.9517 C   0  0  0  0  0  0  0  0  0  0  0  0
   -0.6993  -53.2737  -20.1804 C   0  0  0  0  0  0  0  0  0  0  0  0
   -1.5634  -54.2286  -20.3701 N   0  0  0  0  0  0  0  0  0  0  0  0
   -1.8015  -54.7055  -21.6420 C   0  0  0  0  0  0  0  0  0  0  0  0
   -1.1577  -54.1896  -22.6787 N   0  0  0  0  0  0  0  0  0  0  0  0
   -0.2479  -53.2476  -22.5840 C   0  0  0  0  0  0  0  0  0  0  0  0
   -0.0011  -52.7681  -21.3074 C   0  0  0  0  0  0  0  0  0  0  0  0
    0.9031  -51.7390  -21.1617 C   0  0  0  0  0  0  0  0  0  0  0  0
    1.1755  -51.1511  -19.9209 C   0  0  0  0  0  0  0  0  0  0  0  0
    2.1175  -50.0028  -20.1356 N   0  0  0  0  0  0  0  0  0  0  0  0
    3.4831  -50.4554  -20.1457 C   0  0  0  0  0  0  0  0  0  0  0  0
    3.8175  -51.4588  -19.3759 O   0  0  0  0  0  0  0  0  0  0  0  0
    1.8449  -49.0250  -20.1661 H   0  0  0  0  0  0  0  0  0  0  0  0
    4.5296  -49.8633  -20.9954 C   0  0  0  0  0  0  0  0  0  0  0  0
    5.4316  -50.7697  -21.4354 C   0  0  0  0  0  0  0  0  0  0  0  0
    0.6345  -52.7898  -23.5680 N   0  0  0  0  0  0  0  0  0  0  0  0
    1.7811  -53.0220  -23.3261 H   0  0  0  0  0  0  0  0  0  0  0  0
    0.5270  -52.4713  -24.9002 C   0  0  0  0  0  0  0  0  0  0  0  0
   -0.6513  -51.9936  -25.3977 C   0  0  0  0  0  0  0  0  0  0  0  0
   -0.8218  -52.0114  -26.8215 C   0  0  0  0  0  0  0  0  0  0  0  0
    0.1191  -52.4561  -27.5896 C   0  0  0  0  0  0  0  0  0  0  0  0
   -0.3317  -52.8579  -29.4794 Br  0  0  0  0  0  0  0  0  0  0  0  0
    1.3053  -52.9131  -27.1308 C   0  0  0  0  0  0  0  0  0  0  0  0
    2.6022  -53.3759  -28.1899 Cl  0  0  0  0  0  0  0  0  0  0  0  0
    1.5116  -52.9313  -25.7476 C   0  0  0  0  0  0  0  0  0  0  0  0
    2.6970  -53.1858  -25.2172 F   0  0  0  0  0  0  0  0  0  0  0  0
    0.9435  -50.9179  -17.8902 O   0  0  0  0  0  0  0  0  0  0  0  0
    1.2700  -50.7317  -16.6720 C   0  0  0  0  0  0  0  0  0  0  0  0
    2.0928  -49.2253  -16.6964 C   0  0  0  0  0  0  0  0  0  0  0  0
    3.6121  -49.6940  -14.4240 C   0  0  0  0  0  0  0  0  0  0  0  0
    4.0696  -50.5333  -13.8674 O   0  0  0  0  0  0  0  0  0  0  0  0
    2.8294  -49.4476  -15.5930 N   0  0  0  0  0  0  0  0  0  0  0  0
    2.7321  -50.7817  -15.9487 H   0  0  0  0  0  0  0  0  0  0  0  0
    3.8162  -48.2002  -13.8611 C   0  0  0  0  0  0  0  0  0  0  0  0
    4.6797  -47.4071  -14.7067 C   0  0  0  0  0  0  0  0  0  0  0  0
    4.4674  -45.9302  -14.5642 C   0  0  0  0  0  0  0  0  0  0  0  0
    6.5862  -44.9524  -14.5495 C   0  0  0  0  0  0  0  0  0  0  0  0
    5.4238  -45.2363  -15.4091 N   0  0  0  0  0  0  0  0  0  0  0  0
    5.9358  -46.0314  -16.5196 C   0  0  0  0  0  0  0  0  0  0  0  0
 38 39  1  0  0  0
 39 40  1  0  0  0
 39 37  1  0  0  0
 37 36  1  0  0  0
 36 35  1  0  0  0
 35 31  1  0  0  0
 31 32  2  0  0  0
 31 33  1  0  0  0
 33 30  1  0  0  0
 30 29  1  0  0  0
 29 28  1  0  0  0
 28  1  1  0  0  0
  1  2  2  0  0  0
  2  3  1  0  0  0
  3  4  2  0  0  0
  4  5  1  0  0  0
  5  6  2  0  0  0
  6  7  1  0  0  0
  7 17  1  0  0  0
 17 19  1  0  0  0
 19 20  2  0  0  0
 20 21  1  0  0  0
 21 22  2  0  0  0
 22 23  1  0  0  0
 22 24  1  0  0  0
 24 25  1  0  0  0
 24 26  2  0  0  0
 26 27  1  0  0  0
  7  8  2  0  0  0
  8  9  1  0  0  0
  9 10  2  0  0  0
 10 11  1  0  0  0
 11 12  1  0  0  0
 12 13  2  0  0  0
 12 15  1  0  0  0
 15 16  2  0  0  0
 10  1  1  0  0  0
  8  3  1  0  0  0
 26 19  1  0  0  0
 33 34  1  0  0  0
 17 18  1  0  0  0
 11 14  1  0  0  0
M  END
> <minimizedAffinity>
-7.37442

> <CNNscore>
0.6020550728

> <CNNaffinity>
7.4268083572

> <CNN_VS>
4.4713478088

> <CNNaffinity_variance>
0.3102550209

$$$$
[H]C([H])=C([H])C(=O)N([H])c1c(OC([H])([H])C([H])([H])N([H])C(=O)C([H])([H])C([H])([H])C([H])([H])N(C([H])([H])[H])C([H])([H])[H])c([H])c2nc([H])nc(N([H])c3c([H])c([H])c(Br)c(Cl)c3F)c2c1[H]


 40 42  0  0  0  0  0  0  0  0999 V2000
    2.1622  -50.7987  -19.7655 C   0  0  0  0  0  0  0  0  0  0  0  0
    1.1083  -51.4507  -19.2317 C   0  0  0  0  0  0  0  0  0  0  0  0
    0.3064  -52.3377  -19.9979 C   0  0  0  0  0  0  0  0  0  0  0  0
   -0.7443  -52.9917  -19.5944 N   0  0  0  0  0  0  0  0  0  0  0  0
   -1.4601  -53.7686  -20.4809 C   0  0  0  0  0  0  0  0  0  0  0  0
   -1.0868  -53.8480  -21.7497 N   0  0  0  0  0  0  0  0  0  0  0  0
   -0.0261  -53.2511  -22.2422 C   0  0  0  0  0  0  0  0  0  0  0  0
    0.6998  -52.4729  -21.3545 C   0  0  0  0  0  0  0  0  0  0  0  0
    1.7885  -51.7794  -21.8357 C   0  0  0  0  0  0  0  0  0  0  0  0
    2.5483  -50.9241  -21.0291 C   0  0  0  0  0  0  0  0  0  0  0  0
    3.5822  -50.2556  -21.8871 N   0  0  0  0  0  0  0  0  0  0  0  0
    4.6824  -51.1447  -22.1500 C   0  0  0  0  0  0  0  0  0  0  0  0
    5.0338  -51.9995  -21.2242 O   0  0  0  0  0  0  0  0  0  0  0  0
    3.5661  -49.2781  -22.1620 H   0  0  0  0  0  0  0  0  0  0  0  0
    5.4279  -51.1624  -23.4196 C   0  0  0  0  0  0  0  0  0  0  0  0
    5.3307  -52.3411  -24.0754 C   0  0  0  0  0  0  0  0  0  0  0  0
    0.5738  -53.4371  -23.4921 N   0  0  0  0  0  0  0  0  0  0  0  0
    1.1663  -54.4700  -23.5879 H   0  0  0  0  0  0  0  0  0  0  0  0
    0.3706  -52.9337  -24.7542 C   0  0  0  0  0  0  0  0  0  0  0  0
   -0.8549  -52.4473  -25.1089 C   0  0  0  0  0  0  0  0  0  0  0  0
   -1.1129  -52.2658  -26.5078 C   0  0  0  0  0  0  0  0  0  0  0  0
   -0.2045  -52.5470  -27.3846 C   0  0  0  0  0  0  0  0  0  0  0  0
   -0.7557  -52.6910  -29.2850 Br  0  0  0  0  0  0  0  0  0  0  0  0
    1.0255  -53.0069  -27.0655 C   0  0  0  0  0  0  0  0  0  0  0  0
    2.2715  -53.2461  -28.2522 Cl  0  0  0  0  0  0  0  0  0  0  0  0
    1.3182  -53.2162  -25.7140 C   0  0  0  0  0  0  0  0  0  0  0  0
    2.5438  -53.4865  -25.2941 F   0  0  0  0  0  0  0  0  0  0  0  0
    3.0184  -49.9698  -19.2684 O   0  0  0  0  0  0  0  0  0  0  0  0
    3.9515  -49.6314  -18.4685 C   0  0  0  0  0  0  0  0  0  0  0  0
    3.1139  -49.0795  -17.0754 C   0  0  0  0  0  0  0  0  0  0  0  0
    3.6904  -51.2908  -15.5039 C   0  0  0  0  0  0  0  0  0  0  0  0
    4.3377  -52.1878  -15.5060 O   0  0  0  0  0  0  0  0  0  0  0  0
    3.3898  -50.1507  -16.3099 N   0  0  0  0  0  0  0  0  0  0  0  0
    4.2649  -50.4948  -17.3255 H   0  0  0  0  0  0  0  0  0  0  0  0
    2.7209  -51.0491  -14.2424 C   0  0  0  0  0  0  0  0  0  0  0  0
    1.5251  -51.8590  -14.3046 C   0  0  0  0  0  0  0  0  0  0  0  0
    0.2636  -51.0585  -14.4238 C   0  0  0  0  0  0  0  0  0  0  0  0
   -1.1196  -51.6743  -16.1996 C   0  0  0  0  0  0  0  0  0  0  0  0
    0.0056  -50.7982  -15.8295 N   0  0  0  0  0  0  0  0  0  0  0  0
   -0.4371  -49.4391  -16.1198 C   0  0  0  0  0  0  0  0  0  0  0  0
 38 39  1  0  0  0
 39 40  1  0  0  0
 39 37  1  0  0  0
 37 36  1  0  0  0
 36 35  1  0  0  0
 35 31  1  0  0  0
 31 32  2  0  0  0
 31 33  1  0  0  0
 33 30  1  0  0  0
 30 29  1  0  0  0
 29 28  1  0  0  0
 28  1  1  0  0  0
  1  2  2  0  0  0
  2  3  1  0  0  0
  3  4  2  0  0  0
  4  5  1  0  0  0
  5  6  2  0  0  0
  6  7  1  0  0  0
  7 17  1  0  0  0
 17 19  1  0  0  0
 19 20  2  0  0  0
 20 21  1  0  0  0
 21 22  2  0  0  0
 22 23  1  0  0  0
 22 24  1  0  0  0
 24 25  1  0  0  0
 24 26  2  0  0  0
 26 27  1  0  0  0
  7  8  2  0  0  0
  8  9  1  0  0  0
  9 10  2  0  0  0
 10 11  1  0  0  0
 11 12  1  0  0  0
 12 13  2  0  0  0
 12 15  1  0  0  0
 15 16  2  0  0  0
 10  1  1  0  0  0
  8  3  1  0  0  0
 26 19  1  0  0  0
 33 34  1  0  0  0
 17 18  1  0  0  0
 11 14  1  0  0  0
M  END
> <minimizedAffinity>
-8.31714

> <CNNscore>
0.5655457973

> <CNNaffinity>
7.5407533646

> <CNN_VS>
4.2646412849

> <CNNaffinity_variance>
0.1847266257

$$$$
[H]C([H])=C([H])C(=O)N([H])c1c(OC([H])([H])C([H])([H])N([H])C(=O)C([H])([H])C([H])([H])C([H])([H])N(C([H])([H])[H])C([H])([H])[H])c([H])c2nc([H])nc(N([H])c3c([H])c([H])c(Br)c(Cl)c3F)c2c1[H]


 40 42  0  0  0  0  0  0  0  0999 V2000
    2.5766  -51.6912  -21.9326 C   0  0  0  0  0  0  0  0  0  0  0  0
    1.5741  -52.2635  -22.6312 C   0  0  0  0  0  0  0  0  0  0  0  0
    0.4639  -52.8743  -21.9898 C   0  0  0  0  0  0  0  0  0  0  0  0
   -0.5376  -53.4779  -22.5619 N   0  0  0  0  0  0  0  0  0  0  0  0
   -1.5120  -54.0823  -21.7958 C   0  0  0  0  0  0  0  0  0  0  0  0
   -1.4306  -54.0585  -20.4735 N   0  0  0  0  0  0  0  0  0  0  0  0
   -0.4772  -53.4496  -19.8070 C   0  0  0  0  0  0  0  0  0  0  0  0
    0.5021  -52.8362  -20.5719 C   0  0  0  0  0  0  0  0  0  0  0  0
    1.5554  -52.2332  -19.9201 C   0  0  0  0  0  0  0  0  0  0  0  0
    2.6199  -51.6383  -20.6072 C   0  0  0  0  0  0  0  0  0  0  0  0
    3.6348  -51.1763  -19.6029 N   0  0  0  0  0  0  0  0  0  0  0  0
    3.1904  -49.9800  -18.9386 C   0  0  0  0  0  0  0  0  0  0  0  0
    2.4767  -49.1158  -19.6131 O   0  0  0  0  0  0  0  0  0  0  0  0
    4.5559  -51.5851  -19.4767 H   0  0  0  0  0  0  0  0  0  0  0  0
    3.4771  -49.6801  -17.5259 C   0  0  0  0  0  0  0  0  0  0  0  0
    3.5178  -50.7848  -16.7469 C   0  0  0  0  0  0  0  0  0  0  0  0
   -0.4114  -53.1799  -18.4360 N   0  0  0  0  0  0  0  0  0  0  0  0
    0.5504  -53.6474  -17.9034 H   0  0  0  0  0  0  0  0  0  0  0  0
   -0.9497  -52.2283  -17.6039 C   0  0  0  0  0  0  0  0  0  0  0  0
   -0.2256  -51.1192  -17.2725 C   0  0  0  0  0  0  0  0  0  0  0  0
   -0.6754  -50.3491  -16.1495 C   0  0  0  0  0  0  0  0  0  0  0  0
   -1.7341  -50.7004  -15.4945 C   0  0  0  0  0  0  0  0  0  0  0  0
   -2.0526  -49.8686  -13.7217 Br  0  0  0  0  0  0  0  0  0  0  0  0
   -2.4858  -51.7778  -15.8113 C   0  0  0  0  0  0  0  0  0  0  0  0
   -3.9773  -52.1483  -15.0012 Cl  0  0  0  0  0  0  0  0  0  0  0  0
   -2.0771  -52.5700  -16.8890 C   0  0  0  0  0  0  0  0  0  0  0  0
   -2.8411  -53.5300  -17.3850 F   0  0  0  0  0  0  0  0  0  0  0  0
    3.6565  -51.0832  -22.2952 O   0  0  0  0  0  0  0  0  0  0  0  0
    4.3331  -50.2977  -23.0371 C   0  0  0  0  0  0  0  0  0  0  0  0
    4.9267  -51.3219  -24.2803 C   0  0  0  0  0  0  0  0  0  0  0  0
    3.2819  -50.3418  -26.2867 C   0  0  0  0  0  0  0  0  0  0  0  0
    3.3501  -49.8597  -27.2800 O   0  0  0  0  0  0  0  0  0  0  0  0
    4.1248  -50.8475  -25.2505 N   0  0  0  0  0  0  0  0  0  0  0  0
    5.3057  -50.5165  -25.8921 H   0  0  0  0  0  0  0  0  0  0  0  0
    1.8220  -50.6466  -25.6820 C   0  0  0  0  0  0  0  0  0  0  0  0
    1.2040  -51.8019  -26.2928 C   0  0  0  0  0  0  0  0  0  0  0  0
   -0.2766  -51.8774  -26.0722 C   0  0  0  0  0  0  0  0  0  0  0  0
   -0.6947  -53.1381  -27.9910 C   0  0  0  0  0  0  0  0  0  0  0  0
   -0.7507  -53.1757  -26.5192 N   0  0  0  0  0  0  0  0  0  0  0  0
    0.0922  -54.2964  -26.1181 C   0  0  0  0  0  0  0  0  0  0  0  0
 38 39  1  0  0  0
 39 40  1  0  0  0
 39 37  1  0  0  0
 37 36  1  0  0  0
 36 35  1  0  0  0
 35 31  1  0  0  0
 31 32  2  0  0  0
 31 33  1  0  0  0
 33 30  1  0  0  0
 30 29  1  0  0  0
 29 28  1  0  0  0
 28  1  1  0  0  0
  1  2  2  0  0  0
  2  3  1  0  0  0
  3  4  2  0  0  0
  4  5  1  0  0  0
  5  6  2  0  0  0
  6  7  1  0  0  0
  7 17  1  0  0  0
 17 19  1  0  0  0
 19 20  2  0  0  0
 20 21  1  0  0  0
 21 22  2  0  0  0
 22 23  1  0  0  0
 22 24  1  0  0  0
 24 25  1  0  0  0
 24 26  2  0  0  0
 26 27  1  0  0  0
  7  8  2  0  0  0
  8  9  1  0  0  0
  9 10  2  0  0  0
 10 11  1  0  0  0
 11 12  1  0  0  0
 12 13  2  0  0  0
 12 15  1  0  0  0
 15 16  2  0  0  0
 10  1  1  0  0  0
  8  3  1  0  0  0
 26 19  1  0  0  0
 33 34  1  0  0  0
 17 18  1  0  0  0
 11 14  1  0  0  0
M  END
> <minimizedAffinity>
-8.26694

> <CNNscore>
0.5487496257

> <CNNaffinity>
7.5376367569

> <CNN_VS>
4.1362752914

> <CNNaffinity_variance>
0.1001279131

$$$$
[H]C([H])=C([H])C(=O)N([H])c1c(OC([H])([H])C([H])([H])N([H])C(=O)C([H])([H])C([H])([H])C([H])([H])N(C([H])([H])[H])C([H])([H])[H])c([H])c2nc([H])nc(N([H])c3c([H])c([H])c(Br)c(Cl)c3F)c2c1[H]


 40 42  0  0  0  0  0  0  0  0999 V2000
    0.6073  -51.4857  -19.1116 C   0  0  0  0  0  0  0  0  0  0  0  0
   -0.2707  -52.5102  -19.1235 C   0  0  0  0  0  0  0  0  0  0  0  0
   -0.5915  -53.2117  -20.3160 C   0  0  0  0  0  0  0  0  0  0  0  0
   -1.4409  -54.1894  -20.4461 N   0  0  0  0  0  0  0  0  0  0  0  0
   -1.6930  -54.7278  -21.6905 C   0  0  0  0  0  0  0  0  0  0  0  0
   -1.0777  -54.2481  -22.7614 N   0  0  0  0  0  0  0  0  0  0  0  0
   -0.1840  -53.2868  -22.7264 C   0  0  0  0  0  0  0  0  0  0  0  0
    0.0768  -52.7455  -21.4776 C   0  0  0  0  0  0  0  0  0  0  0  0
    0.9641  -51.6948  -21.3955 C   0  0  0  0  0  0  0  0  0  0  0  0
    1.2479  -51.0465  -20.1878 C   0  0  0  0  0  0  0  0  0  0  0  0
    2.1642  -49.8925  -20.4719 N   0  0  0  0  0  0  0  0  0  0  0  0
    3.5167  -50.3463  -20.6584 C   0  0  0  0  0  0  0  0  0  0  0  0
    3.9340  -51.3765  -19.9687 O   0  0  0  0  0  0  0  0  0  0  0  0
    1.8953  -48.9139  -20.4360 H   0  0  0  0  0  0  0  0  0  0  0  0
    4.4593  -49.7259  -21.6043 C   0  0  0  0  0  0  0  0  0  0  0  0
    4.0699  -49.8419  -22.8941 C   0  0  0  0  0  0  0  0  0  0  0  0
    0.6718  -52.8585  -23.7466 N   0  0  0  0  0  0  0  0  0  0  0  0
    1.8193  -53.1272  -23.5509 H   0  0  0  0  0  0  0  0  0  0  0  0
    0.5205  -52.5381  -25.0740 C   0  0  0  0  0  0  0  0  0  0  0  0
   -0.6753  -52.0649  -25.5327 C   0  0  0  0  0  0  0  0  0  0  0  0
   -0.8910  -52.0808  -26.9504 C   0  0  0  0  0  0  0  0  0  0  0  0
    0.0270  -52.5198  -27.7490 C   0  0  0  0  0  0  0  0  0  0  0  0
   -0.4820  -52.9203  -29.6242 Br  0  0  0  0  0  0  0  0  0  0  0  0
    1.2292  -52.9722  -27.3291 C   0  0  0  0  0  0  0  0  0  0  0  0
    2.4938  -53.4271  -28.4300 Cl  0  0  0  0  0  0  0  0  0  0  0  0
    1.4796  -52.9920  -25.9532 C   0  0  0  0  0  0  0  0  0  0  0  0
    2.6825  -53.2420  -25.4614 F   0  0  0  0  0  0  0  0  0  0  0  0
    1.0482  -50.7254  -18.1657 O   0  0  0  0  0  0  0  0  0  0  0  0
    1.2768  -50.4323  -16.9463 C   0  0  0  0  0  0  0  0  0  0  0  0
    2.8883  -49.8411  -16.9644 C   0  0  0  0  0  0  0  0  0  0  0  0
    3.8709  -51.6099  -15.0677 C   0  0  0  0  0  0  0  0  0  0  0  0
    4.2782  -52.6358  -14.9946 O   0  0  0  0  0  0  0  0  0  0  0  0
    3.3637  -50.6957  -16.0407 N   0  0  0  0  0  0  0  0  0  0  0  0
    3.5092  -51.5689  -17.1047 H   0  0  0  0  0  0  0  0  0  0  0  0
    3.7609  -50.7321  -13.7234 C   0  0  0  0  0  0  0  0  0  0  0  0
    2.3968  -50.3660  -13.4157 C   0  0  0  0  0  0  0  0  0  0  0  0
    2.2107  -48.9001  -13.1649 C   0  0  0  0  0  0  0  0  0  0  0  0
    0.1174  -47.9633  -12.7335 C   0  0  0  0  0  0  0  0  0  0  0  0
    0.9851  -48.4663  -13.8128 N   0  0  0  0  0  0  0  0  0  0  0  0
    1.1539  -47.3519  -14.7385 C   0  0  0  0  0  0  0  0  0  0  0  0
 38 39  1  0  0  0
 39 40  1  0  0  0
 39 37  1  0  0  0
 37 36  1  0  0  0
 36 35  1  0  0  0
 35 31  1  0  0  0
 31 32  2  0  0  0
 31 33  1  0  0  0
 33 30  1  0  0  0
 30 29  1  0  0  0
 29 28  1  0  0  0
 28  1  1  0  0  0
  1  2  2  0  0  0
  2  3  1  0  0  0
  3  4  2  0  0  0
  4  5  1  0  0  0
  5  6  2  0  0  0
  6  7  1  0  0  0
  7 17  1  0  0  0
 17 19  1  0  0  0
 19 20  2  0  0  0
 20 21  1  0  0  0
 21 22  2  0  0  0
 22 23  1  0  0  0
 22 24  1  0  0  0
 24 25  1  0  0  0
 24 26  2  0  0  0
 26 27  1  0  0  0
  7  8  2  0  0  0
  8  9  1  0  0  0
  9 10  2  0  0  0
 10 11  1  0  0  0
 11 12  1  0  0  0
 12 13  2  0  0  0
 12 15  1  0  0  0
 15 16  2  0  0  0
 10  1  1  0  0  0
  8  3  1  0  0  0
 26 19  1  0  0  0
 33 34  1  0  0  0
 17 18  1  0  0  0
 11 14  1  0  0  0
M  END
> <minimizedAffinity>
-7.75529

> <CNNscore>
0.5435221195

> <CNNaffinity>
7.4782209396

> <CNN_VS>
4.0645785332

> <CNNaffinity_variance>
0.1170646995

$$$$
[H]C([H])=C([H])C(=O)N([H])c1c(OC([H])([H])C([H])([H])N([H])C(=O)C([H])([H])C([H])([H])C([H])([H])N(C([H])([H])[H])C([H])([H])[H])c([H])c2nc([H])nc(N([H])c3c([H])c([H])c(Br)c(Cl)c3F)c2c1[H]


 40 42  0  0  0  0  0  0  0  0999 V2000
   -0.3348  -52.3247  -20.0382 C   0  0  0  0  0  0  0  0  0  0  0  0
   -0.8641  -53.5060  -20.4190 C   0  0  0  0  0  0  0  0  0  0  0  0
   -0.8432  -53.9380  -21.7718 C   0  0  0  0  0  0  0  0  0  0  0  0
   -1.3476  -55.0380  -22.2514 N   0  0  0  0  0  0  0  0  0  0  0  0
   -1.3045  -55.2871  -23.6071 C   0  0  0  0  0  0  0  0  0  0  0  0
   -0.7562  -54.4049  -24.4298 N   0  0  0  0  0  0  0  0  0  0  0  0
   -0.1955  -53.2843  -24.0377 C   0  0  0  0  0  0  0  0  0  0  0  0
   -0.2315  -53.0313  -22.6756 C   0  0  0  0  0  0  0  0  0  0  0  0
    0.2921  -51.8413  -22.2200 C   0  0  0  0  0  0  0  0  0  0  0  0
    0.2501  -51.4723  -20.8704 C   0  0  0  0  0  0  0  0  0  0  0  0
    0.8069  -50.0849  -20.7396 N   0  0  0  0  0  0  0  0  0  0  0  0
    2.2451  -50.1048  -20.7730 C   0  0  0  0  0  0  0  0  0  0  0  0
    2.8710  -51.1278  -20.2505 O   0  0  0  0  0  0  0  0  0  0  0  0
    0.2565  -49.2530  -20.5488 H   0  0  0  0  0  0  0  0  0  0  0  0
    3.0590  -49.0415  -21.3853 C   0  0  0  0  0  0  0  0  0  0  0  0
    2.3725  -48.2981  -22.2825 C   0  0  0  0  0  0  0  0  0  0  0  0
    0.5916  -52.3996  -24.7824 N   0  0  0  0  0  0  0  0  0  0  0  0
   -0.0015  -51.4322  -25.1560 H   0  0  0  0  0  0  0  0  0  0  0  0
    1.9387  -52.1549  -24.8970 C   0  0  0  0  0  0  0  0  0  0  0  0
    2.8427  -53.0733  -24.4458 C   0  0  0  0  0  0  0  0  0  0  0  0
    4.1956  -52.6334  -24.2650 C   0  0  0  0  0  0  0  0  0  0  0  0
    4.5306  -51.4134  -24.5342 C   0  0  0  0  0  0  0  0  0  0  0  0
    6.2782  -50.7565  -23.8631 Br  0  0  0  0  0  0  0  0  0  0  0  0
    3.6660  -50.4874  -25.0046 C   0  0  0  0  0  0  0  0  0  0  0  0
    4.1707  -48.8967  -25.4873 Cl  0  0  0  0  0  0  0  0  0  0  0  0
    2.3310  -50.8649  -25.1811 C   0  0  0  0  0  0  0  0  0  0  0  0
    1.4580  -50.0896  -25.8040 F   0  0  0  0  0  0  0  0  0  0  0  0
   -0.2346  -51.7432  -18.8896 O   0  0  0  0  0  0  0  0  0  0  0  0
   -0.2182  -51.7232  -17.6151 C   0  0  0  0  0  0  0  0  0  0  0  0
    0.2820  -50.1247  -17.2391 C   0  0  0  0  0  0  0  0  0  0  0  0
   -1.4266  -49.7909  -15.0801 C   0  0  0  0  0  0  0  0  0  0  0  0
   -1.8174  -50.3545  -14.2123 O   0  0  0  0  0  0  0  0  0  0  0  0
   -0.5480  -49.9581  -16.1937 N   0  0  0  0  0  0  0  0  0  0  0  0
   -0.2344  -51.2729  -15.8954 H   0  0  0  0  0  0  0  0  0  0  0  0
   -1.9061  -48.2682  -15.2833 C   0  0  0  0  0  0  0  0  0  0  0  0
   -0.8507  -47.3184  -15.0118 C   0  0  0  0  0  0  0  0  0  0  0  0
   -1.1608  -46.3833  -13.8823 C   0  0  0  0  0  0  0  0  0  0  0  0
    0.6972  -45.2389  -14.7093 C   0  0  0  0  0  0  0  0  0  0  0  0
   -0.6836  -45.0558  -14.2293 N   0  0  0  0  0  0  0  0  0  0  0  0
   -1.4054  -44.4235  -15.3278 C   0  0  0  0  0  0  0  0  0  0  0  0
 38 39  1  0  0  0
 39 40  1  0  0  0
 39 37  1  0  0  0
 37 36  1  0  0  0
 36 35  1  0  0  0
 35 31  1  0  0  0
 31 32  2  0  0  0
 31 33  1  0  0  0
 33 30  1  0  0  0
 30 29  1  0  0  0
 29 28  1  0  0  0
 28  1  1  0  0  0
  1  2  2  0  0  0
  2  3  1  0  0  0
  3  4  2  0  0  0
  4  5  1  0  0  0
  5  6  2  0  0  0
  6  7  1  0  0  0
  7 17  1  0  0  0
 17 19  1  0  0  0
 19 20  2  0  0  0
 20 21  1  0  0  0
 21 22  2  0  0  0
 22 23  1  0  0  0
 22 24  1  0  0  0
 24 25  1  0  0  0
 24 26  2  0  0  0
 26 27  1  0  0  0
  7  8  2  0  0  0
  8  9  1  0  0  0
  9 10  2  0  0  0
 10 11  1  0  0  0
 11 12  1  0  0  0
 12 13  2  0  0  0
 12 15  1  0  0  0
 15 16  2  0  0  0
 10  1  1  0  0  0
  8  3  1  0  0  0
 26 19  1  0  0  0
 33 34  1  0  0  0
 17 18  1  0  0  0
 11 14  1  0  0  0
M  END
> <minimizedAffinity>
-7.50172

> <CNNscore>
0.5402185917

> <CNNaffinity>
7.4406180382

> <CNN_VS>
4.0195603371

> <CNNaffinity_variance>
0.0447697304

$$$$
[H]C([H])=C([H])C(=O)N([H])c1c(OC([H])([H])C([H])([H])N([H])C(=O)C([H])([H])C([H])([H])C([H])([H])N(C([H])([H])[H])C([H])([H])[H])c([H])c2nc([H])nc(N([H])c3c([H])c([H])c(Br)c(Cl)c3F)c2c1[H]


 40 42  0  0  0  0  0  0  0  0999 V2000
   -0.5776  -52.8797  -19.6787 C   0  0  0  0  0  0  0  0  0  0  0  0
   -1.0677  -53.9539  -20.3320 C   0  0  0  0  0  0  0  0  0  0  0  0
   -0.9175  -54.1135  -21.7352 C   0  0  0  0  0  0  0  0  0  0  0  0
   -1.3733  -55.0891  -22.4666 N   0  0  0  0  0  0  0  0  0  0  0  0
   -1.2009  -55.0690  -23.8347 C   0  0  0  0  0  0  0  0  0  0  0  0
   -0.5769  -54.0533  -24.4131 N   0  0  0  0  0  0  0  0  0  0  0  0
   -0.0567  -53.0414  -23.7579 C   0  0  0  0  0  0  0  0  0  0  0  0
   -0.2228  -53.0589  -22.3821 C   0  0  0  0  0  0  0  0  0  0  0  0
    0.2544  -51.9907  -21.6547 C   0  0  0  0  0  0  0  0  0  0  0  0
    0.0836  -51.8918  -20.2689 C   0  0  0  0  0  0  0  0  0  0  0  0
    0.6248  -50.5672  -19.8167 N   0  0  0  0  0  0  0  0  0  0  0  0
    2.0521  -50.6279  -19.6469 C   0  0  0  0  0  0  0  0  0  0  0  0
    2.5876  -51.7460  -19.2292 O   0  0  0  0  0  0  0  0  0  0  0  0
    0.0581  -49.7636  -19.5627 H   0  0  0  0  0  0  0  0  0  0  0  0
    2.9543  -49.5015  -19.9388 C   0  0  0  0  0  0  0  0  0  0  0  0
    3.5644  -49.6083  -21.1409 C   0  0  0  0  0  0  0  0  0  0  0  0
    0.7974  -52.0427  -24.2373 N   0  0  0  0  0  0  0  0  0  0  0  0
    0.3438  -50.9415  -24.1434 H   0  0  0  0  0  0  0  0  0  0  0  0
    2.1506  -51.9388  -24.4509 C   0  0  0  0  0  0  0  0  0  0  0  0
    3.0107  -52.7960  -23.8268 C   0  0  0  0  0  0  0  0  0  0  0  0
    4.3983  -52.4348  -23.7997 C   0  0  0  0  0  0  0  0  0  0  0  0
    4.8027  -51.3411  -24.3593 C   0  0  0  0  0  0  0  0  0  0  0  0
    6.6235  -50.6870  -23.9201 Br  0  0  0  0  0  0  0  0  0  0  0  0
    3.9815  -50.4839  -25.0052 C   0  0  0  0  0  0  0  0  0  0  0  0
    4.5699  -49.0938  -25.8650 Cl  0  0  0  0  0  0  0  0  0  0  0  0
    2.6163  -50.7851  -25.0434 C   0  0  0  0  0  0  0  0  0  0  0  0
    1.7685  -50.1089  -25.8018 F   0  0  0  0  0  0  0  0  0  0  0  0
   -0.5878  -52.5359  -18.4342 O   0  0  0  0  0  0  0  0  0  0  0  0
   -0.9893  -52.6207  -17.2272 C   0  0  0  0  0  0  0  0  0  0  0  0
   -0.5968  -51.0890  -16.5587 C   0  0  0  0  0  0  0  0  0  0  0  0
   -1.6550  -51.5882  -14.0442 C   0  0  0  0  0  0  0  0  0  0  0  0
   -2.6155  -51.5223  -13.4995 O   0  0  0  0  0  0  0  0  0  0  0  0
   -1.1053  -51.3323  -15.3374 N   0  0  0  0  0  0  0  0  0  0  0  0
   -2.2922  -50.8663  -15.8759 H   0  0  0  0  0  0  0  0  0  0  0  0
   -0.3657  -52.1452  -13.2586 C   0  0  0  0  0  0  0  0  0  0  0  0
    0.6435  -51.1281  -13.0671 C   0  0  0  0  0  0  0  0  0  0  0  0
    2.0280  -51.6792  -12.9058 C   0  0  0  0  0  0  0  0  0  0  0  0
    2.6705  -50.5973  -14.8710 C   0  0  0  0  0  0  0  0  0  0  0  0
    2.5930  -51.9180  -14.2226 N   0  0  0  0  0  0  0  0  0  0  0  0
    3.9571  -52.4344  -14.2091 C   0  0  0  0  0  0  0  0  0  0  0  0
 38 39  1  0  0  0
 39 40  1  0  0  0
 39 37  1  0  0  0
 37 36  1  0  0  0
 36 35  1  0  0  0
 35 31  1  0  0  0
 31 32  2  0  0  0
 31 33  1  0  0  0
 33 30  1  0  0  0
 30 29  1  0  0  0
 29 28  1  0  0  0
 28  1  1  0  0  0
  1  2  2  0  0  0
  2  3  1  0  0  0
  3  4  2  0  0  0
  4  5  1  0  0  0
  5  6  2  0  0  0
  6  7  1  0  0  0
  7 17  1  0  0  0
 17 19  1  0  0  0
 19 20  2  0  0  0
 20 21  1  0  0  0
 21 22  2  0  0  0
 22 23  1  0  0  0
 22 24  1  0  0  0
 24 25  1  0  0  0
 24 26  2  0  0  0
 26 27  1  0  0  0
  7  8  2  0  0  0
  8  9  1  0  0  0
  9 10  2  0  0  0
 10 11  1  0  0  0
 11 12  1  0  0  0
 12 13  2  0  0  0
 12 15  1  0  0  0
 15 16  2  0  0  0
 10  1  1  0  0  0
  8  3  1  0  0  0
 26 19  1  0  0  0
 33 34  1  0  0  0
 17 18  1  0  0  0
 11 14  1  0  0  0
M  END
> <minimizedAffinity>
-7.75028

> <CNNscore>
0.5281615853

> <CNNaffinity>
7.4021468163

> <CNN_VS>
3.9095296860

> <CNNaffinity_variance>
0.1189630851

$$$$
[H]C([H])=C([H])C(=O)N([H])c1c(OC([H])([H])C([H])([H])N([H])C(=O)C([H])([H])C([H])([H])C([H])([H])N(C([H])([H])[H])C([H])([H])[H])c([H])c2nc([H])nc(N([H])c3c([H])c([H])c(Br)c(Cl)c3F)c2c1[H]


 40 42  0  0  0  0  0  0  0  0999 V2000
   -0.2415  -52.2417  -20.0116 C   0  0  0  0  0  0  0  0  0  0  0  0
   -0.7942  -53.4202  -20.3672 C   0  0  0  0  0  0  0  0  0  0  0  0
   -0.8029  -53.8704  -21.7141 C   0  0  0  0  0  0  0  0  0  0  0  0
   -1.3312  -54.9693  -22.1701 N   0  0  0  0  0  0  0  0  0  0  0  0
   -1.3153  -55.2369  -23.5228 C   0  0  0  0  0  0  0  0  0  0  0  0
   -0.7689  -54.3739  -24.3667 N   0  0  0  0  0  0  0  0  0  0  0  0
   -0.1855  -53.2563  -23.9996 C   0  0  0  0  0  0  0  0  0  0  0  0
   -0.1943  -52.9848  -22.6406 C   0  0  0  0  0  0  0  0  0  0  0  0
    0.3541  -51.7965  -22.2103 C   0  0  0  0  0  0  0  0  0  0  0  0
    0.3409  -51.4089  -20.8653 C   0  0  0  0  0  0  0  0  0  0  0  0
    0.9195  -50.0281  -20.7629 N   0  0  0  0  0  0  0  0  0  0  0  0
    2.3563  -50.0688  -20.8262 C   0  0  0  0  0  0  0  0  0  0  0  0
    2.9788  -51.0943  -20.3046 O   0  0  0  0  0  0  0  0  0  0  0  0
    0.3849  -49.1863  -20.5706 H   0  0  0  0  0  0  0  0  0  0  0  0
    3.1718  -49.0244  -21.4682 C   0  0  0  0  0  0  0  0  0  0  0  0
    2.4727  -48.2710  -22.3471 C   0  0  0  0  0  0  0  0  0  0  0  0
    0.6010  -52.3931  -24.7696 N   0  0  0  0  0  0  0  0  0  0  0  0
    0.0128  -51.4267  -25.1536 H   0  0  0  0  0  0  0  0  0  0  0  0
    1.9489  -52.1640  -24.9048 C   0  0  0  0  0  0  0  0  0  0  0  0
    2.8492  -53.0897  -24.4612 C   0  0  0  0  0  0  0  0  0  0  0  0
    4.2093  -52.6637  -24.3024 C   0  0  0  0  0  0  0  0  0  0  0  0
    4.5537  -51.4491  -24.5835 C   0  0  0  0  0  0  0  0  0  0  0  0
    6.3178  -50.8077  -23.9413 Br  0  0  0  0  0  0  0  0  0  0  0  0
    3.6927  -50.5162  -25.0468 C   0  0  0  0  0  0  0  0  0  0  0  0
    4.2078  -48.9339  -25.5460 Cl  0  0  0  0  0  0  0  0  0  0  0  0
    2.3511  -50.8800  -25.2021 C   0  0  0  0  0  0  0  0  0  0  0  0
    1.4779  -50.0986  -25.8170 F   0  0  0  0  0  0  0  0  0  0  0  0
   -0.1131  -51.6465  -18.8730 O   0  0  0  0  0  0  0  0  0  0  0  0
   -0.1516  -51.5919  -17.5999 C   0  0  0  0  0  0  0  0  0  0  0  0
    0.4690  -50.0323  -17.2400 C   0  0  0  0  0  0  0  0  0  0  0  0
    3.0261  -50.8818  -16.5830 C   0  0  0  0  0  0  0  0  0  0  0  0
    3.9287  -51.3055  -17.0619 O   0  0  0  0  0  0  0  0  0  0  0  0
    1.7082  -50.4435  -16.9164 N   0  0  0  0  0  0  0  0  0  0  0  0
    1.8247  -50.7448  -18.2623 H   0  0  0  0  0  0  0  0  0  0  0  0
    3.0594  -50.6025  -14.9985 C   0  0  0  0  0  0  0  0  0  0  0  0
    3.3551  -49.2216  -14.6895 C   0  0  0  0  0  0  0  0  0  0  0  0
    4.3697  -49.0546  -13.5990 C   0  0  0  0  0  0  0  0  0  0  0  0
    4.5903  -47.2101  -15.0113 C   0  0  0  0  0  0  0  0  0  0  0  0
    4.9040  -47.7052  -13.6595 N   0  0  0  0  0  0  0  0  0  0  0  0
    4.2762  -46.7659  -12.7369 C   0  0  0  0  0  0  0  0  0  0  0  0
 38 39  1  0  0  0
 39 40  1  0  0  0
 39 37  1  0  0  0
 37 36  1  0  0  0
 36 35  1  0  0  0
 35 31  1  0  0  0
 31 32  2  0  0  0
 31 33  1  0  0  0
 33 30  1  0  0  0
 30 29  1  0  0  0
 29 28  1  0  0  0
 28  1  1  0  0  0
  1  2  2  0  0  0
  2  3  1  0  0  0
  3  4  2  0  0  0
  4  5  1  0  0  0
  5  6  2  0  0  0
  6  7  1  0  0  0
  7 17  1  0  0  0
 17 19  1  0  0  0
 19 20  2  0  0  0
 20 21  1  0  0  0
 21 22  2  0  0  0
 22 23  1  0  0  0
 22 24  1  0  0  0
 24 25  1  0  0  0
 24 26  2  0  0  0
 26 27  1  0  0  0
  7  8  2  0  0  0
  8  9  1  0  0  0
  9 10  2  0  0  0
 10 11  1  0  0  0
 11 12  1  0  0  0
 12 13  2  0  0  0
 12 15  1  0  0  0
 15 16  2  0  0  0
 10  1  1  0  0  0
  8  3  1  0  0  0
 26 19  1  0  0  0
 33 34  1  0  0  0
 17 18  1  0  0  0
 11 14  1  0  0  0
M  END
> <minimizedAffinity>
-7.58890

> <CNNscore>
0.5182082653

> <CNNaffinity>
7.3547186852

> <CNN_VS>
3.8112759590

> <CNNaffinity_variance>
0.0552732758

$$$$
[H]/C(C(=O)N([H])c1c(OC([H])([H])[H])c([H])c2nc([H])nc(N([H])c3c([H])c([H])c(F)c(Cl)c3[H])c2c1[H])=C(/[H])C([H])([H])N([H])C1([H])C([H])([H])C1([H])[H]


 34 37  0  0  0  0  0  0  0  0999 V2000
   -0.2461  -52.6727  -19.7200 C   0  0  0  0  0  0  0  0  0  0  0  0
   -0.9627  -53.7316  -20.1950 C   0  0  0  0  0  0  0  0  0  0  0  0
   -0.9444  -54.0431  -21.5308 C   0  0  0  0  0  0  0  0  0  0  0  0
   -1.6243  -55.0617  -22.0527 N   0  0  0  0  0  0  0  0  0  0  0  0
   -1.5822  -55.3332  -23.3673 C   0  0  0  0  0  0  0  0  0  0  0  0
   -0.8575  -54.5955  -24.2116 N   0  0  0  0  0  0  0  0  0  0  0  0
   -0.1357  -53.5363  -23.7457 C   0  0  0  0  0  0  0  0  0  0  0  0
   -0.1786  -53.2550  -22.3905 C   0  0  0  0  0  0  0  0  0  0  0  0
    0.5415  -52.1858  -21.8942 C   0  0  0  0  0  0  0  0  0  0  0  0
    0.5416  -51.8508  -20.5603 C   0  0  0  0  0  0  0  0  0  0  0  0
    1.2511  -50.7763  -19.9821 N   0  0  0  0  0  0  0  0  0  0  0  0
    2.5305  -50.8223  -19.4670 C   0  0  0  0  0  0  0  0  0  0  0  0
    3.2749  -51.8127  -19.4248 O   0  0  0  0  0  0  0  0  0  0  0  0
    0.7457  -49.8356  -19.9408 H   0  0  0  0  0  0  0  0  0  0  0  0
    3.1235  -49.5774  -18.8898 C   0  0  0  0  0  0  0  0  0  0  0  0
    2.9877  -48.4056  -19.4822 C   0  0  0  0  0  0  0  0  0  0  0  0
    3.5734  -47.1935  -18.9080 C   0  0  0  0  0  0  0  0  0  0  0  0
    3.7958  -46.1592  -19.9171 N   0  0  0  0  0  0  0  0  0  0  0  0
    2.9498  -45.5458  -20.0001 H   0  0  0  0  0  0  0  0  0  0  0  0
    4.0229  -46.7499  -21.2213 C   0  0  0  0  0  0  0  0  0  0  0  0
    4.8084  -45.9160  -22.1859 C   0  0  0  0  0  0  0  0  0  0  0  0
    3.3612  -46.1278  -22.4215 C   0  0  0  0  0  0  0  0  0  0  0  0
   -1.2176  -52.5887  -17.4261 C   0  0  0  0  0  0  0  0  0  0  0  0
   -0.2612  -52.3581  -18.3902 O   0  0  0  0  0  0  0  0  0  0  0  0
    0.6565  -52.7921  -24.6152 N   0  0  0  0  0  0  0  0  0  0  0  0
    1.4434  -52.1498  -24.3506 H   0  0  0  0  0  0  0  0  0  0  0  0
    0.4481  -52.8508  -26.0353 C   0  0  0  0  0  0  0  0  0  0  0  0
    1.4339  -53.0036  -26.9656 C   0  0  0  0  0  0  0  0  0  0  0  0
    1.1656  -53.0164  -28.3347 C   0  0  0  0  0  0  0  0  0  0  0  0
   -0.1156  -52.8751  -28.7966 C   0  0  0  0  0  0  0  0  0  0  0  0
   -0.4150  -52.8829  -30.1275 F   0  0  0  0  0  0  0  0  0  0  0  0
   -1.1284  -52.7204  -27.8788 C   0  0  0  0  0  0  0  0  0  0  0  0
   -2.7726  -52.5393  -28.4823 Cl  0  0  0  0  0  0  0  0  0  0  0  0
   -0.8585  -52.7080  -26.5308 C   0  0  0  0  0  0  0  0  0  0  0  0
 23 24  1  0  0  0
 24  1  1  0  0  0
  1  2  2  0  0  0
  2  3  1  0  0  0
  3  4  2  0  0  0
  4  5  1  0  0  0
  5  6  2  0  0  0
  6  7  1  0  0  0
  7 25  1  0  0  0
 25 27  1  0  0  0
 27 28  2  0  0  0
 28 29  1  0  0  0
 29 30  2  0  0  0
 30 31  1  0  0  0
 30 32  1  0  0  0
 32 33  1  0  0  0
 32 34  2  0  0  0
  7  8  2  0  0  0
  8  9  1  0  0  0
  9 10  2  0  0  0
 10 11  1  0  0  0
 11 12  1  0  0  0
 12 13  2  0  0  0
 12 15  1  0  0  0
 15 16  2  0  0  0
 16 17  1  0  0  0
 17 18  1  0  0  0
 18 20  1  0  0  0
 20 21  1  0  0  0
 21 22  1  0  0  0
 10  1  1  0  0  0
 22 20  1  0  0  0
  8  3  1  0  0  0
 34 27  1  0  0  0
 25 26  1  0  0  0
 11 14  1  0  0  0
 18 19  1  0  0  0
M  END
> <minimizedAffinity>
-8.16451

> <CNNscore>
0.9807155132

> <CNNaffinity>
7.9121704102

> <CNN_VS>
7.7595882416

> <CNNaffinity_variance>
0.1733448803

$$$$
[H]/C(C(=O)N([H])c1c(OC([H])([H])[H])c([H])c2nc([H])nc(N([H])c3c([H])c([H])c(F)c(Cl)c3[H])c2c1[H])=C(/[H])C([H])([H])N([H])C1([H])C([H])([H])C1([H])[H]


 34 37  0  0  0  0  0  0  0  0999 V2000
   -0.0334  -52.2941  -19.5552 C   0  0  0  0  0  0  0  0  0  0  0  0
   -0.8226  -53.3306  -19.9592 C   0  0  0  0  0  0  0  0  0  0  0  0
   -0.8272  -53.7339  -21.2702 C   0  0  0  0  0  0  0  0  0  0  0  0
   -1.5770  -54.7362  -21.7235 N   0  0  0  0  0  0  0  0  0  0  0  0
   -1.5550  -55.0999  -23.0162 C   0  0  0  0  0  0  0  0  0  0  0  0
   -0.7813  -54.4745  -23.9063 N   0  0  0  0  0  0  0  0  0  0  0  0
    0.0131  -53.4386  -23.5115 C   0  0  0  0  0  0  0  0  0  0  0  0
   -0.0089  -53.0623  -22.1790 C   0  0  0  0  0  0  0  0  0  0  0  0
    0.7845  -52.0143  -21.7546 C   0  0  0  0  0  0  0  0  0  0  0  0
    0.8091  -51.5890  -20.4469 C   0  0  0  0  0  0  0  0  0  0  0  0
    1.5924  -50.5293  -19.9412 N   0  0  0  0  0  0  0  0  0  0  0  0
    1.4696  -49.1933  -20.2643 C   0  0  0  0  0  0  0  0  0  0  0  0
    0.6514  -48.6957  -21.0515 O   0  0  0  0  0  0  0  0  0  0  0  0
    2.3545  -50.7898  -19.2388 H   0  0  0  0  0  0  0  0  0  0  0  0
    2.3940  -48.2066  -19.6267 C   0  0  0  0  0  0  0  0  0  0  0  0
    2.7786  -48.3288  -18.3699 C   0  0  0  0  0  0  0  0  0  0  0  0
    3.6835  -47.3559  -17.7561 C   0  0  0  0  0  0  0  0  0  0  0  0
    5.0595  -47.8465  -17.6965 N   0  0  0  0  0  0  0  0  0  0  0  0
    5.2732  -48.2112  -16.7373 H   0  0  0  0  0  0  0  0  0  0  0  0
    6.0013  -46.7777  -17.9650 C   0  0  0  0  0  0  0  0  0  0  0  0
    5.8837  -46.1288  -19.3097 C   0  0  0  0  0  0  0  0  0  0  0  0
    7.0537  -46.9900  -19.0199 C   0  0  0  0  0  0  0  0  0  0  0  0
   -0.8228  -52.2622  -17.1912 C   0  0  0  0  0  0  0  0  0  0  0  0
   -0.0254  -51.8883  -18.2503 O   0  0  0  0  0  0  0  0  0  0  0  0
    0.8547  -52.8131  -24.4269 N   0  0  0  0  0  0  0  0  0  0  0  0
    1.7342  -52.2837  -24.2084 H   0  0  0  0  0  0  0  0  0  0  0  0
    0.5688  -52.8480  -25.8343 C   0  0  0  0  0  0  0  0  0  0  0  0
    1.4990  -53.0124  -26.8183 C   0  0  0  0  0  0  0  0  0  0  0  0
    1.1573  -53.0006  -28.1710 C   0  0  0  0  0  0  0  0  0  0  0  0
   -0.1430  -52.8220  -28.5612 C   0  0  0  0  0  0  0  0  0  0  0  0
   -0.5136  -52.8049  -29.8739 F   0  0  0  0  0  0  0  0  0  0  0  0
   -1.1009  -52.6549  -27.5882 C   0  0  0  0  0  0  0  0  0  0  0  0
   -2.7700  -52.4259  -28.0997 Cl  0  0  0  0  0  0  0  0  0  0  0  0
   -0.7586  -52.6669  -26.2567 C   0  0  0  0  0  0  0  0  0  0  0  0
 23 24  1  0  0  0
 24  1  1  0  0  0
  1  2  2  0  0  0
  2  3  1  0  0  0
  3  4  2  0  0  0
  4  5  1  0  0  0
  5  6  2  0  0  0
  6  7  1  0  0  0
  7 25  1  0  0  0
 25 27  1  0  0  0
 27 28  2  0  0  0
 28 29  1  0  0  0
 29 30  2  0  0  0
 30 31  1  0  0  0
 30 32  1  0  0  0
 32 33  1  0  0  0
 32 34  2  0  0  0
  7  8  2  0  0  0
  8  9  1  0  0  0
  9 10  2  0  0  0
 10 11  1  0  0  0
 11 12  1  0  0  0
 12 13  2  0  0  0
 12 15  1  0  0  0
 15 16  2  0  0  0
 16 17  1  0  0  0
 17 18  1  0  0  0
 18 20  1  0  0  0
 20 21  1  0  0  0
 21 22  1  0  0  0
 10  1  1  0  0  0
 22 20  1  0  0  0
  8  3  1  0  0  0
 34 27  1  0  0  0
 25 26  1  0  0  0
 11 14  1  0  0  0
 18 19  1  0  0  0
M  END
> <minimizedAffinity>
-7.99982

> <CNNscore>
0.9757483602

> <CNNaffinity>
7.6436324120

> <CNN_VS>
7.4582619667

> <CNNaffinity_variance>
0.1009943336

$$$$
[H]/C(C(=O)N([H])c1c(OC([H])([H])[H])c([H])c2nc([H])nc(N([H])c3c([H])c([H])c(F)c(Cl)c3[H])c2c1[H])=C(/[H])C([H])([H])N([H])C1([H])C([H])([H])C1([H])[H]


 34 37  0  0  0  0  0  0  0  0999 V2000
   -0.2455  -52.3764  -19.5831 C   0  0  0  0  0  0  0  0  0  0  0  0
   -0.9532  -53.4589  -20.0164 C   0  0  0  0  0  0  0  0  0  0  0  0
   -0.9106  -53.8382  -21.3339 C   0  0  0  0  0  0  0  0  0  0  0  0
   -1.5807  -54.8829  -21.8154 N   0  0  0  0  0  0  0  0  0  0  0  0
   -1.5148  -55.2210  -23.1134 C   0  0  0  0  0  0  0  0  0  0  0  0
   -0.7751  -54.5266  -23.9810 N   0  0  0  0  0  0  0  0  0  0  0  0
   -0.0620  -53.4442  -23.5569 C   0  0  0  0  0  0  0  0  0  0  0  0
   -0.1295  -53.0941  -22.2187 C   0  0  0  0  0  0  0  0  0  0  0  0
    0.5813  -52.0003  -21.7647 C   0  0  0  0  0  0  0  0  0  0  0  0
    0.5571  -51.5976  -20.4499 C   0  0  0  0  0  0  0  0  0  0  0  0
    1.2558  -50.4942  -19.9146 N   0  0  0  0  0  0  0  0  0  0  0  0
    2.5079  -50.5205  -19.3348 C   0  0  0  0  0  0  0  0  0  0  0  0
    3.2325  -51.5152  -19.1860 O   0  0  0  0  0  0  0  0  0  0  0  0
    0.7650  -49.5463  -19.9648 H   0  0  0  0  0  0  0  0  0  0  0  0
    3.0931  -49.2456  -18.8183 C   0  0  0  0  0  0  0  0  0  0  0  0
    2.8707  -48.0891  -19.4144 C   0  0  0  0  0  0  0  0  0  0  0  0
    3.4498  -46.8473  -18.8999 C   0  0  0  0  0  0  0  0  0  0  0  0
    2.7673  -46.3809  -17.6940 N   0  0  0  0  0  0  0  0  0  0  0  0
    2.1643  -45.5526  -17.9161 H   0  0  0  0  0  0  0  0  0  0  0  0
    3.7233  -45.9547  -16.6911 C   0  0  0  0  0  0  0  0  0  0  0  0
    4.6653  -47.0101  -16.1995 C   0  0  0  0  0  0  0  0  0  0  0  0
    3.6032  -46.5085  -15.2968 C   0  0  0  0  0  0  0  0  0  0  0  0
   -1.0069  -52.4994  -17.2129 C   0  0  0  0  0  0  0  0  0  0  0  0
   -0.2848  -51.9944  -18.2716 O   0  0  0  0  0  0  0  0  0  0  0  0
    0.7457  -52.7444  -24.4487 N   0  0  0  0  0  0  0  0  0  0  0  0
    1.5682  -52.1393  -24.2059 H   0  0  0  0  0  0  0  0  0  0  0  0
    0.5034  -52.8018  -25.8635 C   0  0  0  0  0  0  0  0  0  0  0  0
    1.4645  -52.9734  -26.8161 C   0  0  0  0  0  0  0  0  0  0  0  0
    1.1644  -52.9838  -28.1786 C   0  0  0  0  0  0  0  0  0  0  0  0
   -0.1245  -52.8206  -28.6109 C   0  0  0  0  0  0  0  0  0  0  0  0
   -0.4548  -52.8252  -29.9345 F   0  0  0  0  0  0  0  0  0  0  0  0
   -1.1130  -52.6465  -27.6703 C   0  0  0  0  0  0  0  0  0  0  0  0
   -2.7672  -52.4374  -28.2359 Cl  0  0  0  0  0  0  0  0  0  0  0  0
   -0.8117  -52.6367  -26.3289 C   0  0  0  0  0  0  0  0  0  0  0  0
 23 24  1  0  0  0
 24  1  1  0  0  0
  1  2  2  0  0  0
  2  3  1  0  0  0
  3  4  2  0  0  0
  4  5  1  0  0  0
  5  6  2  0  0  0
  6  7  1  0  0  0
  7 25  1  0  0  0
 25 27  1  0  0  0
 27 28  2  0  0  0
 28 29  1  0  0  0
 29 30  2  0  0  0
 30 31  1  0  0  0
 30 32  1  0  0  0
 32 33  1  0  0  0
 32 34  2  0  0  0
  7  8  2  0  0  0
  8  9  1  0  0  0
  9 10  2  0  0  0
 10 11  1  0  0  0
 11 12  1  0  0  0
 12 13  2  0  0  0
 12 15  1  0  0  0
 15 16  2  0  0  0
 16 17  1  0  0  0
 17 18  1  0  0  0
 18 20  1  0  0  0
 20 21  1  0  0  0
 21 22  1  0  0  0
 10  1  1  0  0  0
 22 20  1  0  0  0
  8  3  1  0  0  0
 34 27  1  0  0  0
 25 26  1  0  0  0
 11 14  1  0  0  0
 18 19  1  0  0  0
M  END
> <minimizedAffinity>
-8.13587

> <CNNscore>
0.9721153975

> <CNNaffinity>
7.7146272659

> <CNN_VS>
7.4995079041

> <CNNaffinity_variance>
0.2198395729

$$$$
[H]/C(C(=O)N([H])c1c(OC([H])([H])[H])c([H])c2nc([H])nc(N([H])c3c([H])c([H])c(F)c(Cl)c3[H])c2c1[H])=C(/[H])C([H])([H])N([H])C1([H])C([H])([H])C1([H])[H]


 34 37  0  0  0  0  0  0  0  0999 V2000
    0.4304  -52.8652  -26.6620 C   0  0  0  0  0  0  0  0  0  0  0  0
   -0.2929  -53.8979  -26.1417 C   0  0  0  0  0  0  0  0  0  0  0  0
   -0.4335  -54.0368  -24.7843 C   0  0  0  0  0  0  0  0  0  0  0  0
   -1.1246  -55.0240  -24.2187 N   0  0  0  0  0  0  0  0  0  0  0  0
   -1.2371  -55.1268  -22.8843 C   0  0  0  0  0  0  0  0  0  0  0  0
   -0.6623  -54.2450  -22.0633 N   0  0  0  0  0  0  0  0  0  0  0  0
    0.0609  -53.2076  -22.5741 C   0  0  0  0  0  0  0  0  0  0  0  0
    0.1781  -53.1007  -23.9498 C   0  0  0  0  0  0  0  0  0  0  0  0
    0.9076  -52.0606  -24.4919 C   0  0  0  0  0  0  0  0  0  0  0  0
    1.0650  -51.8970  -25.8484 C   0  0  0  0  0  0  0  0  0  0  0  0
    1.7930  -50.8617  -26.4731 N   0  0  0  0  0  0  0  0  0  0  0  0
    3.0716  -50.4518  -26.1545 C   0  0  0  0  0  0  0  0  0  0  0  0
    3.7989  -50.9224  -25.2678 O   0  0  0  0  0  0  0  0  0  0  0  0
    1.3037  -50.3463  -27.2712 H   0  0  0  0  0  0  0  0  0  0  0  0
    3.6860  -49.3302  -26.9284 C   0  0  0  0  0  0  0  0  0  0  0  0
    4.6478  -48.5824  -26.4203 C   0  0  0  0  0  0  0  0  0  0  0  0
    5.2413  -47.4863  -27.1874 C   0  0  0  0  0  0  0  0  0  0  0  0
    5.6243  -46.3626  -26.3342 N   0  0  0  0  0  0  0  0  0  0  0  0
    6.4696  -46.6105  -25.7660 H   0  0  0  0  0  0  0  0  0  0  0  0
    4.5641  -46.0378  -25.4004 C   0  0  0  0  0  0  0  0  0  0  0  0
    3.4620  -45.1791  -25.9397 C   0  0  0  0  0  0  0  0  0  0  0  0
    4.4083  -44.6093  -24.9525 C   0  0  0  0  0  0  0  0  0  0  0  0
   -0.3158  -52.9596  -29.0383 C   0  0  0  0  0  0  0  0  0  0  0  0
    0.5736  -52.7227  -28.0136 O   0  0  0  0  0  0  0  0  0  0  0  0
    0.6241  -52.2607  -21.7235 N   0  0  0  0  0  0  0  0  0  0  0  0
    1.3506  -51.5463  -21.9755 H   0  0  0  0  0  0  0  0  0  0  0  0
    0.2275  -52.1795  -20.3451 C   0  0  0  0  0  0  0  0  0  0  0  0
   -0.5532  -53.0933  -19.7001 C   0  0  0  0  0  0  0  0  0  0  0  0
   -0.9320  -52.9350  -18.3666 C   0  0  0  0  0  0  0  0  0  0  0  0
   -0.5253  -51.8412  -17.6504 C   0  0  0  0  0  0  0  0  0  0  0  0
   -0.8761  -51.6535  -16.3455 F   0  0  0  0  0  0  0  0  0  0  0  0
    0.2637  -50.9051  -18.2774 C   0  0  0  0  0  0  0  0  0  0  0  0
    0.7816  -49.5019  -17.3483 Cl  0  0  0  0  0  0  0  0  0  0  0  0
    0.6337  -51.0657  -19.5918 C   0  0  0  0  0  0  0  0  0  0  0  0
 23 24  1  0  0  0
 24  1  1  0  0  0
  1  2  2  0  0  0
  2  3  1  0  0  0
  3  4  2  0  0  0
  4  5  1  0  0  0
  5  6  2  0  0  0
  6  7  1  0  0  0
  7 25  1  0  0  0
 25 27  1  0  0  0
 27 28  2  0  0  0
 28 29  1  0  0  0
 29 30  2  0  0  0
 30 31  1  0  0  0
 30 32  1  0  0  0
 32 33  1  0  0  0
 32 34  2  0  0  0
  7  8  2  0  0  0
  8  9  1  0  0  0
  9 10  2  0  0  0
 10 11  1  0  0  0
 11 12  1  0  0  0
 12 13  2  0  0  0
 12 15  1  0  0  0
 15 16  2  0  0  0
 16 17  1  0  0  0
 17 18  1  0  0  0
 18 20  1  0  0  0
 20 21  1  0  0  0
 21 22  1  0  0  0
 10  1  1  0  0  0
 22 20  1  0  0  0
  8  3  1  0  0  0
 34 27  1  0  0  0
 25 26  1  0  0  0
 11 14  1  0  0  0
 18 19  1  0  0  0
M  END
> <minimizedAffinity>
-7.13306

> <CNNscore>
0.5376699567

> <CNNaffinity>
7.2103209496

> <CNN_VS>
3.8767728806

> <CNNaffinity_variance>
0.3259108365

$$$$
[H]/C(C(=O)N([H])c1c(OC([H])([H])[H])c([H])c2nc([H])nc(N([H])c3c([H])c([H])c(F)c(Cl)c3[H])c2c1[H])=C(/[H])C([H])([H])N([H])C1([H])C([H])([H])C1([H])[H]


 34 37  0  0  0  0  0  0  0  0999 V2000
    0.6798  -52.6992  -26.2064 C   0  0  0  0  0  0  0  0  0  0  0  0
   -0.0134  -53.7844  -25.7568 C   0  0  0  0  0  0  0  0  0  0  0  0
   -0.3617  -53.8906  -24.4343 C   0  0  0  0  0  0  0  0  0  0  0  0
   -1.0352  -54.9257  -23.9371 N   0  0  0  0  0  0  0  0  0  0  0  0
   -1.3557  -54.9938  -22.6347 C   0  0  0  0  0  0  0  0  0  0  0  0
   -1.0147  -54.0282  -21.7783 N   0  0  0  0  0  0  0  0  0  0  0  0
   -0.3237  -52.9380  -22.2189 C   0  0  0  0  0  0  0  0  0  0  0  0
    0.0079  -52.8667  -23.5615 C   0  0  0  0  0  0  0  0  0  0  0  0
    0.7099  -51.7742  -24.0321 C   0  0  0  0  0  0  0  0  0  0  0  0
    1.0721  -51.6416  -25.3522 C   0  0  0  0  0  0  0  0  0  0  0  0
    1.7868  -50.5569  -25.9041 N   0  0  0  0  0  0  0  0  0  0  0  0
    3.1230  -50.2722  -25.7091 C   0  0  0  0  0  0  0  0  0  0  0  0
    3.9232  -50.9196  -25.0182 O   0  0  0  0  0  0  0  0  0  0  0  0
    1.2369  -49.8923  -26.5350 H   0  0  0  0  0  0  0  0  0  0  0  0
    3.7123  -49.0720  -26.3775 C   0  0  0  0  0  0  0  0  0  0  0  0
    4.0047  -49.0689  -27.6648 C   0  0  0  0  0  0  0  0  0  0  0  0
    4.5821  -47.8879  -28.3081 C   0  0  0  0  0  0  0  0  0  0  0  0
    3.8586  -47.5145  -29.5225 N   0  0  0  0  0  0  0  0  0  0  0  0
    4.4862  -47.5965  -30.3581 H   0  0  0  0  0  0  0  0  0  0  0  0
    3.4154  -46.1358  -29.4567 C   0  0  0  0  0  0  0  0  0  0  0  0
    2.3157  -45.8513  -28.4807 C   0  0  0  0  0  0  0  0  0  0  0  0
    2.0278  -45.7994  -29.9330 C   0  0  0  0  0  0  0  0  0  0  0  0
    1.1519  -53.5512  -28.5007 C   0  0  0  0  0  0  0  0  0  0  0  0
    1.0293  -52.5888  -27.5229 O   0  0  0  0  0  0  0  0  0  0  0  0
   -0.0054  -51.9079  -21.3385 N   0  0  0  0  0  0  0  0  0  0  0  0
    0.4095  -50.9768  -21.5884 H   0  0  0  0  0  0  0  0  0  0  0  0
   -0.2377  -52.0460  -19.9276 C   0  0  0  0  0  0  0  0  0  0  0  0
   -1.0150  -53.0082  -19.3527 C   0  0  0  0  0  0  0  0  0  0  0  0
   -1.2281  -53.0638  -17.9749 C   0  0  0  0  0  0  0  0  0  0  0  0
   -0.6545  -52.1409  -17.1419 C   0  0  0  0  0  0  0  0  0  0  0  0
   -0.8407  -52.1643  -15.7907 F   0  0  0  0  0  0  0  0  0  0  0  0
    0.1349  -51.1603  -17.6965 C   0  0  0  0  0  0  0  0  0  0  0  0
    0.8681  -49.9780  -16.6173 Cl  0  0  0  0  0  0  0  0  0  0  0  0
    0.3412  -51.1099  -19.0549 C   0  0  0  0  0  0  0  0  0  0  0  0
 23 24  1  0  0  0
 24  1  1  0  0  0
  1  2  2  0  0  0
  2  3  1  0  0  0
  3  4  2  0  0  0
  4  5  1  0  0  0
  5  6  2  0  0  0
  6  7  1  0  0  0
  7 25  1  0  0  0
 25 27  1  0  0  0
 27 28  2  0  0  0
 28 29  1  0  0  0
 29 30  2  0  0  0
 30 31  1  0  0  0
 30 32  1  0  0  0
 32 33  1  0  0  0
 32 34  2  0  0  0
  7  8  2  0  0  0
  8  9  1  0  0  0
  9 10  2  0  0  0
 10 11  1  0  0  0
 11 12  1  0  0  0
 12 13  2  0  0  0
 12 15  1  0  0  0
 15 16  2  0  0  0
 16 17  1  0  0  0
 17 18  1  0  0  0
 18 20  1  0  0  0
 20 21  1  0  0  0
 21 22  1  0  0  0
 10  1  1  0  0  0
 22 20  1  0  0  0
  8  3  1  0  0  0
 34 27  1  0  0  0
 25 26  1  0  0  0
 11 14  1  0  0  0
 18 19  1  0  0  0
M  END
> <minimizedAffinity>
-7.63396

> <CNNscore>
0.3864265084

> <CNNaffinity>
7.0276618004

> <CNN_VS>
2.7156748772

> <CNNaffinity_variance>
0.2862927020

$$$$
[H]/C(C(=O)N([H])c1c(OC([H])([H])[H])c([H])c2nc([H])nc(N([H])c3c([H])c([H])c(F)c(Cl)c3[H])c2c1[H])=C(/[H])C([H])([H])N([H])C1([H])C([H])([H])C1([H])[H]


 34 37  0  0  0  0  0  0  0  0999 V2000
    0.0182  -52.4733  -25.2245 C   0  0  0  0  0  0  0  0  0  0  0  0
   -0.7128  -53.3639  -24.4944 C   0  0  0  0  0  0  0  0  0  0  0  0
   -0.4852  -53.5170  -23.1504 C   0  0  0  0  0  0  0  0  0  0  0  0
   -1.1642  -54.3706  -22.3872 N   0  0  0  0  0  0  0  0  0  0  0  0
   -0.9099  -54.4930  -21.0742 C   0  0  0  0  0  0  0  0  0  0  0  0
    0.0342  -53.7653  -20.4731 N   0  0  0  0  0  0  0  0  0  0  0  0
    0.7686  -52.8705  -21.1942 C   0  0  0  0  0  0  0  0  0  0  0  0
    0.5078  -52.7436  -22.5483 C   0  0  0  0  0  0  0  0  0  0  0  0
    1.2397  -51.8462  -23.3012 C   0  0  0  0  0  0  0  0  0  0  0  0
    1.0330  -51.6722  -24.6497 C   0  0  0  0  0  0  0  0  0  0  0  0
    1.7391  -50.7765  -25.4812 N   0  0  0  0  0  0  0  0  0  0  0  0
    2.9190  -51.0354  -26.1485 C   0  0  0  0  0  0  0  0  0  0  0  0
    3.5590  -52.0968  -26.1331 O   0  0  0  0  0  0  0  0  0  0  0  0
    1.3161  -49.8030  -25.6049 H   0  0  0  0  0  0  0  0  0  0  0  0
    3.5268  -49.9583  -26.9883 C   0  0  0  0  0  0  0  0  0  0  0  0
    3.7597  -48.7517  -26.5062 C   0  0  0  0  0  0  0  0  0  0  0  0
    4.3547  -47.7049  -27.3383 C   0  0  0  0  0  0  0  0  0  0  0  0
    3.6482  -47.5442  -28.6081 N   0  0  0  0  0  0  0  0  0  0  0  0
    4.2676  -47.8254  -29.4057 H   0  0  0  0  0  0  0  0  0  0  0  0
    3.2800  -46.1587  -28.8230 C   0  0  0  0  0  0  0  0  0  0  0  0
    1.9663  -45.7363  -28.2410 C   0  0  0  0  0  0  0  0  0  0  0  0
    2.1042  -45.8529  -29.7115 C   0  0  0  0  0  0  0  0  0  0  0  0
   -0.2158  -53.2430  -27.5837 C   0  0  0  0  0  0  0  0  0  0  0  0
   -0.2045  -52.3172  -26.5638 O   0  0  0  0  0  0  0  0  0  0  0  0
    1.7228  -52.0777  -20.5630 N   0  0  0  0  0  0  0  0  0  0  0  0
    2.7530  -52.0594  -20.7631 H   0  0  0  0  0  0  0  0  0  0  0  0
    1.3479  -51.1606  -19.5228 C   0  0  0  0  0  0  0  0  0  0  0  0
    1.8775  -49.9158  -19.3484 C   0  0  0  0  0  0  0  0  0  0  0  0
    1.4933  -49.0878  -18.2931 C   0  0  0  0  0  0  0  0  0  0  0  0
    0.5570  -49.5036  -17.3846 C   0  0  0  0  0  0  0  0  0  0  0  0
    0.1574  -48.7214  -16.3409 F   0  0  0  0  0  0  0  0  0  0  0  0
    0.0066  -50.7548  -17.5386 C   0  0  0  0  0  0  0  0  0  0  0  0
   -1.1964  -51.2806  -16.3654 Cl  0  0  0  0  0  0  0  0  0  0  0  0
    0.3891  -51.5667  -18.5800 C   0  0  0  0  0  0  0  0  0  0  0  0
 23 24  1  0  0  0
 24  1  1  0  0  0
  1  2  2  0  0  0
  2  3  1  0  0  0
  3  4  2  0  0  0
  4  5  1  0  0  0
  5  6  2  0  0  0
  6  7  1  0  0  0
  7 25  1  0  0  0
 25 27  1  0  0  0
 27 28  2  0  0  0
 28 29  1  0  0  0
 29 30  2  0  0  0
 30 31  1  0  0  0
 30 32  1  0  0  0
 32 33  1  0  0  0
 32 34  2  0  0  0
  7  8  2  0  0  0
  8  9  1  0  0  0
  9 10  2  0  0  0
 10 11  1  0  0  0
 11 12  1  0  0  0
 12 13  2  0  0  0
 12 15  1  0  0  0
 15 16  2  0  0  0
 16 17  1  0  0  0
 17 18  1  0  0  0
 18 20  1  0  0  0
 20 21  1  0  0  0
 21 22  1  0  0  0
 10  1  1  0  0  0
 22 20  1  0  0  0
  8  3  1  0  0  0
 34 27  1  0  0  0
 25 26  1  0  0  0
 11 14  1  0  0  0
 18 19  1  0  0  0
M  END
> <minimizedAffinity>
-7.07542

> <CNNscore>
0.3735808730

> <CNNaffinity>
6.8640694618

> <CNN_VS>
2.5642850399

> <CNNaffinity_variance>
0.5470594168

$$$$
[H]/C(C(=O)N([H])c1c(OC([H])([H])[H])c([H])c2nc([H])nc(N([H])c3c([H])c([H])c(F)c(Cl)c3[H])c2c1[H])=C(/[H])C([H])([H])N([H])C1([H])C([H])([H])C1([H])[H]


 34 37  0  0  0  0  0  0  0  0999 V2000
    0.7814  -52.8770  -26.2545 C   0  0  0  0  0  0  0  0  0  0  0  0
    0.1594  -54.0186  -25.8416 C   0  0  0  0  0  0  0  0  0  0  0  0
   -0.3796  -54.1030  -24.5831 C   0  0  0  0  0  0  0  0  0  0  0  0
   -0.9958  -55.1900  -24.1238 N   0  0  0  0  0  0  0  0  0  0  0  0
   -1.5090  -55.2342  -22.8835 C   0  0  0  0  0  0  0  0  0  0  0  0
   -1.4256  -54.1918  -22.0538 N   0  0  0  0  0  0  0  0  0  0  0  0
   -0.8078  -53.0453  -22.4583 C   0  0  0  0  0  0  0  0  0  0  0  0
   -0.2778  -52.9984  -23.7369 C   0  0  0  0  0  0  0  0  0  0  0  0
    0.3553  -51.8495  -24.1695 C   0  0  0  0  0  0  0  0  0  0  0  0
    0.9045  -51.7370  -25.4254 C   0  0  0  0  0  0  0  0  0  0  0  0
    1.5639  -50.5983  -25.9358 N   0  0  0  0  0  0  0  0  0  0  0  0
    2.9060  -50.3031  -25.8086 C   0  0  0  0  0  0  0  0  0  0  0  0
    3.7608  -50.9865  -25.2264 O   0  0  0  0  0  0  0  0  0  0  0  0
    0.9626  -49.8975  -26.4737 H   0  0  0  0  0  0  0  0  0  0  0  0
    3.4306  -49.0426  -26.4172 C   0  0  0  0  0  0  0  0  0  0  0  0
    3.6617  -47.9655  -25.6901 C   0  0  0  0  0  0  0  0  0  0  0  0
    4.1748  -46.7367  -26.2973 C   0  0  0  0  0  0  0  0  0  0  0  0
    3.1189  -45.7495  -26.5167 N   0  0  0  0  0  0  0  0  0  0  0  0
    3.2685  -45.2553  -27.4290 H   0  0  0  0  0  0  0  0  0  0  0  0
    3.1327  -44.7386  -25.4778 C   0  0  0  0  0  0  0  0  0  0  0  0
    3.3979  -45.2350  -24.0899 C   0  0  0  0  0  0  0  0  0  0  0  0
    2.0417  -44.7532  -24.4409 C   0  0  0  0  0  0  0  0  0  0  0  0
    2.5357  -53.2178  -27.9920 C   0  0  0  0  0  0  0  0  0  0  0  0
    1.3202  -52.7879  -27.5072 O   0  0  0  0  0  0  0  0  0  0  0  0
   -0.7581  -51.9407  -21.6128 N   0  0  0  0  0  0  0  0  0  0  0  0
   -1.5515  -51.2938  -21.3809 H   0  0  0  0  0  0  0  0  0  0  0  0
    0.4611  -51.5775  -20.9455 C   0  0  0  0  0  0  0  0  0  0  0  0
    1.3516  -52.4594  -20.4073 C   0  0  0  0  0  0  0  0  0  0  0  0
    2.5015  -52.0372  -19.7394 C   0  0  0  0  0  0  0  0  0  0  0  0
    2.7787  -50.7035  -19.6010 C   0  0  0  0  0  0  0  0  0  0  0  0
    3.8929  -50.2545  -18.9546 F   0  0  0  0  0  0  0  0  0  0  0  0
    1.8969  -49.7932  -20.1357 C   0  0  0  0  0  0  0  0  0  0  0  0
    2.2618  -48.0804  -19.9527 Cl  0  0  0  0  0  0  0  0  0  0  0  0
    0.7650  -50.2146  -20.7926 C   0  0  0  0  0  0  0  0  0  0  0  0
 23 24  1  0  0  0
 24  1  1  0  0  0
  1  2  2  0  0  0
  2  3  1  0  0  0
  3  4  2  0  0  0
  4  5  1  0  0  0
  5  6  2  0  0  0
  6  7  1  0  0  0
  7 25  1  0  0  0
 25 27  1  0  0  0
 27 28  2  0  0  0
 28 29  1  0  0  0
 29 30  2  0  0  0
 30 31  1  0  0  0
 30 32  1  0  0  0
 32 33  1  0  0  0
 32 34  2  0  0  0
  7  8  2  0  0  0
  8  9  1  0  0  0
  9 10  2  0  0  0
 10 11  1  0  0  0
 11 12  1  0  0  0
 12 13  2  0  0  0
 12 15  1  0  0  0
 15 16  2  0  0  0
 16 17  1  0  0  0
 17 18  1  0  0  0
 18 20  1  0  0  0
 20 21  1  0  0  0
 21 22  1  0  0  0
 10  1  1  0  0  0
 22 20  1  0  0  0
  8  3  1  0  0  0
 34 27  1  0  0  0
 25 26  1  0  0  0
 11 14  1  0  0  0
 18 19  1  0  0  0
M  END
> <minimizedAffinity>
-6.89139

> <CNNscore>
0.3347675502

> <CNNaffinity>
6.8813004494

> <CNN_VS>
2.3036360741

> <CNNaffinity_variance>
0.1607219130

$$$$
[H]/C(C(=O)N([H])c1c(OC([H])([H])[H])c([H])c2nc([H])nc(N([H])c3c([H])c([H])c(F)c(Cl)c3[H])c2c1[H])=C(/[H])C([H])([H])N([H])C1([H])C([H])([H])C1([H])[H]


 34 37  0  0  0  0  0  0  0  0999 V2000
    0.6135  -52.3919  -26.7946 C   0  0  0  0  0  0  0  0  0  0  0  0
   -0.3167  -53.1712  -26.1719 C   0  0  0  0  0  0  0  0  0  0  0  0
   -0.2344  -53.4134  -24.8243 C   0  0  0  0  0  0  0  0  0  0  0  0
   -1.1102  -54.1666  -24.1626 N   0  0  0  0  0  0  0  0  0  0  0  0
   -0.9938  -54.3819  -22.8421 C   0  0  0  0  0  0  0  0  0  0  0  0
    0.0042  -53.8515  -22.1316 N   0  0  0  0  0  0  0  0  0  0  0  0
    0.9378  -53.0690  -22.7448 C   0  0  0  0  0  0  0  0  0  0  0  0
    0.8192  -52.8465  -24.1065 C   0  0  0  0  0  0  0  0  0  0  0  0
    1.7535  -52.0597  -24.7514 C   0  0  0  0  0  0  0  0  0  0  0  0
    1.6955  -51.8003  -26.1008 C   0  0  0  0  0  0  0  0  0  0  0  0
    2.6109  -51.0077  -26.8261 N   0  0  0  0  0  0  0  0  0  0  0  0
    3.1407  -49.7970  -26.4286 C   0  0  0  0  0  0  0  0  0  0  0  0
    2.9048  -49.1998  -25.3683 O   0  0  0  0  0  0  0  0  0  0  0  0
    2.9233  -51.3848  -27.7760 H   0  0  0  0  0  0  0  0  0  0  0  0
    4.1011  -49.0952  -27.3339 C   0  0  0  0  0  0  0  0  0  0  0  0
    3.8252  -47.9146  -27.8562 C   0  0  0  0  0  0  0  0  0  0  0  0
    4.7733  -47.2373  -28.7419 C   0  0  0  0  0  0  0  0  0  0  0  0
    4.1680  -46.0947  -29.4242 N   0  0  0  0  0  0  0  0  0  0  0  0
    3.5806  -45.5421  -28.7546 H   0  0  0  0  0  0  0  0  0  0  0  0
    3.2941  -46.5350  -30.4937 C   0  0  0  0  0  0  0  0  0  0  0  0
    3.9295  -47.3975  -31.5403 C   0  0  0  0  0  0  0  0  0  0  0  0
    3.5339  -46.0119  -31.8845 C   0  0  0  0  0  0  0  0  0  0  0  0
    0.0294  -52.9189  -29.1597 C   0  0  0  0  0  0  0  0  0  0  0  0
    0.5360  -52.1478  -28.1370 O   0  0  0  0  0  0  0  0  0  0  0  0
    1.9541  -52.4774  -22.0001 N   0  0  0  0  0  0  0  0  0  0  0  0
    2.7868  -52.9608  -21.5825 H   0  0  0  0  0  0  0  0  0  0  0  0
    1.9440  -51.0665  -21.7295 C   0  0  0  0  0  0  0  0  0  0  0  0
    0.8432  -50.3465  -21.3687 C   0  0  0  0  0  0  0  0  0  0  0  0
    0.8958  -48.9687  -21.1552 C   0  0  0  0  0  0  0  0  0  0  0  0
    2.0723  -48.2838  -21.3020 C   0  0  0  0  0  0  0  0  0  0  0  0
    2.1611  -46.9374  -21.1016 F   0  0  0  0  0  0  0  0  0  0  0  0
    3.1977  -48.9869  -21.6644 C   0  0  0  0  0  0  0  0  0  0  0  0
    4.7058  -48.0975  -21.8508 Cl  0  0  0  0  0  0  0  0  0  0  0  0
    3.1402  -50.3444  -21.8740 C   0  0  0  0  0  0  0  0  0  0  0  0
 23 24  1  0  0  0
 24  1  1  0  0  0
  1  2  2  0  0  0
  2  3  1  0  0  0
  3  4  2  0  0  0
  4  5  1  0  0  0
  5  6  2  0  0  0
  6  7  1  0  0  0
  7 25  1  0  0  0
 25 27  1  0  0  0
 27 28  2  0  0  0
 28 29  1  0  0  0
 29 30  2  0  0  0
 30 31  1  0  0  0
 30 32  1  0  0  0
 32 33  1  0  0  0
 32 34  2  0  0  0
  7  8  2  0  0  0
  8  9  1  0  0  0
  9 10  2  0  0  0
 10 11  1  0  0  0
 11 12  1  0  0  0
 12 13  2  0  0  0
 12 15  1  0  0  0
 15 16  2  0  0  0
 16 17  1  0  0  0
 17 18  1  0  0  0
 18 20  1  0  0  0
 20 21  1  0  0  0
 21 22  1  0  0  0
 10  1  1  0  0  0
 22 20  1  0  0  0
  8  3  1  0  0  0
 34 27  1  0  0  0
 25 26  1  0  0  0
 11 14  1  0  0  0
 18 19  1  0  0  0
M  END
> <minimizedAffinity>
-6.28835

> <CNNscore>
0.3099530339

> <CNNaffinity>
6.7553968430

> <CNN_VS>
2.0938558578

> <CNNaffinity_variance>
0.3175590038

$$$$
[H]/C(C(=O)N([H])c1c(OC([H])([H])[H])c([H])c2nc([H])nc(N([H])c3c([H])c([H])c(F)c(Cl)c3[H])c2c1[H])=C(/[H])C([H])([H])N([H])C1([H])C([H])([H])C1([H])[H]


 34 37  0  0  0  0  0  0  0  0999 V2000
    0.8771  -52.7864  -26.2026 C   0  0  0  0  0  0  0  0  0  0  0  0
    0.2306  -53.9090  -25.7757 C   0  0  0  0  0  0  0  0  0  0  0  0
   -0.3079  -53.9671  -24.5155 C   0  0  0  0  0  0  0  0  0  0  0  0
   -0.9473  -55.0348  -24.0429 N   0  0  0  0  0  0  0  0  0  0  0  0
   -1.4591  -55.0535  -22.8014 C   0  0  0  0  0  0  0  0  0  0  0  0
   -1.3511  -54.0038  -21.9838 N   0  0  0  0  0  0  0  0  0  0  0  0
   -0.7087  -52.8759  -22.4024 C   0  0  0  0  0  0  0  0  0  0  0  0
   -0.1801  -52.8555  -23.6821 C   0  0  0  0  0  0  0  0  0  0  0  0
    0.4777  -51.7260  -24.1289 C   0  0  0  0  0  0  0  0  0  0  0  0
    1.0269  -51.6401  -25.3868 C   0  0  0  0  0  0  0  0  0  0  0  0
    1.7106  -50.5221  -25.9112 N   0  0  0  0  0  0  0  0  0  0  0  0
    2.9579  -50.0717  -25.5295 C   0  0  0  0  0  0  0  0  0  0  0  0
    3.6907  -50.5711  -24.6633 O   0  0  0  0  0  0  0  0  0  0  0  0
    1.2112  -49.9724  -26.6796 H   0  0  0  0  0  0  0  0  0  0  0  0
    3.5267  -48.8622  -26.1990 C   0  0  0  0  0  0  0  0  0  0  0  0
    3.8982  -48.8811  -27.4655 C   0  0  0  0  0  0  0  0  0  0  0  0
    4.4545  -47.6906  -28.1101 C   0  0  0  0  0  0  0  0  0  0  0  0
    3.7878  -47.3886  -29.3758 N   0  0  0  0  0  0  0  0  0  0  0  0
    4.4626  -47.4826  -30.1724 H   0  0  0  0  0  0  0  0  0  0  0  0
    3.2998  -46.0237  -29.3900 C   0  0  0  0  0  0  0  0  0  0  0  0
    2.1635  -45.7288  -28.4601 C   0  0  0  0  0  0  0  0  0  0  0  0
    1.9169  -45.7562  -29.9207 C   0  0  0  0  0  0  0  0  0  0  0  0
    2.6498  -53.1198  -27.9228 C   0  0  0  0  0  0  0  0  0  0  0  0
    1.4155  -52.7236  -27.4571 O   0  0  0  0  0  0  0  0  0  0  0  0
   -0.6330  -51.7631  -21.5696 N   0  0  0  0  0  0  0  0  0  0  0  0
   -1.4085  -51.0900  -21.3524 H   0  0  0  0  0  0  0  0  0  0  0  0
    0.5908  -51.4286  -20.8958 C   0  0  0  0  0  0  0  0  0  0  0  0
    1.4589  -52.3313  -20.3553 C   0  0  0  0  0  0  0  0  0  0  0  0
    2.6148  -51.9363  -19.6812 C   0  0  0  0  0  0  0  0  0  0  0  0
    2.9211  -50.6093  -19.5387 C   0  0  0  0  0  0  0  0  0  0  0  0
    4.0420  -50.1866  -18.8862 F   0  0  0  0  0  0  0  0  0  0  0  0
    2.0624  -49.6785  -20.0757 C   0  0  0  0  0  0  0  0  0  0  0  0
    2.4647  -47.9747  -19.8875 Cl  0  0  0  0  0  0  0  0  0  0  0  0
    0.9245  -50.0732  -20.7387 C   0  0  0  0  0  0  0  0  0  0  0  0
 23 24  1  0  0  0
 24  1  1  0  0  0
  1  2  2  0  0  0
  2  3  1  0  0  0
  3  4  2  0  0  0
  4  5  1  0  0  0
  5  6  2  0  0  0
  6  7  1  0  0  0
  7 25  1  0  0  0
 25 27  1  0  0  0
 27 28  2  0  0  0
 28 29  1  0  0  0
 29 30  2  0  0  0
 30 31  1  0  0  0
 30 32  1  0  0  0
 32 33  1  0  0  0
 32 34  2  0  0  0
  7  8  2  0  0  0
  8  9  1  0  0  0
  9 10  2  0  0  0
 10 11  1  0  0  0
 11 12  1  0  0  0
 12 13  2  0  0  0
 12 15  1  0  0  0
 15 16  2  0  0  0
 16 17  1  0  0  0
 17 18  1  0  0  0
 18 20  1  0  0  0
 20 21  1  0  0  0
 21 22  1  0  0  0
 10  1  1  0  0  0
 22 20  1  0  0  0
  8  3  1  0  0  0
 34 27  1  0  0  0
 25 26  1  0  0  0
 11 14  1  0  0  0
 18 19  1  0  0  0
M  END
> <minimizedAffinity>
-7.29344

> <CNNscore>
0.2655591667

> <CNNaffinity>
6.8212051392

> <CNN_VS>
1.8114335537

> <CNNaffinity_variance>
0.2456735671

$$$$
[H]C([H])=C([H])C(=O)N1C([H])([H])C([H])([H])C([H])([H])[C@@]1([H])C(=O)N([H])c1c(OC([H])([H])C([H])([H])OC([H])([H])[H])c([H])c2nc([H])nc(N([H])c3c([H])c([H])c(F)c(Cl)c3F)c2c1[H]


 39 42  0  0  0  0  0  0  0  0999 V2000
   -0.1371  -52.5277  -19.6622 C   0  0  0  0  0  0  0  0  0  0  0  0
   -0.9012  -53.5695  -20.1273 C   0  0  0  0  0  0  0  0  0  0  0  0
   -0.8886  -53.8830  -21.4685 C   0  0  0  0  0  0  0  0  0  0  0  0
   -1.6586  -54.9185  -21.8607 N   0  0  0  0  0  0  0  0  0  0  0  0
   -1.6770  -55.2620  -23.1610 C   0  0  0  0  0  0  0  0  0  0  0  0
   -0.9368  -54.5708  -24.0171 N   0  0  0  0  0  0  0  0  0  0  0  0
   -0.1410  -53.5334  -23.7446 C   0  0  0  0  0  0  0  0  0  0  0  0
   -0.1323  -53.1872  -22.3843 C   0  0  0  0  0  0  0  0  0  0  0  0
    0.6227  -52.1471  -21.8873 C   0  0  0  0  0  0  0  0  0  0  0  0
    0.6630  -51.7763  -20.5709 C   0  0  0  0  0  0  0  0  0  0  0  0
    1.4144  -50.7337  -20.0314 N   0  0  0  0  0  0  0  0  0  0  0  0
    2.6349  -50.7821  -19.3116 C   0  0  0  0  0  0  0  0  0  0  0  0
    3.1873  -51.8965  -19.0912 O   0  0  0  0  0  0  0  0  0  0  0  0
    1.0220  -49.7301  -20.1867 H   0  0  0  0  0  0  0  0  0  0  0  0
    3.2372  -49.5618  -18.8448 C   0  0  0  0  0  0  0  0  0  0  0  0
    2.4620  -48.2941  -18.8876 C   0  0  0  0  0  0  0  0  0  0  0  0
    3.5295  -47.3513  -18.2784 C   0  0  0  0  0  0  0  0  0  0  0  0
    4.8806  -48.0876  -18.5072 C   0  0  0  0  0  0  0  0  0  0  0  0
    4.4806  -49.1031  -19.4530 N   0  0  0  0  0  0  0  0  0  0  0  0
    5.0237  -49.4448  -20.6687 C   0  0  0  0  0  0  0  0  0  0  0  0
    4.2379  -50.1244  -21.4873 O   0  0  0  0  0  0  0  0  0  0  0  0
    6.3163  -49.2057  -21.2438 C   0  0  0  0  0  0  0  0  0  0  0  0
    7.2531  -50.0676  -21.5032 C   0  0  0  0  0  0  0  0  0  0  0  0
    0.6023  -52.8438  -24.6791 N   0  0  0  0  0  0  0  0  0  0  0  0
    1.3535  -52.1717  -24.3010 H   0  0  0  0  0  0  0  0  0  0  0  0
    0.5041  -52.9062  -26.0988 C   0  0  0  0  0  0  0  0  0  0  0  0
    1.5331  -53.1881  -26.9449 C   0  0  0  0  0  0  0  0  0  0  0  0
    1.3157  -53.2152  -28.3174 C   0  0  0  0  0  0  0  0  0  0  0  0
    0.1057  -52.9709  -28.8800 C   0  0  0  0  0  0  0  0  0  0  0  0
   -0.1042  -52.9980  -30.2206 F   0  0  0  0  0  0  0  0  0  0  0  0
   -0.9486  -52.6839  -28.0479 C   0  0  0  0  0  0  0  0  0  0  0  0
   -2.5334  -52.3620  -28.7321 Cl  0  0  0  0  0  0  0  0  0  0  0  0
   -0.7467  -52.6543  -26.6944 C   0  0  0  0  0  0  0  0  0  0  0  0
   -1.8047  -52.3679  -25.8737 F   0  0  0  0  0  0  0  0  0  0  0  0
   -0.1367  -52.1996  -18.3439 O   0  0  0  0  0  0  0  0  0  0  0  0
   -0.9732  -52.4257  -17.2919 C   0  0  0  0  0  0  0  0  0  0  0  0
   -0.7725  -51.5839  -16.0565 C   0  0  0  0  0  0  0  0  0  0  0  0
    0.0854  -49.4156  -16.0544 C   0  0  0  0  0  0  0  0  0  0  0  0
   -0.9814  -50.2382  -16.2830 O   0  0  0  0  0  0  0  0  0  0  0  0
 38 39  1  0  0  0
 39 37  1  0  0  0
 37 36  1  0  0  0
 36 35  1  0  0  0
 35  1  1  0  0  0
  1  2  2  0  0  0
  2  3  1  0  0  0
  3  4  2  0  0  0
  4  5  1  0  0  0
  5  6  2  0  0  0
  6  7  1  0  0  0
  7 24  1  0  0  0
 24 26  1  0  0  0
 26 27  2  0  0  0
 27 28  1  0  0  0
 28 29  2  0  0  0
 29 30  1  0  0  0
 29 31  1  0  0  0
 31 32  1  0  0  0
 31 33  2  0  0  0
 33 34  1  0  0  0
  7  8  2  0  0  0
  8  9  1  0  0  0
  9 10  2  0  0  0
 10 11  1  0  0  0
 11 12  1  0  0  0
 12 13  2  0  0  0
 12 15  1  0  0  0
 15 16  1  0  0  0
 16 17  1  0  0  0
 17 18  1  0  0  0
 18 19  1  0  0  0
 19 20  1  0  0  0
 20 21  2  0  0  0
 20 22  1  0  0  0
 22 23  2  0  0  0
 10  1  1  0  0  0
 19 15  1  0  0  0
  8  3  1  0  0  0
 33 26  1  0  0  0
 24 25  1  0  0  0
 11 14  1  0  0  0
M  END
> <minimizedAffinity>
-8.74771

> <CNNscore>
0.9903417826

> <CNNaffinity>
8.2867136002

> <CNN_VS>
8.2066783905

> <CNNaffinity_variance>
0.0462649949

$$$$
[H]C([H])=C([H])C(=O)N1C([H])([H])C([H])([H])C([H])([H])[C@@]1([H])C(=O)N([H])c1c(OC([H])([H])C([H])([H])OC([H])([H])[H])c([H])c2nc([H])nc(N([H])c3c([H])c([H])c(F)c(Cl)c3F)c2c1[H]


 39 42  0  0  0  0  0  0  0  0999 V2000
   -0.2685  -52.5595  -19.6069 C   0  0  0  0  0  0  0  0  0  0  0  0
   -1.0285  -53.5938  -20.0949 C   0  0  0  0  0  0  0  0  0  0  0  0
   -0.9828  -53.9043  -21.4360 C   0  0  0  0  0  0  0  0  0  0  0  0
   -1.7506  -54.9324  -21.8513 N   0  0  0  0  0  0  0  0  0  0  0  0
   -1.7371  -55.2728  -23.1525 C   0  0  0  0  0  0  0  0  0  0  0  0
   -0.9685  -54.5859  -23.9868 N   0  0  0  0  0  0  0  0  0  0  0  0
   -0.1716  -53.5558  -23.6904 C   0  0  0  0  0  0  0  0  0  0  0  0
   -0.1964  -53.2128  -22.3295 C   0  0  0  0  0  0  0  0  0  0  0  0
    0.5537  -52.1803  -21.8099 C   0  0  0  0  0  0  0  0  0  0  0  0
    0.5618  -51.8128  -20.4920 C   0  0  0  0  0  0  0  0  0  0  0  0
    1.3072  -50.7779  -19.9300 N   0  0  0  0  0  0  0  0  0  0  0  0
    2.6241  -50.7988  -19.4049 C   0  0  0  0  0  0  0  0  0  0  0  0
    3.2854  -51.8749  -19.4176 O   0  0  0  0  0  0  0  0  0  0  0  0
    0.8218  -49.8041  -19.8912 H   0  0  0  0  0  0  0  0  0  0  0  0
    3.1981  -49.5933  -18.8690 C   0  0  0  0  0  0  0  0  0  0  0  0
    2.3090  -48.5239  -18.3440 C   0  0  0  0  0  0  0  0  0  0  0  0
    3.3989  -47.5182  -17.8964 C   0  0  0  0  0  0  0  0  0  0  0  0
    4.6575  -47.9090  -18.7228 C   0  0  0  0  0  0  0  0  0  0  0  0
    4.0733  -48.7858  -19.7106 N   0  0  0  0  0  0  0  0  0  0  0  0
    4.1813  -48.7734  -21.0809 C   0  0  0  0  0  0  0  0  0  0  0  0
    3.2445  -49.4296  -21.7450 O   0  0  0  0  0  0  0  0  0  0  0  0
    5.1410  -48.1732  -21.9627 C   0  0  0  0  0  0  0  0  0  0  0  0
    5.1361  -48.1511  -23.2617 C   0  0  0  0  0  0  0  0  0  0  0  0
    0.6021  -52.8704  -24.6030 N   0  0  0  0  0  0  0  0  0  0  0  0
    1.3629  -52.2219  -24.2034 H   0  0  0  0  0  0  0  0  0  0  0  0
    0.5248  -52.9097  -26.0248 C   0  0  0  0  0  0  0  0  0  0  0  0
    1.5690  -53.1643  -26.8608 C   0  0  0  0  0  0  0  0  0  0  0  0
    1.3713  -53.1705  -28.2365 C   0  0  0  0  0  0  0  0  0  0  0  0
    0.1664  -52.9316  -28.8121 C   0  0  0  0  0  0  0  0  0  0  0  0
   -0.0243  -52.9383  -30.1559 F   0  0  0  0  0  0  0  0  0  0  0  0
   -0.9030  -52.6719  -27.9904 C   0  0  0  0  0  0  0  0  0  0  0  0
   -2.4820  -52.3578  -28.6917 Cl  0  0  0  0  0  0  0  0  0  0  0  0
   -0.7206  -52.6630  -26.6339 C   0  0  0  0  0  0  0  0  0  0  0  0
   -1.7936  -52.4038  -25.8237 F   0  0  0  0  0  0  0  0  0  0  0  0
   -0.3006  -52.2344  -18.2882 O   0  0  0  0  0  0  0  0  0  0  0  0
   -1.0215  -52.6489  -17.2083 C   0  0  0  0  0  0  0  0  0  0  0  0
   -1.3752  -51.6099  -16.1739 C   0  0  0  0  0  0  0  0  0  0  0  0
   -3.5069  -52.5327  -16.3778 C   0  0  0  0  0  0  0  0  0  0  0  0
   -2.7370  -51.4708  -15.9950 O   0  0  0  0  0  0  0  0  0  0  0  0
 38 39  1  0  0  0
 39 37  1  0  0  0
 37 36  1  0  0  0
 36 35  1  0  0  0
 35  1  1  0  0  0
  1  2  2  0  0  0
  2  3  1  0  0  0
  3  4  2  0  0  0
  4  5  1  0  0  0
  5  6  2  0  0  0
  6  7  1  0  0  0
  7 24  1  0  0  0
 24 26  1  0  0  0
 26 27  2  0  0  0
 27 28  1  0  0  0
 28 29  2  0  0  0
 29 30  1  0  0  0
 29 31  1  0  0  0
 31 32  1  0  0  0
 31 33  2  0  0  0
 33 34  1  0  0  0
  7  8  2  0  0  0
  8  9  1  0  0  0
  9 10  2  0  0  0
 10 11  1  0  0  0
 11 12  1  0  0  0
 12 13  2  0  0  0
 12 15  1  0  0  0
 15 16  1  0  0  0
 16 17  1  0  0  0
 17 18  1  0  0  0
 18 19  1  0  0  0
 19 20  1  0  0  0
 20 21  2  0  0  0
 20 22  1  0  0  0
 22 23  2  0  0  0
 10  1  1  0  0  0
 19 15  1  0  0  0
  8  3  1  0  0  0
 33 26  1  0  0  0
 24 25  1  0  0  0
 11 14  1  0  0  0
M  END
> <minimizedAffinity>
-8.74239

> <CNNscore>
0.9853858948

> <CNNaffinity>
8.4360647202

> <CNN_VS>
8.3127794266

> <CNNaffinity_variance>
0.0319417864

$$$$
[H]C([H])=C([H])C(=O)N1C([H])([H])C([H])([H])C([H])([H])[C@@]1([H])C(=O)N([H])c1c(OC([H])([H])C([H])([H])OC([H])([H])[H])c([H])c2nc([H])nc(N([H])c3c([H])c([H])c(F)c(Cl)c3F)c2c1[H]


 39 42  0  0  0  0  0  0  0  0999 V2000
   -0.1193  -52.5685  -19.5342 C   0  0  0  0  0  0  0  0  0  0  0  0
   -0.7700  -53.6737  -20.0246 C   0  0  0  0  0  0  0  0  0  0  0  0
   -0.8255  -53.8891  -21.3839 C   0  0  0  0  0  0  0  0  0  0  0  0
   -1.4768  -54.9940  -21.8010 N   0  0  0  0  0  0  0  0  0  0  0  0
   -1.5554  -55.2463  -23.1198 C   0  0  0  0  0  0  0  0  0  0  0  0
   -0.9895  -54.3996  -23.9692 N   0  0  0  0  0  0  0  0  0  0  0  0
   -0.3227  -53.2809  -23.6728 C   0  0  0  0  0  0  0  0  0  0  0  0
   -0.2492  -53.0315  -22.2934 C   0  0  0  0  0  0  0  0  0  0  0  0
    0.3954  -51.9315  -21.7708 C   0  0  0  0  0  0  0  0  0  0  0  0
    0.4932  -51.6502  -20.4353 C   0  0  0  0  0  0  0  0  0  0  0  0
    1.1375  -50.5512  -19.8700 N   0  0  0  0  0  0  0  0  0  0  0  0
    2.4596  -50.0805  -20.0717 C   0  0  0  0  0  0  0  0  0  0  0  0
    3.2255  -50.6902  -20.8700 O   0  0  0  0  0  0  0  0  0  0  0  0
    0.5467  -49.9535  -19.1778 H   0  0  0  0  0  0  0  0  0  0  0  0
    2.9150  -48.9092  -19.3714 C   0  0  0  0  0  0  0  0  0  0  0  0
    4.1865  -48.2553  -19.7783 C   0  0  0  0  0  0  0  0  0  0  0  0
    4.1834  -47.0912  -18.7563 C   0  0  0  0  0  0  0  0  0  0  0  0
    3.2494  -47.5763  -17.6108 C   0  0  0  0  0  0  0  0  0  0  0  0
    3.1318  -48.9797  -17.9311 N   0  0  0  0  0  0  0  0  0  0  0  0
    3.3238  -50.0879  -17.1409 C   0  0  0  0  0  0  0  0  0  0  0  0
    3.5353  -51.2278  -17.7776 O   0  0  0  0  0  0  0  0  0  0  0  0
    3.3380  -50.2604  -15.7165 C   0  0  0  0  0  0  0  0  0  0  0  0
    3.1177  -51.3446  -15.0354 C   0  0  0  0  0  0  0  0  0  0  0  0
    0.2400  -52.4300  -24.6005 N   0  0  0  0  0  0  0  0  0  0  0  0
    0.7097  -51.5394  -24.2193 H   0  0  0  0  0  0  0  0  0  0  0  0
    0.2815  -52.5784  -26.0166 C   0  0  0  0  0  0  0  0  0  0  0  0
    1.4085  -52.7910  -26.7507 C   0  0  0  0  0  0  0  0  0  0  0  0
    1.3238  -52.9149  -28.1324 C   0  0  0  0  0  0  0  0  0  0  0  0
    0.1526  -52.8344  -28.8123 C   0  0  0  0  0  0  0  0  0  0  0  0
    0.0724  -52.9558  -30.1617 F   0  0  0  0  0  0  0  0  0  0  0  0
   -0.9986  -52.6203  -28.0946 C   0  0  0  0  0  0  0  0  0  0  0  0
   -2.5377  -52.5101  -28.9329 Cl  0  0  0  0  0  0  0  0  0  0  0  0
   -0.9278  -52.4966  -26.7333 C   0  0  0  0  0  0  0  0  0  0  0  0
   -2.0816  -52.2840  -26.0273 F   0  0  0  0  0  0  0  0  0  0  0  0
   -0.0549  -52.3352  -18.1974 O   0  0  0  0  0  0  0  0  0  0  0  0
   -0.9646  -52.2575  -17.1854 C   0  0  0  0  0  0  0  0  0  0  0  0
   -0.9347  -51.0202  -16.3233 C   0  0  0  0  0  0  0  0  0  0  0  0
   -0.1116  -48.8458  -16.1450 C   0  0  0  0  0  0  0  0  0  0  0  0
   -0.1809  -50.0014  -16.8707 O   0  0  0  0  0  0  0  0  0  0  0  0
 38 39  1  0  0  0
 39 37  1  0  0  0
 37 36  1  0  0  0
 36 35  1  0  0  0
 35  1  1  0  0  0
  1  2  2  0  0  0
  2  3  1  0  0  0
  3  4  2  0  0  0
  4  5  1  0  0  0
  5  6  2  0  0  0
  6  7  1  0  0  0
  7 24  1  0  0  0
 24 26  1  0  0  0
 26 27  2  0  0  0
 27 28  1  0  0  0
 28 29  2  0  0  0
 29 30  1  0  0  0
 29 31  1  0  0  0
 31 32  1  0  0  0
 31 33  2  0  0  0
 33 34  1  0  0  0
  7  8  2  0  0  0
  8  9  1  0  0  0
  9 10  2  0  0  0
 10 11  1  0  0  0
 11 12  1  0  0  0
 12 13  2  0  0  0
 12 15  1  0  0  0
 15 16  1  0  0  0
 16 17  1  0  0  0
 17 18  1  0  0  0
 18 19  1  0  0  0
 19 20  1  0  0  0
 20 21  2  0  0  0
 20 22  1  0  0  0
 22 23  2  0  0  0
 10  1  1  0  0  0
 19 15  1  0  0  0
  8  3  1  0  0  0
 33 26  1  0  0  0
 24 25  1  0  0  0
 11 14  1  0  0  0
M  END
> <minimizedAffinity>
-8.49915

> <CNNscore>
0.9741953611

> <CNNaffinity>
8.0744504929

> <CNN_VS>
7.8660922050

> <CNNaffinity_variance>
0.0214384533

$$$$
[H]C([H])=C([H])C(=O)N1C([H])([H])C([H])([H])C([H])([H])[C@@]1([H])C(=O)N([H])c1c(OC([H])([H])C([H])([H])OC([H])([H])[H])c([H])c2nc([H])nc(N([H])c3c([H])c([H])c(F)c(Cl)c3F)c2c1[H]


 39 42  0  0  0  0  0  0  0  0999 V2000
   -0.5242  -52.9414  -19.3333 C   0  0  0  0  0  0  0  0  0  0  0  0
   -0.9953  -53.9258  -20.1668 C   0  0  0  0  0  0  0  0  0  0  0  0
   -0.7947  -53.8267  -21.5258 C   0  0  0  0  0  0  0  0  0  0  0  0
   -1.2794  -54.8275  -22.2891 N   0  0  0  0  0  0  0  0  0  0  0  0
   -1.1059  -54.7744  -23.6218 C   0  0  0  0  0  0  0  0  0  0  0  0
   -0.4632  -53.7384  -24.1437 N   0  0  0  0  0  0  0  0  0  0  0  0
    0.0567  -52.6962  -23.4901 C   0  0  0  0  0  0  0  0  0  0  0  0
   -0.1321  -52.7661  -22.1010 C   0  0  0  0  0  0  0  0  0  0  0  0
    0.3276  -51.7943  -21.2390 C   0  0  0  0  0  0  0  0  0  0  0  0
    0.1680  -51.8225  -19.8804 C   0  0  0  0  0  0  0  0  0  0  0  0
    0.6200  -50.8614  -18.9778 N   0  0  0  0  0  0  0  0  0  0  0  0
    1.8999  -50.7132  -18.3861 C   0  0  0  0  0  0  0  0  0  0  0  0
    2.8201  -51.5294  -18.6734 O   0  0  0  0  0  0  0  0  0  0  0  0
   -0.1035  -50.1029  -18.6834 H   0  0  0  0  0  0  0  0  0  0  0  0
    2.1416  -49.6308  -17.4698 C   0  0  0  0  0  0  0  0  0  0  0  0
    1.0120  -49.0581  -16.6913 C   0  0  0  0  0  0  0  0  0  0  0  0
    1.8016  -47.9927  -15.8907 C   0  0  0  0  0  0  0  0  0  0  0  0
    3.0942  -47.7539  -16.7226 C   0  0  0  0  0  0  0  0  0  0  0  0
    2.7403  -48.3974  -17.9663 N   0  0  0  0  0  0  0  0  0  0  0  0
    2.8006  -47.9261  -19.2561 C   0  0  0  0  0  0  0  0  0  0  0  0
    2.0572  -48.5641  -20.1447 O   0  0  0  0  0  0  0  0  0  0  0  0
    3.5355  -46.8463  -19.8502 C   0  0  0  0  0  0  0  0  0  0  0  0
    3.6389  -46.5403  -21.1086 C   0  0  0  0  0  0  0  0  0  0  0  0
    0.7097  -51.6383  -24.0867 N   0  0  0  0  0  0  0  0  0  0  0  0
    0.1617  -51.0891  -24.8331 H   0  0  0  0  0  0  0  0  0  0  0  0
    2.0326  -51.1713  -23.8401 C   0  0  0  0  0  0  0  0  0  0  0  0
    2.3525  -49.9390  -23.3571 C   0  0  0  0  0  0  0  0  0  0  0  0
    3.6847  -49.5943  -23.1622 C   0  0  0  0  0  0  0  0  0  0  0  0
    4.7141  -50.4357  -23.4319 C   0  0  0  0  0  0  0  0  0  0  0  0
    6.0143  -50.0968  -23.2407 F   0  0  0  0  0  0  0  0  0  0  0  0
    4.4177  -51.6846  -23.9204 C   0  0  0  0  0  0  0  0  0  0  0  0
    5.7183  -52.8074  -24.2828 Cl  0  0  0  0  0  0  0  0  0  0  0  0
    3.1093  -52.0356  -24.1165 C   0  0  0  0  0  0  0  0  0  0  0  0
    2.8249  -53.2835  -24.6031 F   0  0  0  0  0  0  0  0  0  0  0  0
   -0.7134  -53.0176  -17.9902 O   0  0  0  0  0  0  0  0  0  0  0  0
   -1.6749  -52.5894  -17.1242 C   0  0  0  0  0  0  0  0  0  0  0  0
   -1.2128  -51.8982  -15.8657 C   0  0  0  0  0  0  0  0  0  0  0  0
    0.3354  -52.2357  -14.1550 C   0  0  0  0  0  0  0  0  0  0  0  0
    0.0678  -52.2564  -15.4947 O   0  0  0  0  0  0  0  0  0  0  0  0
 38 39  1  0  0  0
 39 37  1  0  0  0
 37 36  1  0  0  0
 36 35  1  0  0  0
 35  1  1  0  0  0
  1  2  2  0  0  0
  2  3  1  0  0  0
  3  4  2  0  0  0
  4  5  1  0  0  0
  5  6  2  0  0  0
  6  7  1  0  0  0
  7 24  1  0  0  0
 24 26  1  0  0  0
 26 27  2  0  0  0
 27 28  1  0  0  0
 28 29  2  0  0  0
 29 30  1  0  0  0
 29 31  1  0  0  0
 31 32  1  0  0  0
 31 33  2  0  0  0
 33 34  1  0  0  0
  7  8  2  0  0  0
  8  9  1  0  0  0
  9 10  2  0  0  0
 10 11  1  0  0  0
 11 12  1  0  0  0
 12 13  2  0  0  0
 12 15  1  0  0  0
 15 16  1  0  0  0
 16 17  1  0  0  0
 17 18  1  0  0  0
 18 19  1  0  0  0
 19 20  1  0  0  0
 20 21  2  0  0  0
 20 22  1  0  0  0
 22 23  2  0  0  0
 10  1  1  0  0  0
 19 15  1  0  0  0
  8  3  1  0  0  0
 33 26  1  0  0  0
 24 25  1  0  0  0
 11 14  1  0  0  0
M  END
> <minimizedAffinity>
-7.61646

> <CNNscore>
0.8425709605

> <CNNaffinity>
7.4681406021

> <CNN_VS>
6.2924385071

> <CNNaffinity_variance>
0.2210599482

$$$$
[H]C([H])=C([H])C(=O)N1C([H])([H])C([H])([H])C([H])([H])[C@@]1([H])C(=O)N([H])c1c(OC([H])([H])C([H])([H])OC([H])([H])[H])c([H])c2nc([H])nc(N([H])c3c([H])c([H])c(F)c(Cl)c3F)c2c1[H]


 39 42  0  0  0  0  0  0  0  0999 V2000
   -0.5371  -52.8228  -19.2552 C   0  0  0  0  0  0  0  0  0  0  0  0
   -1.0743  -53.8356  -20.0110 C   0  0  0  0  0  0  0  0  0  0  0  0
   -0.8887  -53.8444  -21.3758 C   0  0  0  0  0  0  0  0  0  0  0  0
   -1.4393  -54.8679  -22.0603 N   0  0  0  0  0  0  0  0  0  0  0  0
   -1.2829  -54.9190  -23.3952 C   0  0  0  0  0  0  0  0  0  0  0  0
   -0.5917  -53.9604  -23.9968 N   0  0  0  0  0  0  0  0  0  0  0  0
   -0.0052  -52.9054  -23.4250 C   0  0  0  0  0  0  0  0  0  0  0  0
   -0.1770  -52.8661  -22.0324 C   0  0  0  0  0  0  0  0  0  0  0  0
    0.3486  -51.8632  -21.2471 C   0  0  0  0  0  0  0  0  0  0  0  0
    0.2077  -51.7861  -19.8884 C   0  0  0  0  0  0  0  0  0  0  0  0
    0.7256  -50.7906  -19.0618 N   0  0  0  0  0  0  0  0  0  0  0  0
    1.8392  -49.9377  -19.2682 C   0  0  0  0  0  0  0  0  0  0  0  0
    2.5076  -50.0293  -20.3362 O   0  0  0  0  0  0  0  0  0  0  0  0
    0.2017  -50.6283  -18.1213 H   0  0  0  0  0  0  0  0  0  0  0  0
    2.1940  -48.9709  -18.2636 C   0  0  0  0  0  0  0  0  0  0  0  0
    3.1867  -47.9104  -18.5796 C   0  0  0  0  0  0  0  0  0  0  0  0
    3.1763  -47.1730  -17.2174 C   0  0  0  0  0  0  0  0  0  0  0  0
    2.6351  -48.2235  -16.2058 C   0  0  0  0  0  0  0  0  0  0  0  0
    2.7333  -49.4324  -16.9899 N   0  0  0  0  0  0  0  0  0  0  0  0
    3.3131  -50.6410  -16.6858 C   0  0  0  0  0  0  0  0  0  0  0  0
    3.6027  -51.4229  -17.7125 O   0  0  0  0  0  0  0  0  0  0  0  0
    3.6760  -51.2440  -15.4353 C   0  0  0  0  0  0  0  0  0  0  0  0
    2.9025  -51.5601  -14.4405 C   0  0  0  0  0  0  0  0  0  0  0  0
    0.6964  -51.9309  -24.1027 N   0  0  0  0  0  0  0  0  0  0  0  0
    0.1158  -51.1749  -24.6031 H   0  0  0  0  0  0  0  0  0  0  0  0
    2.1086  -51.7924  -24.2282 C   0  0  0  0  0  0  0  0  0  0  0  0
    2.9498  -52.7435  -24.7200 C   0  0  0  0  0  0  0  0  0  0  0  0
    4.3153  -52.4940  -24.7887 C   0  0  0  0  0  0  0  0  0  0  0  0
    4.8757  -51.3269  -24.3838 C   0  0  0  0  0  0  0  0  0  0  0  0
    6.2096  -51.0855  -24.4519 F   0  0  0  0  0  0  0  0  0  0  0  0
    4.0485  -50.3513  -23.8836 C   0  0  0  0  0  0  0  0  0  0  0  0
    4.7301  -48.8240  -23.3482 Cl  0  0  0  0  0  0  0  0  0  0  0  0
    2.7019  -50.5854  -23.8110 C   0  0  0  0  0  0  0  0  0  0  0  0
    1.8860  -49.6058  -23.3114 F   0  0  0  0  0  0  0  0  0  0  0  0
   -0.7103  -52.7929  -17.9081 O   0  0  0  0  0  0  0  0  0  0  0  0
   -1.7649  -52.5680  -17.0745 C   0  0  0  0  0  0  0  0  0  0  0  0
   -1.6139  -51.4713  -16.0501 C   0  0  0  0  0  0  0  0  0  0  0  0
   -0.8086  -49.2889  -15.8881 C   0  0  0  0  0  0  0  0  0  0  0  0
   -0.6431  -50.5498  -16.3880 O   0  0  0  0  0  0  0  0  0  0  0  0
 38 39  1  0  0  0
 39 37  1  0  0  0
 37 36  1  0  0  0
 36 35  1  0  0  0
 35  1  1  0  0  0
  1  2  2  0  0  0
  2  3  1  0  0  0
  3  4  2  0  0  0
  4  5  1  0  0  0
  5  6  2  0  0  0
  6  7  1  0  0  0
  7 24  1  0  0  0
 24 26  1  0  0  0
 26 27  2  0  0  0
 27 28  1  0  0  0
 28 29  2  0  0  0
 29 30  1  0  0  0
 29 31  1  0  0  0
 31 32  1  0  0  0
 31 33  2  0  0  0
 33 34  1  0  0  0
  7  8  2  0  0  0
  8  9  1  0  0  0
  9 10  2  0  0  0
 10 11  1  0  0  0
 11 12  1  0  0  0
 12 13  2  0  0  0
 12 15  1  0  0  0
 15 16  1  0  0  0
 16 17  1  0  0  0
 17 18  1  0  0  0
 18 19  1  0  0  0
 19 20  1  0  0  0
 20 21  2  0  0  0
 20 22  1  0  0  0
 22 23  2  0  0  0
 10  1  1  0  0  0
 19 15  1  0  0  0
  8  3  1  0  0  0
 33 26  1  0  0  0
 24 25  1  0  0  0
 11 14  1  0  0  0
M  END
> <minimizedAffinity>
-7.81911

> <CNNscore>
0.7720908523

> <CNNaffinity>
7.5068178177

> <CNN_VS>
5.7959451675

> <CNNaffinity_variance>
0.1580109894

$$$$
[H]C([H])=C([H])C(=O)N1C([H])([H])C([H])([H])C([H])([H])[C@@]1([H])C(=O)N([H])c1c(OC([H])([H])C([H])([H])OC([H])([H])[H])c([H])c2nc([H])nc(N([H])c3c([H])c([H])c(F)c(Cl)c3F)c2c1[H]


 39 42  0  0  0  0  0  0  0  0999 V2000
    0.3802  -51.8475  -19.3275 C   0  0  0  0  0  0  0  0  0  0  0  0
   -0.3324  -52.9845  -19.6188 C   0  0  0  0  0  0  0  0  0  0  0  0
   -0.5317  -53.3507  -20.9316 C   0  0  0  0  0  0  0  0  0  0  0  0
   -1.2372  -54.4792  -21.1503 N   0  0  0  0  0  0  0  0  0  0  0  0
   -1.4558  -54.8769  -22.4165 C   0  0  0  0  0  0  0  0  0  0  0  0
   -0.9701  -54.1460  -23.4108 N   0  0  0  0  0  0  0  0  0  0  0  0
   -0.2616  -53.0179  -23.3144 C   0  0  0  0  0  0  0  0  0  0  0  0
   -0.0419  -52.6160  -21.9876 C   0  0  0  0  0  0  0  0  0  0  0  0
    0.6679  -51.4804  -21.6632 C   0  0  0  0  0  0  0  0  0  0  0  0
    0.9076  -51.0525  -20.3859 C   0  0  0  0  0  0  0  0  0  0  0  0
    1.6214  -49.9129  -20.0193 N   0  0  0  0  0  0  0  0  0  0  0  0
    3.0147  -49.6609  -20.0923 C   0  0  0  0  0  0  0  0  0  0  0  0
    3.7877  -50.5486  -20.5504 O   0  0  0  0  0  0  0  0  0  0  0  0
    1.0334  -49.0850  -19.6267 H   0  0  0  0  0  0  0  0  0  0  0  0
    3.5351  -48.3943  -19.6509 C   0  0  0  0  0  0  0  0  0  0  0  0
    2.8470  -47.6546  -18.5603 C   0  0  0  0  0  0  0  0  0  0  0  0
    3.7948  -46.4320  -18.4785 C   0  0  0  0  0  0  0  0  0  0  0  0
    4.5092  -46.3954  -19.8598 C   0  0  0  0  0  0  0  0  0  0  0  0
    3.6877  -47.3117  -20.6158 N   0  0  0  0  0  0  0  0  0  0  0  0
    3.0818  -47.1552  -21.8397 C   0  0  0  0  0  0  0  0  0  0  0  0
    2.0853  -47.9829  -22.1064 O   0  0  0  0  0  0  0  0  0  0  0  0
    3.3252  -46.2449  -22.9218 C   0  0  0  0  0  0  0  0  0  0  0  0
    3.0775  -46.4138  -24.1859 C   0  0  0  0  0  0  0  0  0  0  0  0
    0.2127  -52.2916  -24.3862 N   0  0  0  0  0  0  0  0  0  0  0  0
    0.8728  -51.4713  -24.1619 H   0  0  0  0  0  0  0  0  0  0  0  0
   -0.0607  -52.4885  -25.7703 C   0  0  0  0  0  0  0  0  0  0  0  0
   -1.2292  -52.1695  -26.3925 C   0  0  0  0  0  0  0  0  0  0  0  0
   -1.3809  -52.4145  -27.7521 C   0  0  0  0  0  0  0  0  0  0  0  0
   -0.4072  -52.9677  -28.5177 C   0  0  0  0  0  0  0  0  0  0  0  0
   -0.5577  -53.2060  -29.8453 F   0  0  0  0  0  0  0  0  0  0  0  0
    0.7810  -53.2986  -27.9136 C   0  0  0  0  0  0  0  0  0  0  0  0
    2.0701  -54.0163  -28.8659 Cl  0  0  0  0  0  0  0  0  0  0  0  0
    0.9423  -53.0621  -26.5751 C   0  0  0  0  0  0  0  0  0  0  0  0
    2.1311  -53.3951  -25.9829 F   0  0  0  0  0  0  0  0  0  0  0  0
    0.5862  -51.4662  -18.0400 O   0  0  0  0  0  0  0  0  0  0  0  0
   -0.1937  -50.9488  -17.0491 C   0  0  0  0  0  0  0  0  0  0  0  0
    0.1315  -49.5560  -16.5704 C   0  0  0  0  0  0  0  0  0  0  0  0
   -1.8049  -49.7585  -15.2870 C   0  0  0  0  0  0  0  0  0  0  0  0
   -0.9352  -48.9383  -15.9487 O   0  0  0  0  0  0  0  0  0  0  0  0
 38 39  1  0  0  0
 39 37  1  0  0  0
 37 36  1  0  0  0
 36 35  1  0  0  0
 35  1  1  0  0  0
  1  2  2  0  0  0
  2  3  1  0  0  0
  3  4  2  0  0  0
  4  5  1  0  0  0
  5  6  2  0  0  0
  6  7  1  0  0  0
  7 24  1  0  0  0
 24 26  1  0  0  0
 26 27  2  0  0  0
 27 28  1  0  0  0
 28 29  2  0  0  0
 29 30  1  0  0  0
 29 31  1  0  0  0
 31 32  1  0  0  0
 31 33  2  0  0  0
 33 34  1  0  0  0
  7  8  2  0  0  0
  8  9  1  0  0  0
  9 10  2  0  0  0
 10 11  1  0  0  0
 11 12  1  0  0  0
 12 13  2  0  0  0
 12 15  1  0  0  0
 15 16  1  0  0  0
 16 17  1  0  0  0
 17 18  1  0  0  0
 18 19  1  0  0  0
 19 20  1  0  0  0
 20 21  2  0  0  0
 20 22  1  0  0  0
 22 23  2  0  0  0
 10  1  1  0  0  0
 19 15  1  0  0  0
  8  3  1  0  0  0
 33 26  1  0  0  0
 24 25  1  0  0  0
 11 14  1  0  0  0
M  END
> <minimizedAffinity>
-8.04321

> <CNNscore>
0.7635447383

> <CNNaffinity>
7.9254655838

> <CNN_VS>
6.0514473915

> <CNNaffinity_variance>
0.1482054889

$$$$
[H]C([H])=C([H])C(=O)N1C([H])([H])C([H])([H])C([H])([H])[C@@]1([H])C(=O)N([H])c1c(OC([H])([H])C([H])([H])OC([H])([H])[H])c([H])c2nc([H])nc(N([H])c3c([H])c([H])c(F)c(Cl)c3F)c2c1[H]


 39 42  0  0  0  0  0  0  0  0999 V2000
   -0.4934  -52.9961  -19.4320 C   0  0  0  0  0  0  0  0  0  0  0  0
   -1.0379  -53.9704  -20.2319 C   0  0  0  0  0  0  0  0  0  0  0  0
   -0.8333  -53.9326  -21.5935 C   0  0  0  0  0  0  0  0  0  0  0  0
   -1.3923  -54.9199  -22.3226 N   0  0  0  0  0  0  0  0  0  0  0  0
   -1.2180  -54.9249  -23.6563 C   0  0  0  0  0  0  0  0  0  0  0  0
   -0.5012  -53.9578  -24.2127 N   0  0  0  0  0  0  0  0  0  0  0  0
    0.0959  -52.9355  -23.5945 C   0  0  0  0  0  0  0  0  0  0  0  0
   -0.0949  -52.9441  -22.2038 C   0  0  0  0  0  0  0  0  0  0  0  0
    0.4374  -51.9806  -21.3750 C   0  0  0  0  0  0  0  0  0  0  0  0
    0.2787  -51.9508  -20.0164 C   0  0  0  0  0  0  0  0  0  0  0  0
    0.8026  -50.9960  -19.1466 N   0  0  0  0  0  0  0  0  0  0  0  0
    2.1058  -50.8971  -18.5970 C   0  0  0  0  0  0  0  0  0  0  0  0
    2.9779  -51.7605  -18.8963 O   0  0  0  0  0  0  0  0  0  0  0  0
    0.1245  -50.1993  -18.8451 H   0  0  0  0  0  0  0  0  0  0  0  0
    2.4258  -49.8111  -17.7094 C   0  0  0  0  0  0  0  0  0  0  0  0
    1.3343  -49.0934  -16.9998 C   0  0  0  0  0  0  0  0  0  0  0  0
    2.2012  -48.0860  -16.2040 C   0  0  0  0  0  0  0  0  0  0  0  0
    3.5427  -48.0164  -16.9885 C   0  0  0  0  0  0  0  0  0  0  0  0
    3.1705  -48.6673  -18.2228 N   0  0  0  0  0  0  0  0  0  0  0  0
    3.3298  -48.2556  -19.5246 C   0  0  0  0  0  0  0  0  0  0  0  0
    2.5575  -48.8466  -20.4211 O   0  0  0  0  0  0  0  0  0  0  0  0
    4.1973  -47.2827  -20.1243 C   0  0  0  0  0  0  0  0  0  0  0  0
    3.9262  -46.0537  -20.4468 C   0  0  0  0  0  0  0  0  0  0  0  0
    0.8244  -51.9498  -24.2262 N   0  0  0  0  0  0  0  0  0  0  0  0
    0.2644  -51.1837  -24.7346 H   0  0  0  0  0  0  0  0  0  0  0  0
    2.2405  -51.8115  -24.2940 C   0  0  0  0  0  0  0  0  0  0  0  0
    3.1013  -52.7649  -24.7458 C   0  0  0  0  0  0  0  0  0  0  0  0
    4.4685  -52.5154  -24.7595 C   0  0  0  0  0  0  0  0  0  0  0  0
    5.0116  -51.3459  -24.3378 C   0  0  0  0  0  0  0  0  0  0  0  0
    6.3472  -51.1045  -24.3521 F   0  0  0  0  0  0  0  0  0  0  0  0
    4.1644  -50.3680  -23.8773 C   0  0  0  0  0  0  0  0  0  0  0  0
    4.8231  -48.8378  -23.3223 Cl  0  0  0  0  0  0  0  0  0  0  0  0
    2.8159  -50.6022  -23.8590 C   0  0  0  0  0  0  0  0  0  0  0  0
    1.9800  -49.6202  -23.3986 F   0  0  0  0  0  0  0  0  0  0  0  0
   -0.6852  -53.0125  -18.0872 O   0  0  0  0  0  0  0  0  0  0  0  0
   -1.6705  -52.5881  -17.2466 C   0  0  0  0  0  0  0  0  0  0  0  0
   -1.2449  -51.8713  -15.9896 C   0  0  0  0  0  0  0  0  0  0  0  0
    0.4210  -51.7106  -14.3659 C   0  0  0  0  0  0  0  0  0  0  0  0
    0.0020  -52.2618  -15.5439 O   0  0  0  0  0  0  0  0  0  0  0  0
 38 39  1  0  0  0
 39 37  1  0  0  0
 37 36  1  0  0  0
 36 35  1  0  0  0
 35  1  1  0  0  0
  1  2  2  0  0  0
  2  3  1  0  0  0
  3  4  2  0  0  0
  4  5  1  0  0  0
  5  6  2  0  0  0
  6  7  1  0  0  0
  7 24  1  0  0  0
 24 26  1  0  0  0
 26 27  2  0  0  0
 27 28  1  0  0  0
 28 29  2  0  0  0
 29 30  1  0  0  0
 29 31  1  0  0  0
 31 32  1  0  0  0
 31 33  2  0  0  0
 33 34  1  0  0  0
  7  8  2  0  0  0
  8  9  1  0  0  0
  9 10  2  0  0  0
 10 11  1  0  0  0
 11 12  1  0  0  0
 12 13  2  0  0  0
 12 15  1  0  0  0
 15 16  1  0  0  0
 16 17  1  0  0  0
 17 18  1  0  0  0
 18 19  1  0  0  0
 19 20  1  0  0  0
 20 21  2  0  0  0
 20 22  1  0  0  0
 22 23  2  0  0  0
 10  1  1  0  0  0
 19 15  1  0  0  0
  8  3  1  0  0  0
 33 26  1  0  0  0
 24 25  1  0  0  0
 11 14  1  0  0  0
M  END
> <minimizedAffinity>
-7.44126

> <CNNscore>
0.6906834245

> <CNNaffinity>
7.4088196754

> <CNN_VS>
5.1171488762

> <CNNaffinity_variance>
0.1353666335

$$$$
[H]C([H])=C([H])C(=O)N1C([H])([H])C([H])([H])C([H])([H])[C@@]1([H])C(=O)N([H])c1c(OC([H])([H])C([H])([H])OC([H])([H])[H])c([H])c2nc([H])nc(N([H])c3c([H])c([H])c(F)c(Cl)c3F)c2c1[H]


 39 42  0  0  0  0  0  0  0  0999 V2000
    1.6829  -51.5713  -23.1134 C   0  0  0  0  0  0  0  0  0  0  0  0
    0.6048  -52.3765  -23.3874 C   0  0  0  0  0  0  0  0  0  0  0  0
   -0.0761  -52.9843  -22.3559 C   0  0  0  0  0  0  0  0  0  0  0  0
   -1.1271  -53.7600  -22.6915 N   0  0  0  0  0  0  0  0  0  0  0  0
   -1.8232  -54.3727  -21.7173 C   0  0  0  0  0  0  0  0  0  0  0  0
   -1.4536  -54.1945  -20.4562 N   0  0  0  0  0  0  0  0  0  0  0  0
   -0.4365  -53.4538  -20.0083 C   0  0  0  0  0  0  0  0  0  0  0  0
    0.2799  -52.8210  -21.0363 C   0  0  0  0  0  0  0  0  0  0  0  0
    1.3659  -52.0084  -20.7936 C   0  0  0  0  0  0  0  0  0  0  0  0
    2.0912  -51.3711  -21.7630 C   0  0  0  0  0  0  0  0  0  0  0  0
    3.1919  -50.5413  -21.5565 N   0  0  0  0  0  0  0  0  0  0  0  0
    3.7648  -50.0914  -20.3402 C   0  0  0  0  0  0  0  0  0  0  0  0
    3.2640  -50.4575  -19.2398 O   0  0  0  0  0  0  0  0  0  0  0  0
    3.7000  -50.1879  -22.4522 H   0  0  0  0  0  0  0  0  0  0  0  0
    4.9154  -49.2282  -20.3693 C   0  0  0  0  0  0  0  0  0  0  0  0
    5.5441  -48.7952  -19.0937 C   0  0  0  0  0  0  0  0  0  0  0  0
    6.6941  -47.9408  -19.6829 C   0  0  0  0  0  0  0  0  0  0  0  0
    6.2161  -47.5738  -21.1170 C   0  0  0  0  0  0  0  0  0  0  0  0
    4.8204  -47.9371  -21.0402 N   0  0  0  0  0  0  0  0  0  0  0  0
    3.6974  -47.2125  -21.3615 C   0  0  0  0  0  0  0  0  0  0  0  0
    2.5615  -47.6321  -20.8296 O   0  0  0  0  0  0  0  0  0  0  0  0
    3.5055  -46.0555  -22.1883 C   0  0  0  0  0  0  0  0  0  0  0  0
    2.8179  -45.9567  -23.2862 C   0  0  0  0  0  0  0  0  0  0  0  0
   -0.0909  -53.3105  -18.6812 N   0  0  0  0  0  0  0  0  0  0  0  0
    0.6364  -54.0024  -18.2922 H   0  0  0  0  0  0  0  0  0  0  0  0
   -0.5774  -52.3528  -17.7455 C   0  0  0  0  0  0  0  0  0  0  0  0
    0.0764  -51.2183  -17.3722 C   0  0  0  0  0  0  0  0  0  0  0  0
   -0.4988  -50.3596  -16.4429 C   0  0  0  0  0  0  0  0  0  0  0  0
   -1.7063  -50.5910  -15.8697 C   0  0  0  0  0  0  0  0  0  0  0  0
   -2.2661  -49.7509  -14.9624 F   0  0  0  0  0  0  0  0  0  0  0  0
   -2.3859  -51.7289  -16.2295 C   0  0  0  0  0  0  0  0  0  0  0  0
   -3.9530  -52.0686  -15.5136 Cl  0  0  0  0  0  0  0  0  0  0  0  0
   -1.8296  -52.5822  -17.1438 C   0  0  0  0  0  0  0  0  0  0  0  0
   -2.5158  -53.7135  -17.4961 F   0  0  0  0  0  0  0  0  0  0  0  0
    2.3706  -50.9645  -24.1155 O   0  0  0  0  0  0  0  0  0  0  0  0
    2.3687  -51.0464  -25.4761 C   0  0  0  0  0  0  0  0  0  0  0  0
    3.1625  -52.1660  -26.1017 C   0  0  0  0  0  0  0  0  0  0  0  0
    1.2780  -53.2103  -26.9937 C   0  0  0  0  0  0  0  0  0  0  0  0
    2.4265  -53.3228  -26.2620 O   0  0  0  0  0  0  0  0  0  0  0  0
 38 39  1  0  0  0
 39 37  1  0  0  0
 37 36  1  0  0  0
 36 35  1  0  0  0
 35  1  1  0  0  0
  1  2  2  0  0  0
  2  3  1  0  0  0
  3  4  2  0  0  0
  4  5  1  0  0  0
  5  6  2  0  0  0
  6  7  1  0  0  0
  7 24  1  0  0  0
 24 26  1  0  0  0
 26 27  2  0  0  0
 27 28  1  0  0  0
 28 29  2  0  0  0
 29 30  1  0  0  0
 29 31  1  0  0  0
 31 32  1  0  0  0
 31 33  2  0  0  0
 33 34  1  0  0  0
  7  8  2  0  0  0
  8  9  1  0  0  0
  9 10  2  0  0  0
 10 11  1  0  0  0
 11 12  1  0  0  0
 12 13  2  0  0  0
 12 15  1  0  0  0
 15 16  1  0  0  0
 16 17  1  0  0  0
 17 18  1  0  0  0
 18 19  1  0  0  0
 19 20  1  0  0  0
 20 21  2  0  0  0
 20 22  1  0  0  0
 22 23  2  0  0  0
 10  1  1  0  0  0
 19 15  1  0  0  0
  8  3  1  0  0  0
 33 26  1  0  0  0
 24 25  1  0  0  0
 11 14  1  0  0  0
M  END
> <minimizedAffinity>
-7.02425

> <CNNscore>
0.6578130126

> <CNNaffinity>
7.5240058899

> <CNN_VS>
4.9493889809

> <CNNaffinity_variance>
0.1012999415

$$$$
[H]C([H])=C([H])C(=O)N1C([H])([H])C([H])([H])C([H])([H])[C@@]1([H])C(=O)N([H])c1c(OC([H])([H])C([H])([H])OC([H])([H])[H])c([H])c2nc([H])nc(N([H])c3c([H])c([H])c(F)c(Cl)c3F)c2c1[H]


 39 42  0  0  0  0  0  0  0  0999 V2000
   -0.4785  -52.0114  -18.1765 C   0  0  0  0  0  0  0  0  0  0  0  0
   -1.1062  -53.0428  -18.8305 C   0  0  0  0  0  0  0  0  0  0  0  0
   -0.8483  -53.2657  -20.1650 C   0  0  0  0  0  0  0  0  0  0  0  0
   -1.4946  -54.2959  -20.7481 N   0  0  0  0  0  0  0  0  0  0  0  0
   -1.2730  -54.5524  -22.0497 C   0  0  0  0  0  0  0  0  0  0  0  0
   -0.4252  -53.7832  -22.7193 N   0  0  0  0  0  0  0  0  0  0  0  0
    0.2672  -52.7424  -22.2491 C   0  0  0  0  0  0  0  0  0  0  0  0
    0.0255  -52.4874  -20.8901 C   0  0  0  0  0  0  0  0  0  0  0  0
    0.6387  -51.4601  -20.2065 C   0  0  0  0  0  0  0  0  0  0  0  0
    0.4347  -51.1768  -18.8836 C   0  0  0  0  0  0  0  0  0  0  0  0
    1.0369  -50.1500  -18.1587 N   0  0  0  0  0  0  0  0  0  0  0  0
    2.3502  -50.0710  -17.6303 C   0  0  0  0  0  0  0  0  0  0  0  0
    3.1535  -51.0300  -17.8053 O   0  0  0  0  0  0  0  0  0  0  0  0
    0.4223  -49.2708  -17.9724 H   0  0  0  0  0  0  0  0  0  0  0  0
    2.7589  -48.8970  -16.9062 C   0  0  0  0  0  0  0  0  0  0  0  0
    1.7721  -48.1686  -16.0662 C   0  0  0  0  0  0  0  0  0  0  0  0
    2.7060  -47.0566  -15.5268 C   0  0  0  0  0  0  0  0  0  0  0  0
    3.8773  -46.9971  -16.5487 C   0  0  0  0  0  0  0  0  0  0  0  0
    3.3285  -47.7713  -17.6374 N   0  0  0  0  0  0  0  0  0  0  0  0
    3.2253  -47.4704  -18.9747 C   0  0  0  0  0  0  0  0  0  0  0  0
    2.3410  -48.1728  -19.6632 O   0  0  0  0  0  0  0  0  0  0  0  0
    3.9102  -46.5168  -19.7997 C   0  0  0  0  0  0  0  0  0  0  0  0
    3.8054  -46.3415  -21.0827 C   0  0  0  0  0  0  0  0  0  0  0  0
    1.1315  -51.9695  -22.9953 N   0  0  0  0  0  0  0  0  0  0  0  0
    1.4283  -51.0260  -22.5702 H   0  0  0  0  0  0  0  0  0  0  0  0
    1.6906  -52.2613  -24.2726 C   0  0  0  0  0  0  0  0  0  0  0  0
    2.9901  -52.5967  -24.5024 C   0  0  0  0  0  0  0  0  0  0  0  0
    3.4217  -52.8551  -25.7980 C   0  0  0  0  0  0  0  0  0  0  0  0
    2.6025  -52.7913  -26.8775 C   0  0  0  0  0  0  0  0  0  0  0  0
    3.0263  -53.0441  -28.1419 F   0  0  0  0  0  0  0  0  0  0  0  0
    1.2869  -52.4550  -26.6722 C   0  0  0  0  0  0  0  0  0  0  0  0
    0.1900  -52.3613  -28.0403 Cl  0  0  0  0  0  0  0  0  0  0  0  0
    0.8502  -52.1983  -25.4007 C   0  0  0  0  0  0  0  0  0  0  0  0
   -0.4636  -51.8645  -25.2071 F   0  0  0  0  0  0  0  0  0  0  0  0
   -0.7203  -51.7720  -16.8613 O   0  0  0  0  0  0  0  0  0  0  0  0
   -0.1713  -52.1908  -15.6862 C   0  0  0  0  0  0  0  0  0  0  0  0
    0.1573  -51.1338  -14.6617 C   0  0  0  0  0  0  0  0  0  0  0  0
    2.3764  -51.7335  -14.2705 C   0  0  0  0  0  0  0  0  0  0  0  0
    1.1232  -51.5384  -13.7622 O   0  0  0  0  0  0  0  0  0  0  0  0
 38 39  1  0  0  0
 39 37  1  0  0  0
 37 36  1  0  0  0
 36 35  1  0  0  0
 35  1  1  0  0  0
  1  2  2  0  0  0
  2  3  1  0  0  0
  3  4  2  0  0  0
  4  5  1  0  0  0
  5  6  2  0  0  0
  6  7  1  0  0  0
  7 24  1  0  0  0
 24 26  1  0  0  0
 26 27  2  0  0  0
 27 28  1  0  0  0
 28 29  2  0  0  0
 29 30  1  0  0  0
 29 31  1  0  0  0
 31 32  1  0  0  0
 31 33  2  0  0  0
 33 34  1  0  0  0
  7  8  2  0  0  0
  8  9  1  0  0  0
  9 10  2  0  0  0
 10 11  1  0  0  0
 11 12  1  0  0  0
 12 13  2  0  0  0
 12 15  1  0  0  0
 15 16  1  0  0  0
 16 17  1  0  0  0
 17 18  1  0  0  0
 18 19  1  0  0  0
 19 20  1  0  0  0
 20 21  2  0  0  0
 20 22  1  0  0  0
 22 23  2  0  0  0
 10  1  1  0  0  0
 19 15  1  0  0  0
  8  3  1  0  0  0
 33 26  1  0  0  0
 24 25  1  0  0  0
 11 14  1  0  0  0
M  END
> <minimizedAffinity>
-7.35777

> <CNNscore>
0.6571359634

> <CNNaffinity>
7.5390825272

> <CNN_VS>
4.9542021751

> <CNNaffinity_variance>
0.0970163569

$$$$
[H]/C(C(=O)N([H])c1c(OC([H])([H])C([H])([H])[H])c([H])c2nc([H])c(C#N)c(N([H])c3c([H])c([H])c(OC([H])([H])c4c([H])c([H])c([H])c([H])c4[H])c(Cl)c3[H])c2c1[H])=C(/[H])C([H])([H])N(C([H])([H])[H])C([H])([H])[H]


 42 45  0  0  0  0  0  0  0  0999 V2000
   -0.3859  -52.9124  -19.3298 C   0  0  0  0  0  0  0  0  0  0  0  0
   -0.8227  -53.9589  -20.1202 C   0  0  0  0  0  0  0  0  0  0  0  0
   -0.7437  -53.9228  -21.4958 C   0  0  0  0  0  0  0  0  0  0  0  0
   -1.1730  -54.9518  -22.2645 N   0  0  0  0  0  0  0  0  0  0  0  0
   -1.0876  -54.9023  -23.6188 C   0  0  0  0  0  0  0  0  0  0  0  0
   -0.5576  -53.7962  -24.2678 C   0  0  0  0  0  0  0  0  0  0  0  0
   -0.1285  -52.7629  -23.4597 C   0  0  0  0  0  0  0  0  0  0  0  0
   -0.2124  -52.8071  -22.0849 C   0  0  0  0  0  0  0  0  0  0  0  0
    0.2277  -51.7535  -21.2898 C   0  0  0  0  0  0  0  0  0  0  0  0
    0.1663  -51.7511  -19.9240 C   0  0  0  0  0  0  0  0  0  0  0  0
    0.5914  -50.7136  -19.0619 N   0  0  0  0  0  0  0  0  0  0  0  0
    1.8292  -50.5737  -18.4427 C   0  0  0  0  0  0  0  0  0  0  0  0
    2.7410  -51.4127  -18.6024 O   0  0  0  0  0  0  0  0  0  0  0  0
   -0.1058  -49.9234  -18.8410 H   0  0  0  0  0  0  0  0  0  0  0  0
    2.1521  -49.4489  -17.5702 C   0  0  0  0  0  0  0  0  0  0  0  0
    2.8061  -48.3673  -17.9223 C   0  0  0  0  0  0  0  0  0  0  0  0
    3.1331  -47.2345  -17.0471 C   0  0  0  0  0  0  0  0  0  0  0  0
    2.9481  -47.3804  -15.6651 N   0  0  0  0  0  0  0  0  0  0  0  0
    1.8607  -46.6785  -15.0914 C   0  0  0  0  0  0  0  0  0  0  0  0
    4.0656  -47.6528  -14.8438 C   0  0  0  0  0  0  0  0  0  0  0  0
   -0.4641  -53.7373  -25.7035 C   0  0  0  0  0  0  0  0  0  0  0  0
   -0.3748  -53.7048  -26.8576 N   0  0  0  0  0  0  0  0  0  0  0  0
    0.4279  -51.5929  -24.0319 N   0  0  0  0  0  0  0  0  0  0  0  0
   -0.1653  -51.0034  -24.6252 H   0  0  0  0  0  0  0  0  0  0  0  0
    1.7816  -51.2734  -23.7683 C   0  0  0  0  0  0  0  0  0  0  0  0
    2.1725  -50.0342  -23.3549 C   0  0  0  0  0  0  0  0  0  0  0  0
    3.5100  -49.7289  -23.0936 C   0  0  0  0  0  0  0  0  0  0  0  0
    4.4608  -50.7037  -23.2574 C   0  0  0  0  0  0  0  0  0  0  0  0
    4.0538  -51.9588  -23.6776 C   0  0  0  0  0  0  0  0  0  0  0  0
    5.2476  -53.2335  -23.8988 Cl  0  0  0  0  0  0  0  0  0  0  0  0
    2.7421  -52.2520  -23.9319 C   0  0  0  0  0  0  0  0  0  0  0  0
    5.8021  -50.4688  -23.0157 O   0  0  0  0  0  0  0  0  0  0  0  0
    6.6547  -50.1456  -24.0914 C   0  0  0  0  0  0  0  0  0  0  0  0
    6.4480  -48.7489  -24.5246 C   0  0  0  0  0  0  0  0  0  0  0  0
    6.7609  -47.7249  -23.6892 C   0  0  0  0  0  0  0  0  0  0  0  0
    6.5633  -46.4222  -24.1114 C   0  0  0  0  0  0  0  0  0  0  0  0
    6.0473  -46.1919  -25.3854 C   0  0  0  0  0  0  0  0  0  0  0  0
    5.7259  -47.2080  -26.2419 C   0  0  0  0  0  0  0  0  0  0  0  0
    5.9411  -48.5037  -25.7753 C   0  0  0  0  0  0  0  0  0  0  0  0
   -0.4572  -52.9364  -17.9680 O   0  0  0  0  0  0  0  0  0  0  0  0
   -1.6105  -51.6046  -16.2697 C   0  0  0  0  0  0  0  0  0  0  0  0
   -1.6116  -52.7651  -17.2378 C   0  0  0  0  0  0  0  0  0  0  0  0
 41 42  1  0  0  0
 42 40  1  0  0  0
 40  1  1  0  0  0
  1  2  2  0  0  0
  2  3  1  0  0  0
  3  4  2  0  0  0
  4  5  1  0  0  0
  5  6  2  0  0  0
  6 21  1  0  0  0
 21 22  3  0  0  0
  6  7  1  0  0  0
  7 23  1  0  0  0
 23 25  1  0  0  0
 25 26  2  0  0  0
 26 27  1  0  0  0
 27 28  2  0  0  0
 28 32  1  0  0  0
 32 33  1  0  0  0
 33 34  1  0  0  0
 34 35  2  0  0  0
 35 36  1  0  0  0
 36 37  2  0  0  0
 37 38  1  0  0  0
 38 39  2  0  0  0
 28 29  1  0  0  0
 29 30  1  0  0  0
 29 31  2  0  0  0
  7  8  2  0  0  0
  8  9  1  0  0  0
  9 10  2  0  0  0
 10 11  1  0  0  0
 11 12  1  0  0  0
 12 13  2  0  0  0
 12 15  1  0  0  0
 15 16  2  0  0  0
 16 17  1  0  0  0
 17 18  1  0  0  0
 18 19  1  0  0  0
 18 20  1  0  0  0
 10  1  1  0  0  0
  8  3  1  0  0  0
 31 25  1  0  0  0
 39 34  1  0  0  0
 23 24  1  0  0  0
 11 14  1  0  0  0
M  END
> <minimizedAffinity>
-6.89401

> <CNNscore>
0.6499130726

> <CNNaffinity>
7.6969881058

> <CNN_VS>
5.0023732185

> <CNNaffinity_variance>
0.1138077229

$$$$
[H]/C(C(=O)N([H])c1c(OC([H])([H])C([H])([H])[H])c([H])c2nc([H])c(C#N)c(N([H])c3c([H])c([H])c(OC([H])([H])c4c([H])c([H])c([H])c([H])c4[H])c(Cl)c3[H])c2c1[H])=C(/[H])C([H])([H])N(C([H])([H])[H])C([H])([H])[H]


 42 45  0  0  0  0  0  0  0  0999 V2000
   -0.5649  -52.8677  -19.3457 C   0  0  0  0  0  0  0  0  0  0  0  0
   -0.9369  -53.9469  -20.1251 C   0  0  0  0  0  0  0  0  0  0  0  0
   -0.8036  -53.9425  -21.4970 C   0  0  0  0  0  0  0  0  0  0  0  0
   -1.1695  -55.0034  -22.2550 N   0  0  0  0  0  0  0  0  0  0  0  0
   -1.0311  -54.9849  -23.6056 C   0  0  0  0  0  0  0  0  0  0  0  0
   -0.5097  -53.8790  -24.2618 C   0  0  0  0  0  0  0  0  0  0  0  0
   -0.1457  -52.8127  -23.4646 C   0  0  0  0  0  0  0  0  0  0  0  0
   -0.2836  -52.8254  -22.0935 C   0  0  0  0  0  0  0  0  0  0  0  0
    0.0912  -51.7389  -21.3094 C   0  0  0  0  0  0  0  0  0  0  0  0
   -0.0253  -51.7045  -19.9476 C   0  0  0  0  0  0  0  0  0  0  0  0
    0.3324  -50.6329  -19.0967 N   0  0  0  0  0  0  0  0  0  0  0  0
    1.5451  -50.4295  -18.4463 C   0  0  0  0  0  0  0  0  0  0  0  0
    2.4943  -51.2335  -18.5620 O   0  0  0  0  0  0  0  0  0  0  0  0
   -0.4023  -49.8675  -18.9128 H   0  0  0  0  0  0  0  0  0  0  0  0
    1.7969  -49.2747  -17.5898 C   0  0  0  0  0  0  0  0  0  0  0  0
    1.3328  -49.1046  -16.3744 C   0  0  0  0  0  0  0  0  0  0  0  0
    1.5836  -47.9440  -15.5105 C   0  0  0  0  0  0  0  0  0  0  0  0
    0.4879  -47.2995  -14.9194 N   0  0  0  0  0  0  0  0  0  0  0  0
   -0.7936  -47.8238  -15.2148 C   0  0  0  0  0  0  0  0  0  0  0  0
    0.5828  -45.9250  -14.6045 C   0  0  0  0  0  0  0  0  0  0  0  0
   -0.3602  -53.8527  -25.6938 C   0  0  0  0  0  0  0  0  0  0  0  0
   -0.2525  -53.8479  -26.8467 N   0  0  0  0  0  0  0  0  0  0  0  0
    0.3969  -51.6401  -24.0447 N   0  0  0  0  0  0  0  0  0  0  0  0
   -0.1897  -51.0848  -24.6763 H   0  0  0  0  0  0  0  0  0  0  0  0
    1.7283  -51.2711  -23.7360 C   0  0  0  0  0  0  0  0  0  0  0  0
    2.0549  -50.0274  -23.2821 C   0  0  0  0  0  0  0  0  0  0  0  0
    3.3708  -49.6731  -22.9764 C   0  0  0  0  0  0  0  0  0  0  0  0
    4.3663  -50.6028  -23.1372 C   0  0  0  0  0  0  0  0  0  0  0  0
    4.0243  -51.8628  -23.5989 C   0  0  0  0  0  0  0  0  0  0  0  0
    5.2768  -53.0804  -23.8175 Cl  0  0  0  0  0  0  0  0  0  0  0  0
    2.7336  -52.2041  -23.8965 C   0  0  0  0  0  0  0  0  0  0  0  0
    5.6894  -50.3181  -22.8527 O   0  0  0  0  0  0  0  0  0  0  0  0
    6.1717  -50.5008  -21.5402 C   0  0  0  0  0  0  0  0  0  0  0  0
    5.9783  -49.2785  -20.7344 C   0  0  0  0  0  0  0  0  0  0  0  0
    5.2670  -49.3319  -19.5786 C   0  0  0  0  0  0  0  0  0  0  0  0
    5.0971  -48.1781  -18.8342 C   0  0  0  0  0  0  0  0  0  0  0  0
    5.6607  -46.9873  -19.2889 C   0  0  0  0  0  0  0  0  0  0  0  0
    6.3802  -46.9116  -20.4491 C   0  0  0  0  0  0  0  0  0  0  0  0
    6.5260  -48.0977  -21.1667 C   0  0  0  0  0  0  0  0  0  0  0  0
   -0.6904  -52.8601  -17.9876 O   0  0  0  0  0  0  0  0  0  0  0  0
   -1.9655  -51.7880  -16.1953 C   0  0  0  0  0  0  0  0  0  0  0  0
   -1.8867  -52.8069  -17.3086 C   0  0  0  0  0  0  0  0  0  0  0  0
 41 42  1  0  0  0
 42 40  1  0  0  0
 40  1  1  0  0  0
  1  2  2  0  0  0
  2  3  1  0  0  0
  3  4  2  0  0  0
  4  5  1  0  0  0
  5  6  2  0  0  0
  6 21  1  0  0  0
 21 22  3  0  0  0
  6  7  1  0  0  0
  7 23  1  0  0  0
 23 25  1  0  0  0
 25 26  2  0  0  0
 26 27  1  0  0  0
 27 28  2  0  0  0
 28 32  1  0  0  0
 32 33  1  0  0  0
 33 34  1  0  0  0
 34 35  2  0  0  0
 35 36  1  0  0  0
 36 37  2  0  0  0
 37 38  1  0  0  0
 38 39  2  0  0  0
 28 29  1  0  0  0
 29 30  1  0  0  0
 29 31  2  0  0  0
  7  8  2  0  0  0
  8  9  1  0  0  0
  9 10  2  0  0  0
 10 11  1  0  0  0
 11 12  1  0  0  0
 12 13  2  0  0  0
 12 15  1  0  0  0
 15 16  2  0  0  0
 16 17  1  0  0  0
 17 18  1  0  0  0
 18 19  1  0  0  0
 18 20  1  0  0  0
 10  1  1  0  0  0
  8  3  1  0  0  0
 31 25  1  0  0  0
 39 34  1  0  0  0
 23 24  1  0  0  0
 11 14  1  0  0  0
M  END
> <minimizedAffinity>
-7.18485

> <CNNscore>
0.6482564211

> <CNNaffinity>
7.5589513779

> <CNN_VS>
4.9001388550

> <CNNaffinity_variance>
0.1290211380

$$$$
[H]/C(C(=O)N([H])c1c(OC([H])([H])C([H])([H])[H])c([H])c2nc([H])c(C#N)c(N([H])c3c([H])c([H])c(OC([H])([H])c4c([H])c([H])c([H])c([H])c4[H])c(Cl)c3[H])c2c1[H])=C(/[H])C([H])([H])N(C([H])([H])[H])C([H])([H])[H]


 42 45  0  0  0  0  0  0  0  0999 V2000
   -0.3082  -52.8248  -19.6999 C   0  0  0  0  0  0  0  0  0  0  0  0
   -0.6491  -53.9455  -20.4335 C   0  0  0  0  0  0  0  0  0  0  0  0
   -0.6071  -53.9622  -21.8111 C   0  0  0  0  0  0  0  0  0  0  0  0
   -0.9419  -55.0638  -22.5241 N   0  0  0  0  0  0  0  0  0  0  0  0
   -0.8944  -55.0655  -23.8811 C   0  0  0  0  0  0  0  0  0  0  0  0
   -0.5014  -53.9394  -24.5901 C   0  0  0  0  0  0  0  0  0  0  0  0
   -0.1662  -52.8317  -23.8381 C   0  0  0  0  0  0  0  0  0  0  0  0
   -0.2123  -52.8237  -22.4607 C   0  0  0  0  0  0  0  0  0  0  0  0
    0.1313  -51.6953  -21.7228 C   0  0  0  0  0  0  0  0  0  0  0  0
    0.1024  -51.6390  -20.3571 C   0  0  0  0  0  0  0  0  0  0  0  0
    0.4344  -50.5252  -19.5511 N   0  0  0  0  0  0  0  0  0  0  0  0
    1.6870  -50.1719  -19.0599 C   0  0  0  0  0  0  0  0  0  0  0  0
    2.7035  -50.8566  -19.3024 O   0  0  0  0  0  0  0  0  0  0  0  0
   -0.3575  -49.8525  -19.2688 H   0  0  0  0  0  0  0  0  0  0  0  0
    1.9054  -48.9883  -18.2342 C   0  0  0  0  0  0  0  0  0  0  0  0
    2.3831  -48.9822  -17.0122 C   0  0  0  0  0  0  0  0  0  0  0  0
    2.6034  -47.7935  -16.1787 C   0  0  0  0  0  0  0  0  0  0  0  0
    3.8980  -47.5378  -15.7052 N   0  0  0  0  0  0  0  0  0  0  0  0
    4.2215  -48.0549  -14.4276 C   0  0  0  0  0  0  0  0  0  0  0  0
    4.5742  -46.3746  -16.1377 C   0  0  0  0  0  0  0  0  0  0  0  0
   -0.4488  -53.9344  -26.0291 C   0  0  0  0  0  0  0  0  0  0  0  0
   -0.3996  -53.9110  -27.1858 N   0  0  0  0  0  0  0  0  0  0  0  0
    0.2480  -51.6358  -24.4738 N   0  0  0  0  0  0  0  0  0  0  0  0
   -0.4665  -51.0005  -24.8441 H   0  0  0  0  0  0  0  0  0  0  0  0
    1.6315  -51.3544  -24.5783 C   0  0  0  0  0  0  0  0  0  0  0  0
    2.1084  -50.2827  -25.2736 C   0  0  0  0  0  0  0  0  0  0  0  0
    3.4749  -50.0106  -25.3684 C   0  0  0  0  0  0  0  0  0  0  0  0
    4.3660  -50.8457  -24.7442 C   0  0  0  0  0  0  0  0  0  0  0  0
    3.8718  -51.9315  -24.0409 C   0  0  0  0  0  0  0  0  0  0  0  0
    4.9872  -53.0243  -23.2281 Cl  0  0  0  0  0  0  0  0  0  0  0  0
    2.5321  -52.1928  -23.9514 C   0  0  0  0  0  0  0  0  0  0  0  0
    5.7316  -50.6340  -24.7976 O   0  0  0  0  0  0  0  0  0  0  0  0
    6.2656  -49.4232  -24.3100 C   0  0  0  0  0  0  0  0  0  0  0  0
    6.0704  -49.3129  -22.8503 C   0  0  0  0  0  0  0  0  0  0  0  0
    6.8010  -50.0867  -22.0065 C   0  0  0  0  0  0  0  0  0  0  0  0
    6.6075  -49.9693  -20.6416 C   0  0  0  0  0  0  0  0  0  0  0  0
    5.6665  -49.0585  -20.1648 C   0  0  0  0  0  0  0  0  0  0  0  0
    4.9208  -48.2702  -20.9965 C   0  0  0  0  0  0  0  0  0  0  0  0
    5.1485  -48.4217  -22.3634 C   0  0  0  0  0  0  0  0  0  0  0  0
   -0.3442  -52.7959  -18.3368 O   0  0  0  0  0  0  0  0  0  0  0  0
   -1.5437  -51.8364  -16.4319 C   0  0  0  0  0  0  0  0  0  0  0  0
   -1.4938  -52.8182  -17.5798 C   0  0  0  0  0  0  0  0  0  0  0  0
 41 42  1  0  0  0
 42 40  1  0  0  0
 40  1  1  0  0  0
  1  2  2  0  0  0
  2  3  1  0  0  0
  3  4  2  0  0  0
  4  5  1  0  0  0
  5  6  2  0  0  0
  6 21  1  0  0  0
 21 22  3  0  0  0
  6  7  1  0  0  0
  7 23  1  0  0  0
 23 25  1  0  0  0
 25 26  2  0  0  0
 26 27  1  0  0  0
 27 28  2  0  0  0
 28 32  1  0  0  0
 32 33  1  0  0  0
 33 34  1  0  0  0
 34 35  2  0  0  0
 35 36  1  0  0  0
 36 37  2  0  0  0
 37 38  1  0  0  0
 38 39  2  0  0  0
 28 29  1  0  0  0
 29 30  1  0  0  0
 29 31  2  0  0  0
  7  8  2  0  0  0
  8  9  1  0  0  0
  9 10  2  0  0  0
 10 11  1  0  0  0
 11 12  1  0  0  0
 12 13  2  0  0  0
 12 15  1  0  0  0
 15 16  2  0  0  0
 16 17  1  0  0  0
 17 18  1  0  0  0
 18 19  1  0  0  0
 18 20  1  0  0  0
 10  1  1  0  0  0
  8  3  1  0  0  0
 31 25  1  0  0  0
 39 34  1  0  0  0
 23 24  1  0  0  0
 11 14  1  0  0  0
M  END
> <minimizedAffinity>
-6.81959

> <CNNscore>
0.5844262242

> <CNNaffinity>
7.6459488869

> <CNN_VS>
4.4684929848

> <CNNaffinity_variance>
0.1280722171

$$$$
[H]/C(C(=O)N([H])c1c(OC([H])([H])C([H])([H])[H])c([H])c2nc([H])c(C#N)c(N([H])c3c([H])c([H])c(OC([H])([H])c4c([H])c([H])c([H])c([H])c4[H])c(Cl)c3[H])c2c1[H])=C(/[H])C([H])([H])N(C([H])([H])[H])C([H])([H])[H]


 42 45  0  0  0  0  0  0  0  0999 V2000
   -0.4402  -52.8971  -19.5011 C   0  0  0  0  0  0  0  0  0  0  0  0
   -0.8664  -53.9816  -20.2446 C   0  0  0  0  0  0  0  0  0  0  0  0
   -0.7909  -54.0037  -21.6206 C   0  0  0  0  0  0  0  0  0  0  0  0
   -1.2097  -55.0697  -22.3433 N   0  0  0  0  0  0  0  0  0  0  0  0
   -1.1280  -55.0775  -23.6987 C   0  0  0  0  0  0  0  0  0  0  0  0
   -0.6126  -53.9942  -24.3960 C   0  0  0  0  0  0  0  0  0  0  0  0
   -0.1939  -52.9222  -23.6343 C   0  0  0  0  0  0  0  0  0  0  0  0
   -0.2742  -52.9082  -22.2586 C   0  0  0  0  0  0  0  0  0  0  0  0
    0.1552  -51.8164  -21.5107 C   0  0  0  0  0  0  0  0  0  0  0  0
    0.0969  -51.7560  -20.1461 C   0  0  0  0  0  0  0  0  0  0  0  0
    0.5116  -50.6774  -19.3305 N   0  0  0  0  0  0  0  0  0  0  0  0
    1.7241  -50.5296  -18.6648 C   0  0  0  0  0  0  0  0  0  0  0  0
    2.6187  -51.3992  -18.7308 O   0  0  0  0  0  0  0  0  0  0  0  0
   -0.1728  -49.8580  -19.1908 H   0  0  0  0  0  0  0  0  0  0  0  0
    2.0387  -49.3609  -17.8490 C   0  0  0  0  0  0  0  0  0  0  0  0
    3.1604  -49.1575  -17.1995 C   0  0  0  0  0  0  0  0  0  0  0  0
    3.4798  -47.9834  -16.3775 C   0  0  0  0  0  0  0  0  0  0  0  0
    3.2063  -48.0331  -15.0034 N   0  0  0  0  0  0  0  0  0  0  0  0
    3.8052  -49.0880  -14.2735 C   0  0  0  0  0  0  0  0  0  0  0  0
    1.9858  -47.5069  -14.5227 C   0  0  0  0  0  0  0  0  0  0  0  0
   -0.5231  -53.9959  -25.8332 C   0  0  0  0  0  0  0  0  0  0  0  0
   -0.4338  -53.9861  -26.9877 N   0  0  0  0  0  0  0  0  0  0  0  0
    0.3472  -51.7714  -24.2578 N   0  0  0  0  0  0  0  0  0  0  0  0
   -0.2940  -51.0848  -24.6685 H   0  0  0  0  0  0  0  0  0  0  0  0
    1.7525  -51.6041  -24.2948 C   0  0  0  0  0  0  0  0  0  0  0  0
    2.6143  -52.6607  -24.2843 C   0  0  0  0  0  0  0  0  0  0  0  0
    3.9995  -52.4865  -24.3248 C   0  0  0  0  0  0  0  0  0  0  0  0
    4.5103  -51.2147  -24.3766 C   0  0  0  0  0  0  0  0  0  0  0  0
    3.6268  -50.1484  -24.3866 C   0  0  0  0  0  0  0  0  0  0  0  0
    4.2480  -48.5025  -24.4520 Cl  0  0  0  0  0  0  0  0  0  0  0  0
    2.2711  -50.3253  -24.3469 C   0  0  0  0  0  0  0  0  0  0  0  0
    5.8711  -50.9715  -24.4191 O   0  0  0  0  0  0  0  0  0  0  0  0
    6.6631  -51.2601  -23.2886 C   0  0  0  0  0  0  0  0  0  0  0  0
    6.4048  -50.2910  -22.2046 C   0  0  0  0  0  0  0  0  0  0  0  0
    5.5242  -50.5954  -21.2165 C   0  0  0  0  0  0  0  0  0  0  0  0
    5.2953  -49.6773  -20.2070 C   0  0  0  0  0  0  0  0  0  0  0  0
    5.9749  -48.4607  -20.2285 C   0  0  0  0  0  0  0  0  0  0  0  0
    6.8653  -48.1344  -21.2134 C   0  0  0  0  0  0  0  0  0  0  0  0
    7.0649  -49.0887  -22.2098 C   0  0  0  0  0  0  0  0  0  0  0  0
   -0.5081  -52.8633  -18.1393 O   0  0  0  0  0  0  0  0  0  0  0  0
   -1.7675  -51.8100  -16.3249 C   0  0  0  0  0  0  0  0  0  0  0  0
   -1.6757  -52.8578  -17.4100 C   0  0  0  0  0  0  0  0  0  0  0  0
 41 42  1  0  0  0
 42 40  1  0  0  0
 40  1  1  0  0  0
  1  2  2  0  0  0
  2  3  1  0  0  0
  3  4  2  0  0  0
  4  5  1  0  0  0
  5  6  2  0  0  0
  6 21  1  0  0  0
 21 22  3  0  0  0
  6  7  1  0  0  0
  7 23  1  0  0  0
 23 25  1  0  0  0
 25 26  2  0  0  0
 26 27  1  0  0  0
 27 28  2  0  0  0
 28 32  1  0  0  0
 32 33  1  0  0  0
 33 34  1  0  0  0
 34 35  2  0  0  0
 35 36  1  0  0  0
 36 37  2  0  0  0
 37 38  1  0  0  0
 38 39  2  0  0  0
 28 29  1  0  0  0
 29 30  1  0  0  0
 29 31  2  0  0  0
  7  8  2  0  0  0
  8  9  1  0  0  0
  9 10  2  0  0  0
 10 11  1  0  0  0
 11 12  1  0  0  0
 12 13  2  0  0  0
 12 15  1  0  0  0
 15 16  2  0  0  0
 16 17  1  0  0  0
 17 18  1  0  0  0
 18 19  1  0  0  0
 18 20  1  0  0  0
 10  1  1  0  0  0
  8  3  1  0  0  0
 31 25  1  0  0  0
 39 34  1  0  0  0
 23 24  1  0  0  0
 11 14  1  0  0  0
M  END
> <minimizedAffinity>
-7.36769

> <CNNscore>
0.5675143003

> <CNNaffinity>
7.5910978317

> <CNN_VS>
4.3080563545

> <CNNaffinity_variance>
0.0905839503

$$$$
[H]/C(C(=O)N([H])c1c(OC([H])([H])C([H])([H])[H])c([H])c2nc([H])c(C#N)c(N([H])c3c([H])c([H])c(OC([H])([H])c4c([H])c([H])c([H])c([H])c4[H])c(Cl)c3[H])c2c1[H])=C(/[H])C([H])([H])N(C([H])([H])[H])C([H])([H])[H]


 42 45  0  0  0  0  0  0  0  0999 V2000
    0.7610  -52.4009  -26.9329 C   0  0  0  0  0  0  0  0  0  0  0  0
   -0.2374  -53.0937  -26.2744 C   0  0  0  0  0  0  0  0  0  0  0  0
   -0.1693  -53.3761  -24.9271 C   0  0  0  0  0  0  0  0  0  0  0  0
   -1.1514  -54.0549  -24.2876 N   0  0  0  0  0  0  0  0  0  0  0  0
   -1.0708  -54.3247  -22.9593 C   0  0  0  0  0  0  0  0  0  0  0  0
    0.0201  -53.9161  -22.2054 C   0  0  0  0  0  0  0  0  0  0  0  0
    1.0055  -53.2269  -22.8829 C   0  0  0  0  0  0  0  0  0  0  0  0
    0.9295  -52.9498  -24.2307 C   0  0  0  0  0  0  0  0  0  0  0  0
    1.9349  -52.2523  -24.8930 C   0  0  0  0  0  0  0  0  0  0  0  0
    1.9044  -51.9530  -26.2267 C   0  0  0  0  0  0  0  0  0  0  0  0
    2.8928  -51.2533  -26.9574 N   0  0  0  0  0  0  0  0  0  0  0  0
    3.2838  -49.9268  -26.8076 C   0  0  0  0  0  0  0  0  0  0  0  0
    2.7583  -49.1805  -25.9544 O   0  0  0  0  0  0  0  0  0  0  0  0
    3.4228  -51.7865  -27.7282 H   0  0  0  0  0  0  0  0  0  0  0  0
    4.3256  -49.3142  -27.6261 C   0  0  0  0  0  0  0  0  0  0  0  0
    4.2772  -48.1169  -28.1606 C   0  0  0  0  0  0  0  0  0  0  0  0
    5.3230  -47.4980  -28.9849 C   0  0  0  0  0  0  0  0  0  0  0  0
    5.6572  -48.0998  -30.2062 N   0  0  0  0  0  0  0  0  0  0  0  0
    7.0357  -48.2962  -30.4623 C   0  0  0  0  0  0  0  0  0  0  0  0
    4.7960  -47.9367  -31.3149 C   0  0  0  0  0  0  0  0  0  0  0  0
    0.1118  -54.1989  -20.7965 C   0  0  0  0  0  0  0  0  0  0  0  0
    0.1941  -54.4446  -19.6679 N   0  0  0  0  0  0  0  0  0  0  0  0
    2.1567  -52.7687  -22.1969 N   0  0  0  0  0  0  0  0  0  0  0  0
    3.0699  -53.1617  -22.4477 H   0  0  0  0  0  0  0  0  0  0  0  0
    2.0125  -51.7851  -21.1890 C   0  0  0  0  0  0  0  0  0  0  0  0
    2.3983  -51.9994  -19.8988 C   0  0  0  0  0  0  0  0  0  0  0  0
    2.2557  -51.0219  -18.9116 C   0  0  0  0  0  0  0  0  0  0  0  0
    1.7110  -49.8089  -19.2480 C   0  0  0  0  0  0  0  0  0  0  0  0
    1.3222  -49.6012  -20.5608 C   0  0  0  0  0  0  0  0  0  0  0  0
    0.6189  -48.0564  -21.0274 Cl  0  0  0  0  0  0  0  0  0  0  0  0
    1.4646  -50.5625  -21.5234 C   0  0  0  0  0  0  0  0  0  0  0  0
    1.5420  -48.7975  -18.3201 O   0  0  0  0  0  0  0  0  0  0  0  0
    1.6429  -49.0935  -16.9450 C   0  0  0  0  0  0  0  0  0  0  0  0
    0.3100  -49.3510  -16.3636 C   0  0  0  0  0  0  0  0  0  0  0  0
   -0.2017  -50.6090  -16.3675 C   0  0  0  0  0  0  0  0  0  0  0  0
   -1.4510  -50.8334  -15.8167 C   0  0  0  0  0  0  0  0  0  0  0  0
   -2.1550  -49.7619  -15.2704 C   0  0  0  0  0  0  0  0  0  0  0  0
   -1.6584  -48.4881  -15.2562 C   0  0  0  0  0  0  0  0  0  0  0  0
   -0.3970  -48.3080  -15.8215 C   0  0  0  0  0  0  0  0  0  0  0  0
    0.7050  -52.1139  -28.2651 O   0  0  0  0  0  0  0  0  0  0  0  0
   -1.2026  -52.8881  -29.5878 C   0  0  0  0  0  0  0  0  0  0  0  0
    0.2648  -52.9818  -29.2388 C   0  0  0  0  0  0  0  0  0  0  0  0
 41 42  1  0  0  0
 42 40  1  0  0  0
 40  1  1  0  0  0
  1  2  2  0  0  0
  2  3  1  0  0  0
  3  4  2  0  0  0
  4  5  1  0  0  0
  5  6  2  0  0  0
  6 21  1  0  0  0
 21 22  3  0  0  0
  6  7  1  0  0  0
  7 23  1  0  0  0
 23 25  1  0  0  0
 25 26  2  0  0  0
 26 27  1  0  0  0
 27 28  2  0  0  0
 28 32  1  0  0  0
 32 33  1  0  0  0
 33 34  1  0  0  0
 34 35  2  0  0  0
 35 36  1  0  0  0
 36 37  2  0  0  0
 37 38  1  0  0  0
 38 39  2  0  0  0
 28 29  1  0  0  0
 29 30  1  0  0  0
 29 31  2  0  0  0
  7  8  2  0  0  0
  8  9  1  0  0  0
  9 10  2  0  0  0
 10 11  1  0  0  0
 11 12  1  0  0  0
 12 13  2  0  0  0
 12 15  1  0  0  0
 15 16  2  0  0  0
 16 17  1  0  0  0
 17 18  1  0  0  0
 18 19  1  0  0  0
 18 20  1  0  0  0
 10  1  1  0  0  0
  8  3  1  0  0  0
 31 25  1  0  0  0
 39 34  1  0  0  0
 23 24  1  0  0  0
 11 14  1  0  0  0
M  END
> <minimizedAffinity>
-6.25167

> <CNNscore>
0.5132158995

> <CNNaffinity>
7.4843010902

> <CNN_VS>
3.8410623074

> <CNNaffinity_variance>
0.1519685090

$$$$
[H]/C(C(=O)N([H])c1c(OC([H])([H])C([H])([H])[H])c([H])c2nc([H])c(C#N)c(N([H])c3c([H])c([H])c(OC([H])([H])c4c([H])c([H])c([H])c([H])c4[H])c(Cl)c3[H])c2c1[H])=C(/[H])C([H])([H])N(C([H])([H])[H])C([H])([H])[H]


 42 45  0  0  0  0  0  0  0  0999 V2000
   -0.6683  -52.8881  -19.2610 C   0  0  0  0  0  0  0  0  0  0  0  0
   -1.0781  -53.9626  -20.0277 C   0  0  0  0  0  0  0  0  0  0  0  0
   -0.9322  -53.9850  -21.3981 C   0  0  0  0  0  0  0  0  0  0  0  0
   -1.3353  -55.0413  -22.1436 N   0  0  0  0  0  0  0  0  0  0  0  0
   -1.1839  -55.0494  -23.4930 C   0  0  0  0  0  0  0  0  0  0  0  0
   -0.6106  -53.9765  -24.1606 C   0  0  0  0  0  0  0  0  0  0  0  0
   -0.2095  -52.9142  -23.3760 C   0  0  0  0  0  0  0  0  0  0  0  0
   -0.3603  -52.9000  -22.0063 C   0  0  0  0  0  0  0  0  0  0  0  0
    0.0526  -51.8181  -21.2350 C   0  0  0  0  0  0  0  0  0  0  0  0
   -0.0748  -51.7579  -19.8751 C   0  0  0  0  0  0  0  0  0  0  0  0
    0.3198  -50.6891  -19.0369 N   0  0  0  0  0  0  0  0  0  0  0  0
    1.5417  -50.5159  -18.3952 C   0  0  0  0  0  0  0  0  0  0  0  0
    2.4658  -51.3491  -18.5082 O   0  0  0  0  0  0  0  0  0  0  0  0
   -0.3906  -49.9003  -18.8566 H   0  0  0  0  0  0  0  0  0  0  0  0
    1.8330  -49.3607  -17.5518 C   0  0  0  0  0  0  0  0  0  0  0  0
    1.3206  -49.1268  -16.3667 C   0  0  0  0  0  0  0  0  0  0  0  0
    1.6109  -47.9656  -15.5161 C   0  0  0  0  0  0  0  0  0  0  0  0
    2.9067  -47.4307  -15.5319 N   0  0  0  0  0  0  0  0  0  0  0  0
    3.8504  -48.0240  -14.6591 C   0  0  0  0  0  0  0  0  0  0  0  0
    3.0888  -46.0723  -15.8770 C   0  0  0  0  0  0  0  0  0  0  0  0
   -0.4471  -53.9786  -25.5913 C   0  0  0  0  0  0  0  0  0  0  0  0
   -0.2957  -53.9755  -26.7393 N   0  0  0  0  0  0  0  0  0  0  0  0
    0.3871  -51.7744  -23.9683 N   0  0  0  0  0  0  0  0  0  0  0  0
   -0.2022  -51.1344  -24.5108 H   0  0  0  0  0  0  0  0  0  0  0  0
    1.7746  -51.5537  -23.7940 C   0  0  0  0  0  0  0  0  0  0  0  0
    2.7127  -52.4691  -24.1700 C   0  0  0  0  0  0  0  0  0  0  0  0
    4.0798  -52.2413  -23.9976 C   0  0  0  0  0  0  0  0  0  0  0  0
    4.4933  -51.0619  -23.4328 C   0  0  0  0  0  0  0  0  0  0  0  0
    3.5329  -50.1389  -23.0541 C   0  0  0  0  0  0  0  0  0  0  0  0
    4.0282  -48.6148  -22.3256 Cl  0  0  0  0  0  0  0  0  0  0  0  0
    2.1952  -50.3675  -23.2257 C   0  0  0  0  0  0  0  0  0  0  0  0
    5.8310  -50.7726  -23.2340 O   0  0  0  0  0  0  0  0  0  0  0  0
    6.6460  -50.4627  -24.3423 C   0  0  0  0  0  0  0  0  0  0  0  0
    6.4829  -49.0486  -24.7355 C   0  0  0  0  0  0  0  0  0  0  0  0
    5.7636  -48.7296  -25.8424 C   0  0  0  0  0  0  0  0  0  0  0  0
    5.6185  -47.3997  -26.1956 C   0  0  0  0  0  0  0  0  0  0  0  0
    6.2147  -46.4183  -25.4059 C   0  0  0  0  0  0  0  0  0  0  0  0
    6.9427  -46.7176  -24.2880 C   0  0  0  0  0  0  0  0  0  0  0  0
    7.0629  -48.0694  -23.9699 C   0  0  0  0  0  0  0  0  0  0  0  0
   -0.8057  -52.8543  -17.9045 O   0  0  0  0  0  0  0  0  0  0  0  0
   -2.1194  -51.8181  -16.1189 C   0  0  0  0  0  0  0  0  0  0  0  0
   -2.0090  -52.8296  -17.2362 C   0  0  0  0  0  0  0  0  0  0  0  0
 41 42  1  0  0  0
 42 40  1  0  0  0
 40  1  1  0  0  0
  1  2  2  0  0  0
  2  3  1  0  0  0
  3  4  2  0  0  0
  4  5  1  0  0  0
  5  6  2  0  0  0
  6 21  1  0  0  0
 21 22  3  0  0  0
  6  7  1  0  0  0
  7 23  1  0  0  0
 23 25  1  0  0  0
 25 26  2  0  0  0
 26 27  1  0  0  0
 27 28  2  0  0  0
 28 32  1  0  0  0
 32 33  1  0  0  0
 33 34  1  0  0  0
 34 35  2  0  0  0
 35 36  1  0  0  0
 36 37  2  0  0  0
 37 38  1  0  0  0
 38 39  2  0  0  0
 28 29  1  0  0  0
 29 30  1  0  0  0
 29 31  2  0  0  0
  7  8  2  0  0  0
  8  9  1  0  0  0
  9 10  2  0  0  0
 10 11  1  0  0  0
 11 12  1  0  0  0
 12 13  2  0  0  0
 12 15  1  0  0  0
 15 16  2  0  0  0
 16 17  1  0  0  0
 17 18  1  0  0  0
 18 19  1  0  0  0
 18 20  1  0  0  0
 10  1  1  0  0  0
  8  3  1  0  0  0
 31 25  1  0  0  0
 39 34  1  0  0  0
 23 24  1  0  0  0
 11 14  1  0  0  0
M  END
> <minimizedAffinity>
-7.06578

> <CNNscore>
0.4793581367

> <CNNaffinity>
7.4551138878

> <CNN_VS>
3.5736694336

> <CNNaffinity_variance>
0.0606372431

$$$$
[H]/C(C(=O)N([H])c1c(OC([H])([H])C([H])([H])[H])c([H])c2nc([H])c(C#N)c(N([H])c3c([H])c([H])c(OC([H])([H])c4c([H])c([H])c([H])c([H])c4[H])c(Cl)c3[H])c2c1[H])=C(/[H])C([H])([H])N(C([H])([H])[H])C([H])([H])[H]


 42 45  0  0  0  0  0  0  0  0999 V2000
   -0.2980  -52.3370  -21.1486 C   0  0  0  0  0  0  0  0  0  0  0  0
   -0.7386  -53.0356  -22.2569 C   0  0  0  0  0  0  0  0  0  0  0  0
    0.0000  -53.1121  -23.4181 C   0  0  0  0  0  0  0  0  0  0  0  0
   -0.4372  -53.7988  -24.5004 N   0  0  0  0  0  0  0  0  0  0  0  0
    0.3023  -53.8663  -25.6372 C   0  0  0  0  0  0  0  0  0  0  0  0
    1.5340  -53.2348  -25.7346 C   0  0  0  0  0  0  0  0  0  0  0  0
    1.9542  -52.5426  -24.6170 C   0  0  0  0  0  0  0  0  0  0  0  0
    1.2085  -52.4704  -23.4604 C   0  0  0  0  0  0  0  0  0  0  0  0
    1.6527  -51.7672  -22.3450 C   0  0  0  0  0  0  0  0  0  0  0  0
    0.9501  -51.6676  -21.1764 C   0  0  0  0  0  0  0  0  0  0  0  0
    1.3433  -50.9670  -20.0123 N   0  0  0  0  0  0  0  0  0  0  0  0
    2.4644  -51.1923  -19.2201 C   0  0  0  0  0  0  0  0  0  0  0  0
    3.2820  -52.0995  -19.4835 O   0  0  0  0  0  0  0  0  0  0  0  0
    0.7192  -50.1567  -19.6759 H   0  0  0  0  0  0  0  0  0  0  0  0
    2.7664  -50.3946  -18.0356 C   0  0  0  0  0  0  0  0  0  0  0  0
    3.2884  -50.8451  -16.9194 C   0  0  0  0  0  0  0  0  0  0  0  0
    3.5928  -50.0456  -15.7259 C   0  0  0  0  0  0  0  0  0  0  0  0
    3.8352  -50.7123  -14.5167 N   0  0  0  0  0  0  0  0  0  0  0  0
    3.6911  -52.1206  -14.5270 C   0  0  0  0  0  0  0  0  0  0  0  0
    3.6107  -50.0341  -13.2972 C   0  0  0  0  0  0  0  0  0  0  0  0
    2.3233  -53.3025  -26.9372 C   0  0  0  0  0  0  0  0  0  0  0  0
    2.9409  -53.3613  -27.9149 N   0  0  0  0  0  0  0  0  0  0  0  0
    3.1989  -51.8668  -24.6219 N   0  0  0  0  0  0  0  0  0  0  0  0
    4.0338  -52.3675  -24.3001 H   0  0  0  0  0  0  0  0  0  0  0  0
    3.2528  -50.5249  -25.0697 C   0  0  0  0  0  0  0  0  0  0  0  0
    3.2873  -50.1974  -26.3930 C   0  0  0  0  0  0  0  0  0  0  0  0
    3.3367  -48.8704  -26.8259 C   0  0  0  0  0  0  0  0  0  0  0  0
    3.3513  -47.8648  -25.8933 C   0  0  0  0  0  0  0  0  0  0  0  0
    3.3163  -48.2079  -24.5521 C   0  0  0  0  0  0  0  0  0  0  0  0
    3.3344  -46.9427  -23.3282 Cl  0  0  0  0  0  0  0  0  0  0  0  0
    3.2678  -49.5094  -24.1341 C   0  0  0  0  0  0  0  0  0  0  0  0
    3.3992  -46.5304  -26.2534 O   0  0  0  0  0  0  0  0  0  0  0  0
    4.3011  -46.1138  -27.2542 C   0  0  0  0  0  0  0  0  0  0  0  0
    3.6639  -46.1544  -28.5859 C   0  0  0  0  0  0  0  0  0  0  0  0
    2.3977  -45.6910  -28.7478 C   0  0  0  0  0  0  0  0  0  0  0  0
    1.8162  -45.7341  -30.0025 C   0  0  0  0  0  0  0  0  0  0  0  0
    2.5449  -46.2525  -31.0714 C   0  0  0  0  0  0  0  0  0  0  0  0
    3.8205  -46.7240  -30.9303 C   0  0  0  0  0  0  0  0  0  0  0  0
    4.3665  -46.6613  -29.6493 C   0  0  0  0  0  0  0  0  0  0  0  0
   -1.0185  -52.2548  -19.9935 O   0  0  0  0  0  0  0  0  0  0  0  0
   -0.8089  -52.4841  -17.5663 C   0  0  0  0  0  0  0  0  0  0  0  0
   -0.9046  -53.1240  -18.9320 C   0  0  0  0  0  0  0  0  0  0  0  0
 41 42  1  0  0  0
 42 40  1  0  0  0
 40  1  1  0  0  0
  1  2  2  0  0  0
  2  3  1  0  0  0
  3  4  2  0  0  0
  4  5  1  0  0  0
  5  6  2  0  0  0
  6 21  1  0  0  0
 21 22  3  0  0  0
  6  7  1  0  0  0
  7 23  1  0  0  0
 23 25  1  0  0  0
 25 26  2  0  0  0
 26 27  1  0  0  0
 27 28  2  0  0  0
 28 32  1  0  0  0
 32 33  1  0  0  0
 33 34  1  0  0  0
 34 35  2  0  0  0
 35 36  1  0  0  0
 36 37  2  0  0  0
 37 38  1  0  0  0
 38 39  2  0  0  0
 28 29  1  0  0  0
 29 30  1  0  0  0
 29 31  2  0  0  0
  7  8  2  0  0  0
  8  9  1  0  0  0
  9 10  2  0  0  0
 10 11  1  0  0  0
 11 12  1  0  0  0
 12 13  2  0  0  0
 12 15  1  0  0  0
 15 16  2  0  0  0
 16 17  1  0  0  0
 17 18  1  0  0  0
 18 19  1  0  0  0
 18 20  1  0  0  0
 10  1  1  0  0  0
  8  3  1  0  0  0
 31 25  1  0  0  0
 39 34  1  0  0  0
 23 24  1  0  0  0
 11 14  1  0  0  0
M  END
> <minimizedAffinity>
-7.34073

> <CNNscore>
0.3811573982

> <CNNaffinity>
7.4245996475

> <CNN_VS>
2.8299410343

> <CNNaffinity_variance>
0.0825607479

$$$$
[H]/C(C(=O)N([H])c1c(OC([H])([H])C([H])([H])[H])c([H])c2nc([H])c(C#N)c(N([H])c3c([H])c([H])c(OC([H])([H])c4c([H])c([H])c([H])c([H])c4[H])c(Cl)c3[H])c2c1[H])=C(/[H])C([H])([H])N(C([H])([H])[H])C([H])([H])[H]


 42 45  0  0  0  0  0  0  0  0999 V2000
    0.9003  -53.0161  -26.5665 C   0  0  0  0  0  0  0  0  0  0  0  0
    0.2679  -54.1040  -25.9947 C   0  0  0  0  0  0  0  0  0  0  0  0
   -0.2336  -54.0708  -24.7113 C   0  0  0  0  0  0  0  0  0  0  0  0
   -0.8527  -55.1401  -24.1570 N   0  0  0  0  0  0  0  0  0  0  0  0
   -1.3430  -55.0920  -22.8916 C   0  0  0  0  0  0  0  0  0  0  0  0
   -1.2288  -53.9462  -22.1173 C   0  0  0  0  0  0  0  0  0  0  0  0
   -0.5934  -52.8725  -22.7074 C   0  0  0  0  0  0  0  0  0  0  0  0
   -0.0939  -52.9150  -23.9911 C   0  0  0  0  0  0  0  0  0  0  0  0
    0.5424  -51.8195  -24.5662 C   0  0  0  0  0  0  0  0  0  0  0  0
    1.0529  -51.8130  -25.8346 C   0  0  0  0  0  0  0  0  0  0  0  0
    1.7122  -50.7371  -26.4734 N   0  0  0  0  0  0  0  0  0  0  0  0
    3.0275  -50.3192  -26.2986 C   0  0  0  0  0  0  0  0  0  0  0  0
    3.7990  -50.8967  -25.5036 O   0  0  0  0  0  0  0  0  0  0  0  0
    1.1537  -50.1543  -27.1860 H   0  0  0  0  0  0  0  0  0  0  0  0
    3.5985  -49.1878  -27.0229 C   0  0  0  0  0  0  0  0  0  0  0  0
    3.5288  -47.9292  -26.6588 C   0  0  0  0  0  0  0  0  0  0  0  0
    4.1015  -46.7888  -27.3853 C   0  0  0  0  0  0  0  0  0  0  0  0
    3.3178  -46.1520  -28.3578 N   0  0  0  0  0  0  0  0  0  0  0  0
    1.9922  -45.8192  -27.9884 C   0  0  0  0  0  0  0  0  0  0  0  0
    3.5813  -46.3952  -29.7249 C   0  0  0  0  0  0  0  0  0  0  0  0
   -1.7464  -53.8885  -20.7748 C   0  0  0  0  0  0  0  0  0  0  0  0
   -2.1669  -53.8622  -19.6962 N   0  0  0  0  0  0  0  0  0  0  0  0
   -0.4306  -51.6594  -21.9947 N   0  0  0  0  0  0  0  0  0  0  0  0
   -1.0542  -50.8740  -22.2081 H   0  0  0  0  0  0  0  0  0  0  0  0
    0.5847  -51.5682  -21.0125 C   0  0  0  0  0  0  0  0  0  0  0  0
    0.3062  -51.4248  -19.6853 C   0  0  0  0  0  0  0  0  0  0  0  0
    1.3144  -51.3392  -18.7226 C   0  0  0  0  0  0  0  0  0  0  0  0
    2.6250  -51.4008  -19.1221 C   0  0  0  0  0  0  0  0  0  0  0  0
    2.8973  -51.5463  -20.4721 C   0  0  0  0  0  0  0  0  0  0  0  0
    4.5682  -51.6283  -21.0202 Cl  0  0  0  0  0  0  0  0  0  0  0  0
    1.9056  -51.6297  -21.4105 C   0  0  0  0  0  0  0  0  0  0  0  0
    3.6714  -51.3228  -18.2213 O   0  0  0  0  0  0  0  0  0  0  0  0
    3.7048  -50.2677  -17.2863 C   0  0  0  0  0  0  0  0  0  0  0  0
    3.3354  -50.7473  -15.9393 C   0  0  0  0  0  0  0  0  0  0  0  0
    4.0213  -51.7725  -15.3711 C   0  0  0  0  0  0  0  0  0  0  0  0
    3.6639  -52.2082  -14.1074 C   0  0  0  0  0  0  0  0  0  0  0  0
    2.6073  -51.5837  -13.4472 C   0  0  0  0  0  0  0  0  0  0  0  0
    1.9038  -50.5503  -14.0009 C   0  0  0  0  0  0  0  0  0  0  0  0
    2.2980  -50.1442  -15.2749 C   0  0  0  0  0  0  0  0  0  0  0  0
    1.3995  -53.0357  -27.8356 O   0  0  0  0  0  0  0  0  0  0  0  0
   -0.6251  -52.5989  -29.1387 C   0  0  0  0  0  0  0  0  0  0  0  0
    0.6733  -53.3517  -28.9616 C   0  0  0  0  0  0  0  0  0  0  0  0
 41 42  1  0  0  0
 42 40  1  0  0  0
 40  1  1  0  0  0
  1  2  2  0  0  0
  2  3  1  0  0  0
  3  4  2  0  0  0
  4  5  1  0  0  0
  5  6  2  0  0  0
  6 21  1  0  0  0
 21 22  3  0  0  0
  6  7  1  0  0  0
  7 23  1  0  0  0
 23 25  1  0  0  0
 25 26  2  0  0  0
 26 27  1  0  0  0
 27 28  2  0  0  0
 28 32  1  0  0  0
 32 33  1  0  0  0
 33 34  1  0  0  0
 34 35  2  0  0  0
 35 36  1  0  0  0
 36 37  2  0  0  0
 37 38  1  0  0  0
 38 39  2  0  0  0
 28 29  1  0  0  0
 29 30  1  0  0  0
 29 31  2  0  0  0
  7  8  2  0  0  0
  8  9  1  0  0  0
  9 10  2  0  0  0
 10 11  1  0  0  0
 11 12  1  0  0  0
 12 13  2  0  0  0
 12 15  1  0  0  0
 15 16  2  0  0  0
 16 17  1  0  0  0
 17 18  1  0  0  0
 18 19  1  0  0  0
 18 20  1  0  0  0
 10  1  1  0  0  0
  8  3  1  0  0  0
 31 25  1  0  0  0
 39 34  1  0  0  0
 23 24  1  0  0  0
 11 14  1  0  0  0
M  END
> <minimizedAffinity>
-7.90975

> <CNNscore>
0.3323372304

> <CNNaffinity>
7.4271507263

> <CNN_VS>
2.4683187008

> <CNNaffinity_variance>
0.1228957325

$$$$
[H]/C(C(=O)N([H])c1c(OC([H])([H])C([H])([H])[H])c([H])c2nc([H])c(C#N)c(N([H])c3c([H])c([H])c(OC([H])([H])c4c([H])c([H])c([H])c([H])c4[H])c(Cl)c3[H])c2c1[H])=C(/[H])C([H])([H])N(C([H])([H])[H])C([H])([H])[H]


 42 45  0  0  0  0  0  0  0  0999 V2000
    1.9047  -52.3605  -24.7935 C   0  0  0  0  0  0  0  0  0  0  0  0
    1.0521  -53.4389  -24.9369 C   0  0  0  0  0  0  0  0  0  0  0  0
    0.4191  -54.0226  -23.8606 C   0  0  0  0  0  0  0  0  0  0  0  0
   -0.4157  -55.0788  -24.0080 N   0  0  0  0  0  0  0  0  0  0  0  0
   -1.0333  -55.6427  -22.9382 C   0  0  0  0  0  0  0  0  0  0  0  0
   -0.8334  -55.1594  -21.6530 C   0  0  0  0  0  0  0  0  0  0  0  0
    0.0221  -54.0830  -21.5326 C   0  0  0  0  0  0  0  0  0  0  0  0
    0.6517  -53.5063  -22.6143 C   0  0  0  0  0  0  0  0  0  0  0  0
    1.5097  -52.4206  -22.4694 C   0  0  0  0  0  0  0  0  0  0  0  0
    2.1559  -51.8146  -23.5107 C   0  0  0  0  0  0  0  0  0  0  0  0
    3.0408  -50.7142  -23.4293 N   0  0  0  0  0  0  0  0  0  0  0  0
    4.2339  -50.6310  -22.7190 C   0  0  0  0  0  0  0  0  0  0  0  0
    4.6607  -51.5884  -22.0392 O   0  0  0  0  0  0  0  0  0  0  0  0
    2.7859  -49.8203  -23.9726 H   0  0  0  0  0  0  0  0  0  0  0  0
    5.0676  -49.4328  -22.7148 C   0  0  0  0  0  0  0  0  0  0  0  0
    5.8008  -49.0113  -21.7117 C   0  0  0  0  0  0  0  0  0  0  0  0
    6.6399  -47.8062  -21.7041 C   0  0  0  0  0  0  0  0  0  0  0  0
    6.2934  -46.7540  -20.8448 N   0  0  0  0  0  0  0  0  0  0  0  0
    6.6578  -46.8977  -19.4843 C   0  0  0  0  0  0  0  0  0  0  0  0
    5.1635  -45.9603  -21.1458 C   0  0  0  0  0  0  0  0  0  0  0  0
   -1.4852  -55.7527  -20.5142 C   0  0  0  0  0  0  0  0  0  0  0  0
   -1.9973  -56.2186  -19.5860 N   0  0  0  0  0  0  0  0  0  0  0  0
    0.2870  -53.5204  -20.2602 N   0  0  0  0  0  0  0  0  0  0  0  0
    1.2200  -53.6399  -19.8521 H   0  0  0  0  0  0  0  0  0  0  0  0
   -0.7408  -52.8121  -19.5923 C   0  0  0  0  0  0  0  0  0  0  0  0
   -1.9841  -53.3379  -19.3999 C   0  0  0  0  0  0  0  0  0  0  0  0
   -2.9911  -52.6333  -18.7366 C   0  0  0  0  0  0  0  0  0  0  0  0
   -2.7234  -51.3739  -18.2638 C   0  0  0  0  0  0  0  0  0  0  0  0
   -1.4578  -50.8488  -18.4644 C   0  0  0  0  0  0  0  0  0  0  0  0
   -1.0797  -49.2351  -17.8712 Cl  0  0  0  0  0  0  0  0  0  0  0  0
   -0.4754  -51.5438  -19.1147 C   0  0  0  0  0  0  0  0  0  0  0  0
   -3.6744  -50.6223  -17.5980 O   0  0  0  0  0  0  0  0  0  0  0  0
   -4.6500  -51.2734  -16.8152 C   0  0  0  0  0  0  0  0  0  0  0  0
   -4.3177  -51.1829  -15.3791 C   0  0  0  0  0  0  0  0  0  0  0  0
   -5.2136  -50.6537  -14.5063 C   0  0  0  0  0  0  0  0  0  0  0  0
   -4.8874  -50.5784  -13.1638 C   0  0  0  0  0  0  0  0  0  0  0  0
   -3.6460  -51.0480  -12.7389 C   0  0  0  0  0  0  0  0  0  0  0  0
   -2.7299  -51.5842  -13.6006 C   0  0  0  0  0  0  0  0  0  0  0  0
   -3.1003  -51.6404  -14.9433 C   0  0  0  0  0  0  0  0  0  0  0  0
    2.5359  -51.7731  -25.8502 O   0  0  0  0  0  0  0  0  0  0  0  0
    4.5641  -53.0877  -25.4675 C   0  0  0  0  0  0  0  0  0  0  0  0
    3.8642  -51.9460  -26.1680 C   0  0  0  0  0  0  0  0  0  0  0  0
 41 42  1  0  0  0
 42 40  1  0  0  0
 40  1  1  0  0  0
  1  2  2  0  0  0
  2  3  1  0  0  0
  3  4  2  0  0  0
  4  5  1  0  0  0
  5  6  2  0  0  0
  6 21  1  0  0  0
 21 22  3  0  0  0
  6  7  1  0  0  0
  7 23  1  0  0  0
 23 25  1  0  0  0
 25 26  2  0  0  0
 26 27  1  0  0  0
 27 28  2  0  0  0
 28 32  1  0  0  0
 32 33  1  0  0  0
 33 34  1  0  0  0
 34 35  2  0  0  0
 35 36  1  0  0  0
 36 37  2  0  0  0
 37 38  1  0  0  0
 38 39  2  0  0  0
 28 29  1  0  0  0
 29 30  1  0  0  0
 29 31  2  0  0  0
  7  8  2  0  0  0
  8  9  1  0  0  0
  9 10  2  0  0  0
 10 11  1  0  0  0
 11 12  1  0  0  0
 12 13  2  0  0  0
 12 15  1  0  0  0
 15 16  2  0  0  0
 16 17  1  0  0  0
 17 18  1  0  0  0
 18 19  1  0  0  0
 18 20  1  0  0  0
 10  1  1  0  0  0
  8  3  1  0  0  0
 31 25  1  0  0  0
 39 34  1  0  0  0
 23 24  1  0  0  0
 11 14  1  0  0  0
M  END
> <minimizedAffinity>
25.68349

> <CNNscore>
0.3177747428

> <CNNaffinity>
6.5428705215

> <CNN_VS>
2.0791590214

> <CNNaffinity_variance>
0.5553099513

$$$$
[H]Oc1c([H])c([H])c(-c2c([H])c3c(N([H])[C@@]([H])(c4c([H])c([H])c(F)c([H])c4[H])C([H])([H])[H])nc([H])nc3n2[H])c([H])c1[H]


 29 32  0  0  0  0  0  0  0  0999 V2000
   -0.4532  -52.9966  -23.4441 C   0  0  0  0  0  0  0  0  0  0  0  0
   -0.8898  -54.1775  -23.9173 N   0  0  0  0  0  0  0  0  0  0  0  0
   -1.2592  -55.1816  -23.0876 C   0  0  0  0  0  0  0  0  0  0  0  0
   -1.1854  -54.9867  -21.7573 N   0  0  0  0  0  0  0  0  0  0  0  0
   -0.7613  -53.8403  -21.1987 C   0  0  0  0  0  0  0  0  0  0  0  0
   -0.5969  -53.3999  -19.9401 N   0  0  0  0  0  0  0  0  0  0  0  0
   -0.1337  -52.1447  -19.9568 C   0  0  0  0  0  0  0  0  0  0  0  0
   -0.0001  -51.7776  -21.2599 C   0  0  0  0  0  0  0  0  0  0  0  0
   -0.3858  -52.8194  -22.0783 C   0  0  0  0  0  0  0  0  0  0  0  0
   -0.8034  -53.9627  -19.0814 H   0  0  0  0  0  0  0  0  0  0  0  0
    0.1810  -51.2971  -18.7878 C   0  0  0  0  0  0  0  0  0  0  0  0
   -0.2842  -51.6197  -17.5424 C   0  0  0  0  0  0  0  0  0  0  0  0
    0.0059  -50.8267  -16.4281 C   0  0  0  0  0  0  0  0  0  0  0  0
    0.7759  -49.6921  -16.5705 C   0  0  0  0  0  0  0  0  0  0  0  0
    1.0731  -48.8902  -15.4631 O   0  0  0  0  0  0  0  0  0  0  0  0
    1.2374  -49.3803  -17.8322 C   0  0  0  0  0  0  0  0  0  0  0  0
    0.9505  -50.1682  -18.9460 C   0  0  0  0  0  0  0  0  0  0  0  0
    1.9244  -49.1175  -14.9438 H   0  0  0  0  0  0  0  0  0  0  0  0
   -0.0638  -51.9385  -24.2848 N   0  0  0  0  0  0  0  0  0  0  0  0
   -0.5135  -51.0103  -24.1932 H   0  0  0  0  0  0  0  0  0  0  0  0
    1.8316  -50.8404  -25.3910 C   0  0  0  0  0  0  0  0  0  0  0  0
    0.9648  -52.0761  -25.3058 C   0  0  0  0  0  0  0  0  0  0  0  0
    0.3022  -52.3919  -26.5827 C   0  0  0  0  0  0  0  0  0  0  0  0
    1.0827  -52.8777  -27.6108 C   0  0  0  0  0  0  0  0  0  0  0  0
    0.4910  -53.1837  -28.8222 C   0  0  0  0  0  0  0  0  0  0  0  0
   -0.8614  -53.0200  -29.0424 C   0  0  0  0  0  0  0  0  0  0  0  0
   -1.4431  -53.3245  -30.2436 F   0  0  0  0  0  0  0  0  0  0  0  0
   -1.6147  -52.5329  -27.9960 C   0  0  0  0  0  0  0  0  0  0  0  0
   -1.0395  -52.2254  -26.7893 C   0  0  0  0  0  0  0  0  0  0  0  0
 21 22  1  0  0  0
 22 19  1  0  0  0
 19  1  1  0  0  0
  1  2  2  0  0  0
  2  3  1  0  0  0
  3  4  2  0  0  0
  4  5  1  0  0  0
  5  6  1  0  0  0
  6  7  1  0  0  0
  7  8  2  0  0  0
  8  9  1  0  0  0
  7 11  1  0  0  0
 11 12  2  0  0  0
 12 13  1  0  0  0
 13 14  2  0  0  0
 14 15  1  0  0  0
 14 16  1  0  0  0
 16 17  2  0  0  0
 22 23  1  0  0  0
 23 24  2  0  0  0
 24 25  1  0  0  0
 25 26  2  0  0  0
 26 27  1  0  0  0
 26 28  1  0  0  0
 28 29  2  0  0  0
  9  1  1  0  0  0
 17 11  1  0  0  0
 29 23  1  0  0  0
  9  5  2  0  0  0
 19 20  1  0  0  0
  6 10  1  0  0  0
 15 18  1  0  0  0
M  END
> <minimizedAffinity>
-9.14620

> <CNNscore>
0.9508695006

> <CNNaffinity>
6.9846405983

> <CNN_VS>
6.6414818764

> <CNNaffinity_variance>
0.1082358733

$$$$
[H]Oc1c([H])c([H])c(-c2c([H])c3c(N([H])[C@@]([H])(c4c([H])c([H])c(F)c([H])c4[H])C([H])([H])[H])nc([H])nc3n2[H])c([H])c1[H]


 29 32  0  0  0  0  0  0  0  0999 V2000
   -0.3947  -53.0027  -23.3732 C   0  0  0  0  0  0  0  0  0  0  0  0
   -0.8537  -54.1710  -23.8562 N   0  0  0  0  0  0  0  0  0  0  0  0
   -1.2771  -55.1610  -23.0354 C   0  0  0  0  0  0  0  0  0  0  0  0
   -1.2350  -54.9647  -21.7039 N   0  0  0  0  0  0  0  0  0  0  0  0
   -0.7920  -53.8301  -21.1358 C   0  0  0  0  0  0  0  0  0  0  0  0
   -0.6499  -53.3914  -19.8738 N   0  0  0  0  0  0  0  0  0  0  0  0
   -0.1481  -52.1510  -19.8799 C   0  0  0  0  0  0  0  0  0  0  0  0
    0.0335  -51.7919  -21.1794 C   0  0  0  0  0  0  0  0  0  0  0  0
   -0.3606  -52.8237  -22.0064 C   0  0  0  0  0  0  0  0  0  0  0  0
   -0.8977  -53.9452  -19.0202 H   0  0  0  0  0  0  0  0  0  0  0  0
    0.1591  -51.3101  -18.7040 C   0  0  0  0  0  0  0  0  0  0  0  0
    0.9560  -50.2045  -18.8218 C   0  0  0  0  0  0  0  0  0  0  0  0
    1.2547  -49.4004  -17.7178 C   0  0  0  0  0  0  0  0  0  0  0  0
    0.7429  -49.7147  -16.4770 C   0  0  0  0  0  0  0  0  0  0  0  0
    1.0345  -48.9179  -15.3643 O   0  0  0  0  0  0  0  0  0  0  0  0
   -0.0587  -50.8322  -16.3744 C   0  0  0  0  0  0  0  0  0  0  0  0
   -0.3591  -51.6368  -17.4726 C   0  0  0  0  0  0  0  0  0  0  0  0
    0.3951  -48.1434  -15.1710 H   0  0  0  0  0  0  0  0  0  0  0  0
    0.0506  -51.9593  -24.2046 N   0  0  0  0  0  0  0  0  0  0  0  0
   -0.3999  -51.0283  -24.1555 H   0  0  0  0  0  0  0  0  0  0  0  0
    2.0246  -50.8914  -25.1968 C   0  0  0  0  0  0  0  0  0  0  0  0
    1.1399  -52.1166  -25.1576 C   0  0  0  0  0  0  0  0  0  0  0  0
    0.5554  -52.4352  -26.4714 C   0  0  0  0  0  0  0  0  0  0  0  0
   -0.7762  -52.1378  -26.6734 C   0  0  0  0  0  0  0  0  0  0  0  0
   -1.3549  -52.4246  -27.8957 C   0  0  0  0  0  0  0  0  0  0  0  0
   -0.6446  -53.0014  -28.9286 C   0  0  0  0  0  0  0  0  0  0  0  0
   -1.2219  -53.2835  -30.1374 F   0  0  0  0  0  0  0  0  0  0  0  0
    0.6836  -53.2867  -28.6963 C   0  0  0  0  0  0  0  0  0  0  0  0
    1.2694  -53.0072  -27.4879 C   0  0  0  0  0  0  0  0  0  0  0  0
 21 22  1  0  0  0
 22 19  1  0  0  0
 19  1  1  0  0  0
  1  2  2  0  0  0
  2  3  1  0  0  0
  3  4  2  0  0  0
  4  5  1  0  0  0
  5  6  1  0  0  0
  6  7  1  0  0  0
  7  8  2  0  0  0
  8  9  1  0  0  0
  7 11  1  0  0  0
 11 12  2  0  0  0
 12 13  1  0  0  0
 13 14  2  0  0  0
 14 15  1  0  0  0
 14 16  1  0  0  0
 16 17  2  0  0  0
 22 23  1  0  0  0
 23 24  2  0  0  0
 24 25  1  0  0  0
 25 26  2  0  0  0
 26 27  1  0  0  0
 26 28  1  0  0  0
 28 29  2  0  0  0
  9  1  1  0  0  0
 17 11  1  0  0  0
 29 23  1  0  0  0
  9  5  2  0  0  0
 19 20  1  0  0  0
  6 10  1  0  0  0
 15 18  1  0  0  0
M  END
> <minimizedAffinity>
-9.09294

> <CNNscore>
0.9456689358

> <CNNaffinity>
6.9955229759

> <CNN_VS>
6.6154489517

> <CNNaffinity_variance>
0.1228579730

$$$$
[H]Oc1c([H])c([H])c(-c2c([H])c3c(N([H])[C@@]([H])(c4c([H])c([H])c(F)c([H])c4[H])C([H])([H])[H])nc([H])nc3n2[H])c([H])c1[H]


 29 32  0  0  0  0  0  0  0  0999 V2000
   -0.3154  -53.1449  -23.6702 C   0  0  0  0  0  0  0  0  0  0  0  0
   -0.7409  -54.2149  -24.3653 N   0  0  0  0  0  0  0  0  0  0  0  0
   -1.2995  -55.2841  -23.7505 C   0  0  0  0  0  0  0  0  0  0  0  0
   -1.4293  -55.2695  -22.4103 N   0  0  0  0  0  0  0  0  0  0  0  0
   -1.0320  -54.2435  -21.6385 C   0  0  0  0  0  0  0  0  0  0  0  0
   -1.0462  -53.9843  -20.3202 N   0  0  0  0  0  0  0  0  0  0  0  0
   -0.5110  -52.7798  -20.0901 C   0  0  0  0  0  0  0  0  0  0  0  0
   -0.1471  -52.2597  -21.2933 C   0  0  0  0  0  0  0  0  0  0  0  0
   -0.4584  -53.1517  -22.2988 C   0  0  0  0  0  0  0  0  0  0  0  0
   -1.4222  -54.6345  -19.5904 H   0  0  0  0  0  0  0  0  0  0  0  0
   -0.3381  -52.1190  -18.7795 C   0  0  0  0  0  0  0  0  0  0  0  0
   -0.9576  -52.6064  -17.6615 C   0  0  0  0  0  0  0  0  0  0  0  0
   -0.8026  -51.9911  -16.4157 C   0  0  0  0  0  0  0  0  0  0  0  0
   -0.0120  -50.8683  -16.2944 C   0  0  0  0  0  0  0  0  0  0  0  0
    0.1511  -50.2434  -15.0532 O   0  0  0  0  0  0  0  0  0  0  0  0
    0.6059  -50.3891  -17.4305 C   0  0  0  0  0  0  0  0  0  0  0  0
    0.4541  -50.9996  -18.6747 C   0  0  0  0  0  0  0  0  0  0  0  0
    0.9291  -50.5657  -14.4729 H   0  0  0  0  0  0  0  0  0  0  0  0
    0.2679  -52.0225  -24.2852 N   0  0  0  0  0  0  0  0  0  0  0  0
    1.0208  -51.4996  -23.8037 H   0  0  0  0  0  0  0  0  0  0  0  0
   -1.6350  -51.6238  -25.7826 C   0  0  0  0  0  0  0  0  0  0  0  0
   -0.1369  -51.5394  -25.5975 C   0  0  0  0  0  0  0  0  0  0  0  0
    0.6033  -52.3051  -26.6148 C   0  0  0  0  0  0  0  0  0  0  0  0
   -0.1272  -53.0132  -27.5461 C   0  0  0  0  0  0  0  0  0  0  0  0
    0.5377  -53.7423  -28.5144 C   0  0  0  0  0  0  0  0  0  0  0  0
    1.9151  -53.7882  -28.5841 C   0  0  0  0  0  0  0  0  0  0  0  0
    2.5692  -54.5115  -29.5449 F   0  0  0  0  0  0  0  0  0  0  0  0
    2.6170  -53.0704  -27.6399 C   0  0  0  0  0  0  0  0  0  0  0  0
    1.9691  -52.3431  -26.6741 C   0  0  0  0  0  0  0  0  0  0  0  0
 21 22  1  0  0  0
 22 19  1  0  0  0
 19  1  1  0  0  0
  1  2  2  0  0  0
  2  3  1  0  0  0
  3  4  2  0  0  0
  4  5  1  0  0  0
  5  6  1  0  0  0
  6  7  1  0  0  0
  7  8  2  0  0  0
  8  9  1  0  0  0
  7 11  1  0  0  0
 11 12  2  0  0  0
 12 13  1  0  0  0
 13 14  2  0  0  0
 14 15  1  0  0  0
 14 16  1  0  0  0
 16 17  2  0  0  0
 22 23  1  0  0  0
 23 24  2  0  0  0
 24 25  1  0  0  0
 25 26  2  0  0  0
 26 27  1  0  0  0
 26 28  1  0  0  0
 28 29  2  0  0  0
  9  1  1  0  0  0
 17 11  1  0  0  0
 29 23  1  0  0  0
  9  5  2  0  0  0
 19 20  1  0  0  0
  6 10  1  0  0  0
 15 18  1  0  0  0
M  END
> <minimizedAffinity>
-8.84668

> <CNNscore>
0.9174517393

> <CNNaffinity>
6.9884490967

> <CNN_VS>
6.4115648270

> <CNNaffinity_variance>
0.1340848207

$$$$
[H]Oc1c([H])c([H])c(-c2c([H])c3c(N([H])[C@@]([H])(c4c([H])c([H])c(F)c([H])c4[H])C([H])([H])[H])nc([H])nc3n2[H])c([H])c1[H]


 29 32  0  0  0  0  0  0  0  0999 V2000
   -0.2452  -52.9512  -23.4889 C   0  0  0  0  0  0  0  0  0  0  0  0
   -0.6432  -53.9981  -24.2338 N   0  0  0  0  0  0  0  0  0  0  0  0
   -1.1801  -55.1063  -23.6709 C   0  0  0  0  0  0  0  0  0  0  0  0
   -1.3162  -55.1551  -22.3321 N   0  0  0  0  0  0  0  0  0  0  0  0
   -0.9458  -54.1563  -21.5127 C   0  0  0  0  0  0  0  0  0  0  0  0
   -0.9716  -53.9574  -20.1842 N   0  0  0  0  0  0  0  0  0  0  0  0
   -0.4650  -52.7528  -19.8970 C   0  0  0  0  0  0  0  0  0  0  0  0
   -0.1076  -52.1708  -21.0735 C   0  0  0  0  0  0  0  0  0  0  0  0
   -0.3941  -53.0233  -22.1200 C   0  0  0  0  0  0  0  0  0  0  0  0
   -1.3360  -54.6482  -19.4864 H   0  0  0  0  0  0  0  0  0  0  0  0
   -0.3129  -52.1482  -18.5571 C   0  0  0  0  0  0  0  0  0  0  0  0
   -1.0442  -52.6045  -17.4949 C   0  0  0  0  0  0  0  0  0  0  0  0
   -0.9102  -52.0416  -16.2222 C   0  0  0  0  0  0  0  0  0  0  0  0
   -0.0265  -51.0038  -16.0165 C   0  0  0  0  0  0  0  0  0  0  0  0
    0.1168  -50.4320  -14.7476 O   0  0  0  0  0  0  0  0  0  0  0  0
    0.7036  -50.5549  -17.0971 C   0  0  0  0  0  0  0  0  0  0  0  0
    0.5731  -51.1133  -18.3679 C   0  0  0  0  0  0  0  0  0  0  0  0
    0.8231  -50.8434  -14.1330 H   0  0  0  0  0  0  0  0  0  0  0  0
    0.3152  -51.7894  -24.0495 N   0  0  0  0  0  0  0  0  0  0  0  0
   -0.2967  -51.0064  -24.3403 H   0  0  0  0  0  0  0  0  0  0  0  0
    2.4272  -52.9358  -24.5465 C   0  0  0  0  0  0  0  0  0  0  0  0
    1.7470  -51.6186  -24.2500 C   0  0  0  0  0  0  0  0  0  0  0  0
    2.2992  -50.9518  -23.0586 C   0  0  0  0  0  0  0  0  0  0  0  0
    3.2602  -51.6230  -22.3318 C   0  0  0  0  0  0  0  0  0  0  0  0
    3.7985  -51.0244  -21.2080 C   0  0  0  0  0  0  0  0  0  0  0  0
    3.4071  -49.7711  -20.7833 C   0  0  0  0  0  0  0  0  0  0  0  0
    3.9431  -49.1822  -19.6698 F   0  0  0  0  0  0  0  0  0  0  0  0
    2.4453  -49.1258  -21.5302 C   0  0  0  0  0  0  0  0  0  0  0  0
    1.9033  -49.7091  -22.6472 C   0  0  0  0  0  0  0  0  0  0  0  0
 21 22  1  0  0  0
 22 19  1  0  0  0
 19  1  1  0  0  0
  1  2  2  0  0  0
  2  3  1  0  0  0
  3  4  2  0  0  0
  4  5  1  0  0  0
  5  6  1  0  0  0
  6  7  1  0  0  0
  7  8  2  0  0  0
  8  9  1  0  0  0
  7 11  1  0  0  0
 11 12  2  0  0  0
 12 13  1  0  0  0
 13 14  2  0  0  0
 14 15  1  0  0  0
 14 16  1  0  0  0
 16 17  2  0  0  0
 22 23  1  0  0  0
 23 24  2  0  0  0
 24 25  1  0  0  0
 25 26  2  0  0  0
 26 27  1  0  0  0
 26 28  1  0  0  0
 28 29  2  0  0  0
  9  1  1  0  0  0
 17 11  1  0  0  0
 29 23  1  0  0  0
  9  5  2  0  0  0
 19 20  1  0  0  0
  6 10  1  0  0  0
 15 18  1  0  0  0
M  END
> <minimizedAffinity>
-8.00793

> <CNNscore>
0.8879339099

> <CNNaffinity>
6.7688598633

> <CNN_VS>
6.0103001595

> <CNNaffinity_variance>
0.1111664772

$$$$
[H]Oc1c([H])c([H])c(-c2c([H])c3c(N([H])[C@@]([H])(c4c([H])c([H])c(F)c([H])c4[H])C([H])([H])[H])nc([H])nc3n2[H])c([H])c1[H]


 29 32  0  0  0  0  0  0  0  0999 V2000
    0.2021  -52.0292  -21.1644 C   0  0  0  0  0  0  0  0  0  0  0  0
   -0.2501  -52.6798  -20.0774 N   0  0  0  0  0  0  0  0  0  0  0  0
   -0.9473  -53.8358  -20.1812 C   0  0  0  0  0  0  0  0  0  0  0  0
   -1.1907  -54.3410  -21.4054 N   0  0  0  0  0  0  0  0  0  0  0  0
   -0.7769  -53.7579  -22.5434 C   0  0  0  0  0  0  0  0  0  0  0  0
   -0.8831  -54.0447  -23.8517 N   0  0  0  0  0  0  0  0  0  0  0  0
   -0.2706  -53.0991  -24.5734 C   0  0  0  0  0  0  0  0  0  0  0  0
    0.2382  -52.1874  -23.7013 C   0  0  0  0  0  0  0  0  0  0  0  0
   -0.0588  -52.5651  -22.4078 C   0  0  0  0  0  0  0  0  0  0  0  0
   -1.3739  -54.8852  -24.2384 H   0  0  0  0  0  0  0  0  0  0  0  0
   -0.1567  -53.0379  -26.0456 C   0  0  0  0  0  0  0  0  0  0  0  0
   -1.2112  -52.6267  -26.8138 C   0  0  0  0  0  0  0  0  0  0  0  0
   -1.1170  -52.5642  -28.2074 C   0  0  0  0  0  0  0  0  0  0  0  0
    0.0567  -52.9210  -28.8361 C   0  0  0  0  0  0  0  0  0  0  0  0
    0.1635  -52.8629  -30.2300 O   0  0  0  0  0  0  0  0  0  0  0  0
    1.1107  -53.3333  -28.0480 C   0  0  0  0  0  0  0  0  0  0  0  0
    1.0212  -53.3971  -26.6582 C   0  0  0  0  0  0  0  0  0  0  0  0
    0.4923  -51.9814  -30.6313 H   0  0  0  0  0  0  0  0  0  0  0  0
    0.9283  -50.8276  -21.0831 N   0  0  0  0  0  0  0  0  0  0  0  0
    0.4303  -49.9268  -20.9700 H   0  0  0  0  0  0  0  0  0  0  0  0
    3.0183  -51.5514  -20.0200 C   0  0  0  0  0  0  0  0  0  0  0  0
    2.3816  -50.7750  -21.1503 C   0  0  0  0  0  0  0  0  0  0  0  0
    2.7877  -49.3593  -21.1638 C   0  0  0  0  0  0  0  0  0  0  0  0
    3.0737  -48.7827  -22.3836 C   0  0  0  0  0  0  0  0  0  0  0  0
    3.4579  -47.4555  -22.4304 C   0  0  0  0  0  0  0  0  0  0  0  0
    3.5666  -46.6807  -21.2937 C   0  0  0  0  0  0  0  0  0  0  0  0
    3.9473  -45.3667  -21.3449 F   0  0  0  0  0  0  0  0  0  0  0  0
    3.2742  -47.2851  -20.0901 C   0  0  0  0  0  0  0  0  0  0  0  0
    2.8920  -48.6012  -20.0304 C   0  0  0  0  0  0  0  0  0  0  0  0
 21 22  1  0  0  0
 22 19  1  0  0  0
 19  1  1  0  0  0
  1  2  2  0  0  0
  2  3  1  0  0  0
  3  4  2  0  0  0
  4  5  1  0  0  0
  5  6  1  0  0  0
  6  7  1  0  0  0
  7  8  2  0  0  0
  8  9  1  0  0  0
  7 11  1  0  0  0
 11 12  2  0  0  0
 12 13  1  0  0  0
 13 14  2  0  0  0
 14 15  1  0  0  0
 14 16  1  0  0  0
 16 17  2  0  0  0
 22 23  1  0  0  0
 23 24  2  0  0  0
 24 25  1  0  0  0
 25 26  2  0  0  0
 26 27  1  0  0  0
 26 28  1  0  0  0
 28 29  2  0  0  0
  9  1  1  0  0  0
 17 11  1  0  0  0
 29 23  1  0  0  0
  9  5  2  0  0  0
 19 20  1  0  0  0
  6 10  1  0  0  0
 15 18  1  0  0  0
M  END
> <minimizedAffinity>
-7.93208

> <CNNscore>
0.8303665519

> <CNNaffinity>
6.7780504227

> <CNN_VS>
5.6282663345

> <CNNaffinity_variance>
0.1864793003

$$$$
[H]Oc1c([H])c([H])c(-c2c([H])c3c(N([H])[C@@]([H])(c4c([H])c([H])c(F)c([H])c4[H])C([H])([H])[H])nc([H])nc3n2[H])c([H])c1[H]


 29 32  0  0  0  0  0  0  0  0999 V2000
    0.2783  -52.3246  -21.1165 C   0  0  0  0  0  0  0  0  0  0  0  0
   -0.2561  -52.9659  -20.0618 N   0  0  0  0  0  0  0  0  0  0  0  0
   -1.0719  -54.0348  -20.2201 C   0  0  0  0  0  0  0  0  0  0  0  0
   -1.3508  -54.4614  -21.4664 N   0  0  0  0  0  0  0  0  0  0  0  0
   -0.8610  -53.8810  -22.5753 C   0  0  0  0  0  0  0  0  0  0  0  0
   -0.9790  -54.1020  -23.8953 N   0  0  0  0  0  0  0  0  0  0  0  0
   -0.2585  -53.1996  -24.5713 C   0  0  0  0  0  0  0  0  0  0  0  0
    0.3328  -52.3838  -23.6572 C   0  0  0  0  0  0  0  0  0  0  0  0
   -0.0211  -52.7789  -22.3835 C   0  0  0  0  0  0  0  0  0  0  0  0
   -1.5516  -54.8685  -24.3211 H   0  0  0  0  0  0  0  0  0  0  0  0
   -0.1181  -53.0919  -26.0385 C   0  0  0  0  0  0  0  0  0  0  0  0
    1.0282  -53.4984  -26.6647 C   0  0  0  0  0  0  0  0  0  0  0  0
    1.1743  -53.4021  -28.0518 C   0  0  0  0  0  0  0  0  0  0  0  0
    0.1506  -52.8888  -28.8193 C   0  0  0  0  0  0  0  0  0  0  0  0
    0.2845  -52.7872  -30.2083 O   0  0  0  0  0  0  0  0  0  0  0  0
   -0.9986  -52.4834  -28.1734 C   0  0  0  0  0  0  0  0  0  0  0  0
   -1.1485  -52.5777  -26.7905 C   0  0  0  0  0  0  0  0  0  0  0  0
   -0.0203  -53.5916  -30.7615 H   0  0  0  0  0  0  0  0  0  0  0  0
    1.1281  -51.2125  -20.9785 N   0  0  0  0  0  0  0  0  0  0  0  0
    2.0487  -51.2007  -21.4523 H   0  0  0  0  0  0  0  0  0  0  0  0
    1.0018  -48.7619  -20.9568 C   0  0  0  0  0  0  0  0  0  0  0  0
    0.7783  -50.0427  -20.1854 C   0  0  0  0  0  0  0  0  0  0  0  0
    1.5518  -50.0916  -18.9330 C   0  0  0  0  0  0  0  0  0  0  0  0
    1.0033  -49.5014  -17.8136 C   0  0  0  0  0  0  0  0  0  0  0  0
    1.7042  -49.5300  -16.6223 C   0  0  0  0  0  0  0  0  0  0  0  0
    2.9411  -50.1316  -16.5109 C   0  0  0  0  0  0  0  0  0  0  0  0
    3.6315  -50.1575  -15.3291 F   0  0  0  0  0  0  0  0  0  0  0  0
    3.4626  -50.7126  -17.6466 C   0  0  0  0  0  0  0  0  0  0  0  0
    2.7772  -50.6908  -18.8346 C   0  0  0  0  0  0  0  0  0  0  0  0
 21 22  1  0  0  0
 22 19  1  0  0  0
 19  1  1  0  0  0
  1  2  2  0  0  0
  2  3  1  0  0  0
  3  4  2  0  0  0
  4  5  1  0  0  0
  5  6  1  0  0  0
  6  7  1  0  0  0
  7  8  2  0  0  0
  8  9  1  0  0  0
  7 11  1  0  0  0
 11 12  2  0  0  0
 12 13  1  0  0  0
 13 14  2  0  0  0
 14 15  1  0  0  0
 14 16  1  0  0  0
 16 17  2  0  0  0
 22 23  1  0  0  0
 23 24  2  0  0  0
 24 25  1  0  0  0
 25 26  2  0  0  0
 26 27  1  0  0  0
 26 28  1  0  0  0
 28 29  2  0  0  0
  9  1  1  0  0  0
 17 11  1  0  0  0
 29 23  1  0  0  0
  9  5  2  0  0  0
 19 20  1  0  0  0
  6 10  1  0  0  0
 15 18  1  0  0  0
M  END
> <minimizedAffinity>
-8.52111

> <CNNscore>
0.8286572695

> <CNNaffinity>
6.8362364769

> <CNN_VS>
5.6648969650

> <CNNaffinity_variance>
0.2124087065

$$$$
[H]Oc1c([H])c([H])c(-c2c([H])c3c(N([H])[C@@]([H])(c4c([H])c([H])c(F)c([H])c4[H])C([H])([H])[H])nc([H])nc3n2[H])c([H])c1[H]


 29 32  0  0  0  0  0  0  0  0999 V2000
   -0.2516  -52.9810  -23.5802 C   0  0  0  0  0  0  0  0  0  0  0  0
   -0.6529  -54.0362  -24.3115 N   0  0  0  0  0  0  0  0  0  0  0  0
   -1.1813  -55.1406  -23.7334 C   0  0  0  0  0  0  0  0  0  0  0  0
   -1.3055  -55.1770  -22.3931 N   0  0  0  0  0  0  0  0  0  0  0  0
   -0.9311  -54.1693  -21.5865 C   0  0  0  0  0  0  0  0  0  0  0  0
   -0.9459  -53.9578  -20.2597 N   0  0  0  0  0  0  0  0  0  0  0  0
   -0.4406  -52.7489  -19.9886 C   0  0  0  0  0  0  0  0  0  0  0  0
   -0.0954  -52.1771  -21.1737 C   0  0  0  0  0  0  0  0  0  0  0  0
   -0.3883  -53.0404  -22.2094 C   0  0  0  0  0  0  0  0  0  0  0  0
   -1.3019  -54.6430  -19.5522 H   0  0  0  0  0  0  0  0  0  0  0  0
   -0.2786  -52.1311  -18.6559 C   0  0  0  0  0  0  0  0  0  0  0  0
   -0.9682  -52.6064  -17.5743 C   0  0  0  0  0  0  0  0  0  0  0  0
   -0.8245  -52.0313  -16.3081 C   0  0  0  0  0  0  0  0  0  0  0  0
    0.0265  -50.9617  -16.1289 C   0  0  0  0  0  0  0  0  0  0  0  0
    0.1790  -50.3773  -14.8668 O   0  0  0  0  0  0  0  0  0  0  0  0
    0.7146  -50.4939  -17.2288 C   0  0  0  0  0  0  0  0  0  0  0  0
    0.5743  -51.0644  -18.4931 C   0  0  0  0  0  0  0  0  0  0  0  0
    0.9138  -50.7597  -14.2668 H   0  0  0  0  0  0  0  0  0  0  0  0
    0.3001  -51.8229  -24.1567 N   0  0  0  0  0  0  0  0  0  0  0  0
   -0.2444  -50.9424  -24.1752 H   0  0  0  0  0  0  0  0  0  0  0  0
    2.4659  -52.9678  -24.2998 C   0  0  0  0  0  0  0  0  0  0  0  0
    1.6310  -51.7890  -24.7458 C   0  0  0  0  0  0  0  0  0  0  0  0
    2.2489  -50.4963  -24.4051 C   0  0  0  0  0  0  0  0  0  0  0  0
    2.8760  -49.7960  -25.4143 C   0  0  0  0  0  0  0  0  0  0  0  0
    3.4660  -48.5791  -25.1271 C   0  0  0  0  0  0  0  0  0  0  0  0
    3.4506  -48.0354  -23.8589 C   0  0  0  0  0  0  0  0  0  0  0  0
    4.0361  -46.8300  -23.5792 F   0  0  0  0  0  0  0  0  0  0  0  0
    2.8165  -48.7587  -22.8720 C   0  0  0  0  0  0  0  0  0  0  0  0
    2.2274  -49.9673  -23.1441 C   0  0  0  0  0  0  0  0  0  0  0  0
 21 22  1  0  0  0
 22 19  1  0  0  0
 19  1  1  0  0  0
  1  2  2  0  0  0
  2  3  1  0  0  0
  3  4  2  0  0  0
  4  5  1  0  0  0
  5  6  1  0  0  0
  6  7  1  0  0  0
  7  8  2  0  0  0
  8  9  1  0  0  0
  7 11  1  0  0  0
 11 12  2  0  0  0
 12 13  1  0  0  0
 13 14  2  0  0  0
 14 15  1  0  0  0
 14 16  1  0  0  0
 16 17  2  0  0  0
 22 23  1  0  0  0
 23 24  2  0  0  0
 24 25  1  0  0  0
 25 26  2  0  0  0
 26 27  1  0  0  0
 26 28  1  0  0  0
 28 29  2  0  0  0
  9  1  1  0  0  0
 17 11  1  0  0  0
 29 23  1  0  0  0
  9  5  2  0  0  0
 19 20  1  0  0  0
  6 10  1  0  0  0
 15 18  1  0  0  0
M  END
> <minimizedAffinity>
-8.03526

> <CNNscore>
0.7969970107

> <CNNaffinity>
6.6672477722

> <CNN_VS>
5.3137764931

> <CNNaffinity_variance>
0.2430067062

$$$$
[H]Oc1c([H])c([H])c(-c2c([H])c3c(N([H])[C@@]([H])(c4c([H])c([H])c(F)c([H])c4[H])C([H])([H])[H])nc([H])nc3n2[H])c([H])c1[H]


 29 32  0  0  0  0  0  0  0  0999 V2000
   -0.1239  -52.5299  -22.4578 C   0  0  0  0  0  0  0  0  0  0  0  0
   -0.5214  -53.5816  -23.1962 N   0  0  0  0  0  0  0  0  0  0  0  0
   -1.0812  -54.6760  -22.6288 C   0  0  0  0  0  0  0  0  0  0  0  0
   -1.2409  -54.7061  -21.2921 N   0  0  0  0  0  0  0  0  0  0  0  0
   -0.8728  -53.7013  -20.4790 C   0  0  0  0  0  0  0  0  0  0  0  0
   -0.9193  -53.4850  -19.1538 N   0  0  0  0  0  0  0  0  0  0  0  0
   -0.4034  -52.2828  -18.8731 C   0  0  0  0  0  0  0  0  0  0  0  0
   -0.0188  -51.7202  -20.0505 C   0  0  0  0  0  0  0  0  0  0  0  0
   -0.2973  -52.5826  -21.0909 C   0  0  0  0  0  0  0  0  0  0  0  0
   -1.3039  -54.1625  -18.4538 H   0  0  0  0  0  0  0  0  0  0  0  0
   -0.2673  -51.6629  -17.5385 C   0  0  0  0  0  0  0  0  0  0  0  0
    0.7129  -50.7415  -17.2901 C   0  0  0  0  0  0  0  0  0  0  0  0
    0.8529  -50.1474  -16.0323 C   0  0  0  0  0  0  0  0  0  0  0  0
   -0.0072  -50.4865  -15.0097 C   0  0  0  0  0  0  0  0  0  0  0  0
    0.1225  -49.8991  -13.7465 O   0  0  0  0  0  0  0  0  0  0  0  0
   -0.9900  -51.4167  -15.2757 C   0  0  0  0  0  0  0  0  0  0  0  0
   -1.1332  -52.0116  -16.5284 C   0  0  0  0  0  0  0  0  0  0  0  0
   -0.4002  -49.0353  -13.5832 H   0  0  0  0  0  0  0  0  0  0  0  0
    0.4599  -51.3821  -23.0232 N   0  0  0  0  0  0  0  0  0  0  0  0
   -0.1376  -50.5967  -23.3368 H   0  0  0  0  0  0  0  0  0  0  0  0
    2.3380  -49.8042  -22.9518 C   0  0  0  0  0  0  0  0  0  0  0  0
    1.8971  -51.2292  -23.1979 C   0  0  0  0  0  0  0  0  0  0  0  0
    2.2467  -51.7050  -24.5471 C   0  0  0  0  0  0  0  0  0  0  0  0
    1.4025  -51.3734  -25.5862 C   0  0  0  0  0  0  0  0  0  0  0  0
    1.7025  -51.8048  -26.8649 C   0  0  0  0  0  0  0  0  0  0  0  0
    2.8234  -52.5603  -27.1422 C   0  0  0  0  0  0  0  0  0  0  0  0
    3.1165  -52.9853  -28.4101 F   0  0  0  0  0  0  0  0  0  0  0  0
    3.6474  -52.8755  -26.0833 C   0  0  0  0  0  0  0  0  0  0  0  0
    3.3607  -52.4535  -24.8100 C   0  0  0  0  0  0  0  0  0  0  0  0
 21 22  1  0  0  0
 22 19  1  0  0  0
 19  1  1  0  0  0
  1  2  2  0  0  0
  2  3  1  0  0  0
  3  4  2  0  0  0
  4  5  1  0  0  0
  5  6  1  0  0  0
  6  7  1  0  0  0
  7  8  2  0  0  0
  8  9  1  0  0  0
  7 11  1  0  0  0
 11 12  2  0  0  0
 12 13  1  0  0  0
 13 14  2  0  0  0
 14 15  1  0  0  0
 14 16  1  0  0  0
 16 17  2  0  0  0
 22 23  1  0  0  0
 23 24  2  0  0  0
 24 25  1  0  0  0
 25 26  2  0  0  0
 26 27  1  0  0  0
 26 28  1  0  0  0
 28 29  2  0  0  0
  9  1  1  0  0  0
 17 11  1  0  0  0
 29 23  1  0  0  0
  9  5  2  0  0  0
 19 20  1  0  0  0
  6 10  1  0  0  0
 15 18  1  0  0  0
M  END
> <minimizedAffinity>
-7.89054

> <CNNscore>
0.7241671085

> <CNNaffinity>
6.4238405228

> <CNN_VS>
4.6519341469

> <CNNaffinity_variance>
0.2202244103

$$$$
[H]Oc1c([H])c([H])c(-c2c([H])c3c(N([H])[C@@]([H])(c4c([H])c([H])c(F)c([H])c4[H])C([H])([H])[H])nc([H])nc3n2[H])c([H])c1[H]


 29 32  0  0  0  0  0  0  0  0999 V2000
   -0.3157  -51.9743  -21.2643 C   0  0  0  0  0  0  0  0  0  0  0  0
   -0.6528  -52.7097  -20.1897 N   0  0  0  0  0  0  0  0  0  0  0  0
   -1.0534  -53.9976  -20.3085 C   0  0  0  0  0  0  0  0  0  0  0  0
   -1.1136  -54.5496  -21.5353 N   0  0  0  0  0  0  0  0  0  0  0  0
   -0.7955  -53.8889  -22.6616 C   0  0  0  0  0  0  0  0  0  0  0  0
   -0.7700  -54.1966  -23.9692 N   0  0  0  0  0  0  0  0  0  0  0  0
   -0.3636  -53.1355  -24.6758 C   0  0  0  0  0  0  0  0  0  0  0  0
   -0.1247  -52.1271  -23.7945 C   0  0  0  0  0  0  0  0  0  0  0  0
   -0.3849  -52.5602  -22.5106 C   0  0  0  0  0  0  0  0  0  0  0  0
   -1.0309  -55.1301  -24.3657 H   0  0  0  0  0  0  0  0  0  0  0  0
   -0.1984  -53.0536  -26.1421 C   0  0  0  0  0  0  0  0  0  0  0  0
    0.9532  -53.4827  -26.7430 C   0  0  0  0  0  0  0  0  0  0  0  0
    1.1226  -53.4109  -28.1289 C   0  0  0  0  0  0  0  0  0  0  0  0
    0.1171  -52.8994  -28.9212 C   0  0  0  0  0  0  0  0  0  0  0  0
    0.2744  -52.8221  -30.3093 O   0  0  0  0  0  0  0  0  0  0  0  0
   -1.0377  -52.4710  -28.3007 C   0  0  0  0  0  0  0  0  0  0  0  0
   -1.2109  -52.5408  -26.9191 C   0  0  0  0  0  0  0  0  0  0  0  0
   -0.0303  -53.6323  -30.8541 H   0  0  0  0  0  0  0  0  0  0  0  0
    0.1033  -50.6352  -21.1673 N   0  0  0  0  0  0  0  0  0  0  0  0
   -0.5229  -49.8716  -21.4784 H   0  0  0  0  0  0  0  0  0  0  0  0
    1.4036  -48.8171  -20.1546 C   0  0  0  0  0  0  0  0  0  0  0  0
    1.4039  -50.2491  -20.6392 C   0  0  0  0  0  0  0  0  0  0  0  0
    2.4124  -50.4929  -21.6844 C   0  0  0  0  0  0  0  0  0  0  0  0
    2.3587  -49.7188  -22.8246 C   0  0  0  0  0  0  0  0  0  0  0  0
    3.2911  -49.9228  -23.8247 C   0  0  0  0  0  0  0  0  0  0  0  0
    4.2807  -50.8793  -23.7237 C   0  0  0  0  0  0  0  0  0  0  0  0
    5.2020  -51.0778  -24.7167 F   0  0  0  0  0  0  0  0  0  0  0  0
    4.3082  -51.6368  -22.5727 C   0  0  0  0  0  0  0  0  0  0  0  0
    3.3887  -51.4441  -21.5732 C   0  0  0  0  0  0  0  0  0  0  0  0
 21 22  1  0  0  0
 22 19  1  0  0  0
 19  1  1  0  0  0
  1  2  2  0  0  0
  2  3  1  0  0  0
  3  4  2  0  0  0
  4  5  1  0  0  0
  5  6  1  0  0  0
  6  7  1  0  0  0
  7  8  2  0  0  0
  8  9  1  0  0  0
  7 11  1  0  0  0
 11 12  2  0  0  0
 12 13  1  0  0  0
 13 14  2  0  0  0
 14 15  1  0  0  0
 14 16  1  0  0  0
 16 17  2  0  0  0
 22 23  1  0  0  0
 23 24  2  0  0  0
 24 25  1  0  0  0
 25 26  2  0  0  0
 26 27  1  0  0  0
 26 28  1  0  0  0
 28 29  2  0  0  0
  9  1  1  0  0  0
 17 11  1  0  0  0
 29 23  1  0  0  0
  9  5  2  0  0  0
 19 20  1  0  0  0
  6 10  1  0  0  0
 15 18  1  0  0  0
M  END
> <minimizedAffinity>
-8.67863

> <CNNscore>
0.7213163376

> <CNNaffinity>
6.8042287827

> <CNN_VS>
4.9080014229

> <CNNaffinity_variance>
0.1996863931

$$$$
[H]c1nc(N([H])c2c([H])c([H])c([H])c(I)c2[H])c2c([H])c([H])c([H])c([H])c2n1


 19 21  0  0  0  0  0  0  0  0999 V2000
   -0.0999  -52.7046  -22.8792 C   0  0  0  0  0  0  0  0  0  0  0  0
   -0.6689  -53.8814  -23.1392 N   0  0  0  0  0  0  0  0  0  0  0  0
   -1.1660  -54.7288  -22.2424 C   0  0  0  0  0  0  0  0  0  0  0  0
   -1.1001  -54.3907  -20.9544 N   0  0  0  0  0  0  0  0  0  0  0  0
   -0.5499  -53.2309  -20.5644 C   0  0  0  0  0  0  0  0  0  0  0  0
   -0.5253  -52.9682  -19.2168 C   0  0  0  0  0  0  0  0  0  0  0  0
    0.0303  -51.7922  -18.7695 C   0  0  0  0  0  0  0  0  0  0  0  0
    0.5430  -50.9181  -19.6902 C   0  0  0  0  0  0  0  0  0  0  0  0
    0.5070  -51.2059  -21.0549 C   0  0  0  0  0  0  0  0  0  0  0  0
   -0.0402  -52.3694  -21.5302 C   0  0  0  0  0  0  0  0  0  0  0  0
    0.3887  -51.8374  -23.8695 N   0  0  0  0  0  0  0  0  0  0  0  0
    0.2998  -50.7901  -23.6477 H   0  0  0  0  0  0  0  0  0  0  0  0
   -0.6410  -52.8281  -29.1201 I   0  0  0  0  0  0  0  0  0  0  0  0
    0.6457  -52.6270  -27.4677 C   0  0  0  0  0  0  0  0  0  0  0  0
    1.9939  -52.8331  -27.6517 C   0  0  0  0  0  0  0  0  0  0  0  0
    2.8226  -52.6994  -26.5702 C   0  0  0  0  0  0  0  0  0  0  0  0
    2.3065  -52.3634  -25.3197 C   0  0  0  0  0  0  0  0  0  0  0  0
    0.9769  -52.1530  -25.1020 C   0  0  0  0  0  0  0  0  0  0  0  0
    0.1474  -52.2959  -26.2281 C   0  0  0  0  0  0  0  0  0  0  0  0
 13 14  1  0  0  0
 14 15  2  0  0  0
 15 16  1  0  0  0
 16 17  2  0  0  0
 17 18  1  0  0  0
 18 11  1  0  0  0
 11  1  1  0  0  0
  1  2  2  0  0  0
  2  3  1  0  0  0
  3  4  2  0  0  0
  4  5  1  0  0  0
  5  6  2  0  0  0
  6  7  1  0  0  0
  7  8  2  0  0  0
  8  9  1  0  0  0
  9 10  2  0  0  0
 18 19  2  0  0  0
 19 14  1  0  0  0
 10  1  1  0  0  0
 10  5  1  0  0  0
 11 12  1  0  0  0
M  END
> <minimizedAffinity>
-7.36676

> <CNNscore>
0.8995554447

> <CNNaffinity>
6.0255646706

> <CNN_VS>
5.4203295708

> <CNNaffinity_variance>
0.0659934804

$$$$
[H]c1nc(N([H])c2c([H])c([H])c([H])c(I)c2[H])c2c([H])c([H])c([H])c([H])c2n1


 19 21  0  0  0  0  0  0  0  0999 V2000
   -0.6020  -52.8030  -23.2116 C   0  0  0  0  0  0  0  0  0  0  0  0
   -1.0090  -54.0699  -23.2858 N   0  0  0  0  0  0  0  0  0  0  0  0
   -1.1542  -54.9096  -22.2644 C   0  0  0  0  0  0  0  0  0  0  0  0
   -0.8717  -54.4641  -21.0399 N   0  0  0  0  0  0  0  0  0  0  0  0
   -0.4522  -53.2064  -20.8341 C   0  0  0  0  0  0  0  0  0  0  0  0
   -0.1841  -52.8369  -19.5390 C   0  0  0  0  0  0  0  0  0  0  0  0
    0.2501  -51.5579  -19.2793 C   0  0  0  0  0  0  0  0  0  0  0  0
    0.4007  -50.6916  -20.3287 C   0  0  0  0  0  0  0  0  0  0  0  0
    0.1223  -51.0889  -21.6368 C   0  0  0  0  0  0  0  0  0  0  0  0
   -0.3120  -52.3565  -21.9263 C   0  0  0  0  0  0  0  0  0  0  0  0
   -0.4883  -51.9527  -24.3231 N   0  0  0  0  0  0  0  0  0  0  0  0
   -0.2112  -50.9392  -24.0998 H   0  0  0  0  0  0  0  0  0  0  0  0
    1.9608  -53.7340  -28.8441 I   0  0  0  0  0  0  0  0  0  0  0  0
    0.2993  -53.0183  -27.7700 C   0  0  0  0  0  0  0  0  0  0  0  0
   -0.8932  -52.8470  -28.4352 C   0  0  0  0  0  0  0  0  0  0  0  0
   -1.9683  -52.3812  -27.7270 C   0  0  0  0  0  0  0  0  0  0  0  0
   -1.8497  -52.0905  -26.3690 C   0  0  0  0  0  0  0  0  0  0  0  0
   -0.6839  -52.2478  -25.6794 C   0  0  0  0  0  0  0  0  0  0  0  0
    0.4046  -52.7276  -26.4287 C   0  0  0  0  0  0  0  0  0  0  0  0
 13 14  1  0  0  0
 14 15  2  0  0  0
 15 16  1  0  0  0
 16 17  2  0  0  0
 17 18  1  0  0  0
 18 11  1  0  0  0
 11  1  1  0  0  0
  1  2  2  0  0  0
  2  3  1  0  0  0
  3  4  2  0  0  0
  4  5  1  0  0  0
  5  6  2  0  0  0
  6  7  1  0  0  0
  7  8  2  0  0  0
  8  9  1  0  0  0
  9 10  2  0  0  0
 18 19  2  0  0  0
 19 14  1  0  0  0
 10  1  1  0  0  0
 10  5  1  0  0  0
 11 12  1  0  0  0
M  END
> <minimizedAffinity>
-6.47016

> <CNNscore>
0.8252524734

> <CNNaffinity>
5.9707059860

> <CNN_VS>
4.9273400307

> <CNNaffinity_variance>
0.1062800512

$$$$
[H]c1nc(N([H])c2c([H])c([H])c([H])c(I)c2[H])c2c([H])c([H])c([H])c([H])c2n1


 19 21  0  0  0  0  0  0  0  0999 V2000
    0.0562  -53.3382  -22.1349 C   0  0  0  0  0  0  0  0  0  0  0  0
   -0.6362  -54.4679  -21.9914 N   0  0  0  0  0  0  0  0  0  0  0  0
   -1.2582  -55.1363  -22.9588 C   0  0  0  0  0  0  0  0  0  0  0  0
   -1.1972  -54.6493  -24.1985 N   0  0  0  0  0  0  0  0  0  0  0  0
   -0.5300  -53.5178  -24.4719 C   0  0  0  0  0  0  0  0  0  0  0  0
   -0.5228  -53.0919  -25.7773 C   0  0  0  0  0  0  0  0  0  0  0  0
    0.1469  -51.9362  -26.1054 C   0  0  0  0  0  0  0  0  0  0  0  0
    0.7877  -51.2459  -25.1118 C   0  0  0  0  0  0  0  0  0  0  0  0
    0.7671  -51.6976  -23.7919 C   0  0  0  0  0  0  0  0  0  0  0  0
    0.1084  -52.8455  -23.4349 C   0  0  0  0  0  0  0  0  0  0  0  0
    0.7136  -52.6856  -21.0797 N   0  0  0  0  0  0  0  0  0  0  0  0
    1.7165  -52.3646  -21.2917 H   0  0  0  0  0  0  0  0  0  0  0  0
    1.3009  -49.3648  -16.8091 I   0  0  0  0  0  0  0  0  0  0  0  0
    0.4132  -50.9852  -17.8155 C   0  0  0  0  0  0  0  0  0  0  0  0
   -0.5699  -51.7029  -17.1732 C   0  0  0  0  0  0  0  0  0  0  0  0
   -1.1414  -52.7551  -17.8370 C   0  0  0  0  0  0  0  0  0  0  0  0
   -0.7327  -53.0840  -19.1284 C   0  0  0  0  0  0  0  0  0  0  0  0
    0.2382  -52.3951  -19.7934 C   0  0  0  0  0  0  0  0  0  0  0  0
    0.8088  -51.3194  -19.0907 C   0  0  0  0  0  0  0  0  0  0  0  0
 13 14  1  0  0  0
 14 15  2  0  0  0
 15 16  1  0  0  0
 16 17  2  0  0  0
 17 18  1  0  0  0
 18 11  1  0  0  0
 11  1  1  0  0  0
  1  2  2  0  0  0
  2  3  1  0  0  0
  3  4  2  0  0  0
  4  5  1  0  0  0
  5  6  2  0  0  0
  6  7  1  0  0  0
  7  8  2  0  0  0
  8  9  1  0  0  0
  9 10  2  0  0  0
 18 19  2  0  0  0
 19 14  1  0  0  0
 10  1  1  0  0  0
 10  5  1  0  0  0
 11 12  1  0  0  0
M  END
> <minimizedAffinity>
-7.13863

> <CNNscore>
0.7365539074

> <CNNaffinity>
5.7836942673

> <CNN_VS>
4.2600026131

> <CNNaffinity_variance>
0.1047476903

$$$$
[H]c1nc(N([H])c2c([H])c([H])c([H])c(I)c2[H])c2c([H])c([H])c([H])c([H])c2n1


 19 21  0  0  0  0  0  0  0  0999 V2000
   -0.1857  -53.2279  -23.8704 C   0  0  0  0  0  0  0  0  0  0  0  0
   -0.7445  -54.3459  -24.3330 N   0  0  0  0  0  0  0  0  0  0  0  0
   -1.3866  -55.2602  -23.6111 C   0  0  0  0  0  0  0  0  0  0  0  0
   -1.4942  -55.0611  -22.2971 N   0  0  0  0  0  0  0  0  0  0  0  0
   -0.9729  -53.9727  -21.7110 C   0  0  0  0  0  0  0  0  0  0  0  0
   -1.1319  -53.8530  -20.3523 C   0  0  0  0  0  0  0  0  0  0  0  0
   -0.6129  -52.7547  -19.7072 C   0  0  0  0  0  0  0  0  0  0  0  0
    0.0488  -51.8122  -20.4477 C   0  0  0  0  0  0  0  0  0  0  0  0
    0.1983  -51.9545  -21.8275 C   0  0  0  0  0  0  0  0  0  0  0  0
   -0.3081  -53.0378  -22.4977 C   0  0  0  0  0  0  0  0  0  0  0  0
    0.4618  -52.2839  -24.6836 N   0  0  0  0  0  0  0  0  0  0  0  0
   -0.1703  -51.7702  -25.3839 H   0  0  0  0  0  0  0  0  0  0  0  0
    3.9146  -48.1888  -25.6419 I   0  0  0  0  0  0  0  0  0  0  0  0
    3.4621  -50.1747  -25.1146 C   0  0  0  0  0  0  0  0  0  0  0  0
    4.4983  -51.0362  -24.8350 C   0  0  0  0  0  0  0  0  0  0  0  0
    4.1931  -52.3261  -24.4925 C   0  0  0  0  0  0  0  0  0  0  0  0
    2.8659  -52.7474  -24.4311 C   0  0  0  0  0  0  0  0  0  0  0  0
    1.8156  -51.9211  -24.7023 C   0  0  0  0  0  0  0  0  0  0  0  0
    2.1553  -50.6021  -25.0510 C   0  0  0  0  0  0  0  0  0  0  0  0
 13 14  1  0  0  0
 14 15  2  0  0  0
 15 16  1  0  0  0
 16 17  2  0  0  0
 17 18  1  0  0  0
 18 11  1  0  0  0
 11  1  1  0  0  0
  1  2  2  0  0  0
  2  3  1  0  0  0
  3  4  2  0  0  0
  4  5  1  0  0  0
  5  6  2  0  0  0
  6  7  1  0  0  0
  7  8  2  0  0  0
  8  9  1  0  0  0
  9 10  2  0  0  0
 18 19  2  0  0  0
 19 14  1  0  0  0
 10  1  1  0  0  0
 10  5  1  0  0  0
 11 12  1  0  0  0
M  END
> <minimizedAffinity>
-6.71126

> <CNNscore>
0.6738044620

> <CNNaffinity>
5.6589536667

> <CNN_VS>
3.8130283356

> <CNNaffinity_variance>
0.1173496619

$$$$
[H]c1nc(N([H])c2c([H])c([H])c([H])c(I)c2[H])c2c([H])c([H])c([H])c([H])c2n1


 19 21  0  0  0  0  0  0  0  0999 V2000
   -0.6176  -53.2961  -24.1494 C   0  0  0  0  0  0  0  0  0  0  0  0
   -1.0835  -54.5275  -24.3561 N   0  0  0  0  0  0  0  0  0  0  0  0
   -1.3761  -55.4244  -23.4183 C   0  0  0  0  0  0  0  0  0  0  0  0
   -1.1940  -55.0819  -22.1427 N   0  0  0  0  0  0  0  0  0  0  0  0
   -0.7293  -53.8694  -21.8050 C   0  0  0  0  0  0  0  0  0  0  0  0
   -0.5727  -53.6064  -20.4664 C   0  0  0  0  0  0  0  0  0  0  0  0
   -0.0976  -52.3774  -20.0721 C   0  0  0  0  0  0  0  0  0  0  0  0
    0.2046  -51.4523  -21.0351 C   0  0  0  0  0  0  0  0  0  0  0  0
    0.0375  -51.7415  -22.3897 C   0  0  0  0  0  0  0  0  0  0  0  0
   -0.4340  -52.9571  -22.8127 C   0  0  0  0  0  0  0  0  0  0  0  0
   -0.3467  -52.3804  -25.1789 N   0  0  0  0  0  0  0  0  0  0  0  0
   -1.1543  -51.7178  -25.4286 H   0  0  0  0  0  0  0  0  0  0  0  0
    3.7884  -48.9868  -26.1761 I   0  0  0  0  0  0  0  0  0  0  0  0
    2.7235  -50.7787  -26.4615 C   0  0  0  0  0  0  0  0  0  0  0  0
    3.2044  -51.6954  -27.3683 C   0  0  0  0  0  0  0  0  0  0  0  0
    2.5042  -52.8584  -27.5463 C   0  0  0  0  0  0  0  0  0  0  0  0
    1.3365  -53.0995  -26.8244 C   0  0  0  0  0  0  0  0  0  0  0  0
    0.8318  -52.2134  -25.9192 C   0  0  0  0  0  0  0  0  0  0  0  0
    1.5690  -51.0276  -25.7545 C   0  0  0  0  0  0  0  0  0  0  0  0
 13 14  1  0  0  0
 14 15  2  0  0  0
 15 16  1  0  0  0
 16 17  2  0  0  0
 17 18  1  0  0  0
 18 11  1  0  0  0
 11  1  1  0  0  0
  1  2  2  0  0  0
  2  3  1  0  0  0
  3  4  2  0  0  0
  4  5  1  0  0  0
  5  6  2  0  0  0
  6  7  1  0  0  0
  7  8  2  0  0  0
  8  9  1  0  0  0
  9 10  2  0  0  0
 18 19  2  0  0  0
 19 14  1  0  0  0
 10  1  1  0  0  0
 10  5  1  0  0  0
 11 12  1  0  0  0
M  END
> <minimizedAffinity>
-6.75961

> <CNNscore>
0.6713751554

> <CNNaffinity>
5.6470198631

> <CNN_VS>
3.7912688255

> <CNNaffinity_variance>
0.1478278935

$$$$
[H]c1nc(N([H])c2c([H])c([H])c([H])c(I)c2[H])c2c([H])c([H])c([H])c([H])c2n1


 19 21  0  0  0  0  0  0  0  0999 V2000
    0.9131  -52.1611  -25.7273 C   0  0  0  0  0  0  0  0  0  0  0  0
    2.2275  -52.2872  -25.9073 N   0  0  0  0  0  0  0  0  0  0  0  0
    2.8381  -52.5978  -27.0476 C   0  0  0  0  0  0  0  0  0  0  0  0
    2.0841  -52.8077  -28.1270 N   0  0  0  0  0  0  0  0  0  0  0  0
    0.7470  -52.7106  -28.0742 C   0  0  0  0  0  0  0  0  0  0  0  0
    0.0531  -52.9451  -29.2357 C   0  0  0  0  0  0  0  0  0  0  0  0
   -1.3196  -52.8586  -29.2298 C   0  0  0  0  0  0  0  0  0  0  0  0
   -1.9507  -52.5394  -28.0576 C   0  0  0  0  0  0  0  0  0  0  0  0
   -1.2251  -52.3051  -26.8891 C   0  0  0  0  0  0  0  0  0  0  0  0
    0.1432  -52.3838  -26.8645 C   0  0  0  0  0  0  0  0  0  0  0  0
    0.3226  -51.8079  -24.5033 N   0  0  0  0  0  0  0  0  0  0  0  0
    0.1227  -50.7603  -24.3749 H   0  0  0  0  0  0  0  0  0  0  0  0
    0.1481  -52.1735  -19.0768 I   0  0  0  0  0  0  0  0  0  0  0  0
   -0.1608  -52.9260  -21.0172 C   0  0  0  0  0  0  0  0  0  0  0  0
   -0.6799  -54.1926  -21.1594 C   0  0  0  0  0  0  0  0  0  0  0  0
   -0.8774  -54.6726  -22.4262 C   0  0  0  0  0  0  0  0  0  0  0  0
   -0.5585  -53.8930  -23.5368 C   0  0  0  0  0  0  0  0  0  0  0  0
   -0.0423  -52.6352  -23.4322 C   0  0  0  0  0  0  0  0  0  0  0  0
    0.1506  -52.1653  -22.1212 C   0  0  0  0  0  0  0  0  0  0  0  0
 13 14  1  0  0  0
 14 15  2  0  0  0
 15 16  1  0  0  0
 16 17  2  0  0  0
 17 18  1  0  0  0
 18 11  1  0  0  0
 11  1  1  0  0  0
  1  2  2  0  0  0
  2  3  1  0  0  0
  3  4  2  0  0  0
  4  5  1  0  0  0
  5  6  2  0  0  0
  6  7  1  0  0  0
  7  8  2  0  0  0
  8  9  1  0  0  0
  9 10  2  0  0  0
 18 19  2  0  0  0
 19 14  1  0  0  0
 10  1  1  0  0  0
 10  5  1  0  0  0
 11 12  1  0  0  0
M  END
> <minimizedAffinity>
-7.86633

> <CNNscore>
0.6523176432

> <CNNaffinity>
5.8812956810

> <CNN_VS>
3.8364729881

> <CNNaffinity_variance>
0.1709499359

$$$$
[H]c1nc(N([H])c2c([H])c([H])c([H])c(I)c2[H])c2c([H])c([H])c([H])c([H])c2n1


 19 21  0  0  0  0  0  0  0  0999 V2000
   -0.3204  -52.7141  -22.5931 C   0  0  0  0  0  0  0  0  0  0  0  0
   -0.9738  -53.8604  -22.7801 N   0  0  0  0  0  0  0  0  0  0  0  0
   -1.4890  -54.6352  -21.8294 C   0  0  0  0  0  0  0  0  0  0  0  0
   -1.3510  -54.2488  -20.5608 N   0  0  0  0  0  0  0  0  0  0  0  0
   -0.7123  -53.1127  -20.2425 C   0  0  0  0  0  0  0  0  0  0  0  0
   -0.6179  -52.7964  -18.9096 C   0  0  0  0  0  0  0  0  0  0  0  0
    0.0294  -51.6421  -18.5351 C   0  0  0  0  0  0  0  0  0  0  0  0
    0.5609  -50.8429  -19.5115 C   0  0  0  0  0  0  0  0  0  0  0  0
    0.4530  -51.1841  -20.8600 C   0  0  0  0  0  0  0  0  0  0  0  0
   -0.1863  -52.3277  -21.2634 C   0  0  0  0  0  0  0  0  0  0  0  0
    0.1839  -51.9230  -23.6379 N   0  0  0  0  0  0  0  0  0  0  0  0
   -0.3149  -50.9830  -23.7843 H   0  0  0  0  0  0  0  0  0  0  0  0
    5.6070  -52.0422  -24.0688 I   0  0  0  0  0  0  0  0  0  0  0  0
    3.6604  -52.2718  -24.8332 C   0  0  0  0  0  0  0  0  0  0  0  0
    3.5074  -52.6494  -26.1478 C   0  0  0  0  0  0  0  0  0  0  0  0
    2.2365  -52.7965  -26.6353 C   0  0  0  0  0  0  0  0  0  0  0  0
    1.1327  -52.5679  -25.8155 C   0  0  0  0  0  0  0  0  0  0  0  0
    1.2479  -52.1923  -24.5097 C   0  0  0  0  0  0  0  0  0  0  0  0
    2.5628  -52.0485  -24.0332 C   0  0  0  0  0  0  0  0  0  0  0  0
 13 14  1  0  0  0
 14 15  2  0  0  0
 15 16  1  0  0  0
 16 17  2  0  0  0
 17 18  1  0  0  0
 18 11  1  0  0  0
 11  1  1  0  0  0
  1  2  2  0  0  0
  2  3  1  0  0  0
  3  4  2  0  0  0
  4  5  1  0  0  0
  5  6  2  0  0  0
  6  7  1  0  0  0
  7  8  2  0  0  0
  8  9  1  0  0  0
  9 10  2  0  0  0
 18 19  2  0  0  0
 19 14  1  0  0  0
 10  1  1  0  0  0
 10  5  1  0  0  0
 11 12  1  0  0  0
M  END
> <minimizedAffinity>
-6.46379

> <CNNscore>
0.6055867672

> <CNNaffinity>
5.5848374367

> <CNN_VS>
3.3821036816

> <CNNaffinity_variance>
0.1058327705

$$$$
[H]c1nc(N([H])c2c([H])c([H])c([H])c(I)c2[H])c2c([H])c([H])c([H])c([H])c2n1


 19 21  0  0  0  0  0  0  0  0999 V2000
    0.0641  -52.3387  -21.7600 C   0  0  0  0  0  0  0  0  0  0  0  0
   -0.5990  -53.3733  -22.2758 N   0  0  0  0  0  0  0  0  0  0  0  0
   -1.3661  -54.2281  -21.6048 C   0  0  0  0  0  0  0  0  0  0  0  0
   -1.4996  -54.0537  -20.2898 N   0  0  0  0  0  0  0  0  0  0  0  0
   -0.8817  -53.0476  -19.6527 C   0  0  0  0  0  0  0  0  0  0  0  0
   -1.0768  -52.9475  -18.2971 C   0  0  0  0  0  0  0  0  0  0  0  0
   -0.4623  -51.9328  -17.6010 C   0  0  0  0  0  0  0  0  0  0  0  0
    0.3281  -51.0516  -18.2889 C   0  0  0  0  0  0  0  0  0  0  0  0
    0.5120  -51.1726  -19.6666 C   0  0  0  0  0  0  0  0  0  0  0  0
   -0.0873  -52.1731  -20.3869 C   0  0  0  0  0  0  0  0  0  0  0  0
    0.8433  -51.4525  -22.5209 N   0  0  0  0  0  0  0  0  0  0  0  0
    0.5161  -50.4294  -22.5122 H   0  0  0  0  0  0  0  0  0  0  0  0
    2.6170  -52.7274  -27.5048 I   0  0  0  0  0  0  0  0  0  0  0  0
    2.9045  -52.3052  -25.4638 C   0  0  0  0  0  0  0  0  0  0  0  0
    4.1841  -52.3318  -24.9579 C   0  0  0  0  0  0  0  0  0  0  0  0
    4.3604  -52.0552  -23.6287 C   0  0  0  0  0  0  0  0  0  0  0  0
    3.2679  -51.7558  -22.8166 C   0  0  0  0  0  0  0  0  0  0  0  0
    1.9875  -51.7214  -23.2846 C   0  0  0  0  0  0  0  0  0  0  0  0
    1.8332  -52.0085  -24.6522 C   0  0  0  0  0  0  0  0  0  0  0  0
 13 14  1  0  0  0
 14 15  2  0  0  0
 15 16  1  0  0  0
 16 17  2  0  0  0
 17 18  1  0  0  0
 18 11  1  0  0  0
 11  1  1  0  0  0
  1  2  2  0  0  0
  2  3  1  0  0  0
  3  4  2  0  0  0
  4  5  1  0  0  0
  5  6  2  0  0  0
  6  7  1  0  0  0
  7  8  2  0  0  0
  8  9  1  0  0  0
  9 10  2  0  0  0
 18 19  2  0  0  0
 19 14  1  0  0  0
 10  1  1  0  0  0
 10  5  1  0  0  0
 11 12  1  0  0  0
M  END
> <minimizedAffinity>
-6.40153

> <CNNscore>
0.5323104262

> <CNNaffinity>
5.4851865768

> <CNN_VS>
2.9198219776

> <CNNaffinity_variance>
0.1316766441

$$$$
[H]c1nc(N([H])c2c([H])c([H])c([H])c(I)c2[H])c2c([H])c([H])c([H])c([H])c2n1


 19 21  0  0  0  0  0  0  0  0999 V2000
    1.0224  -52.6315  -23.1611 C   0  0  0  0  0  0  0  0  0  0  0  0
    0.1101  -53.3296  -22.4854 N   0  0  0  0  0  0  0  0  0  0  0  0
   -0.5782  -52.9069  -21.4285 C   0  0  0  0  0  0  0  0  0  0  0  0
   -0.3509  -51.6705  -20.9843 N   0  0  0  0  0  0  0  0  0  0  0  0
    0.5445  -50.8683  -21.5799 C   0  0  0  0  0  0  0  0  0  0  0  0
    0.7124  -49.6119  -21.0519 C   0  0  0  0  0  0  0  0  0  0  0  0
    1.6206  -48.7546  -21.6281 C   0  0  0  0  0  0  0  0  0  0  0  0
    2.3306  -49.1870  -22.7158 C   0  0  0  0  0  0  0  0  0  0  0  0
    2.1435  -50.4682  -23.2355 C   0  0  0  0  0  0  0  0  0  0  0  0
    1.2458  -51.3443  -22.6828 C   0  0  0  0  0  0  0  0  0  0  0  0
    1.7041  -53.1209  -24.2869 N   0  0  0  0  0  0  0  0  0  0  0  0
    2.5932  -53.6856  -24.0760 H   0  0  0  0  0  0  0  0  0  0  0  0
   -2.3995  -52.3890  -27.7847 I   0  0  0  0  0  0  0  0  0  0  0  0
   -0.3685  -52.6628  -27.3086 C   0  0  0  0  0  0  0  0  0  0  0  0
    0.5492  -52.7110  -28.3330 C   0  0  0  0  0  0  0  0  0  0  0  0
    1.8683  -52.8891  -28.0124 C   0  0  0  0  0  0  0  0  0  0  0  0
    2.2626  -53.0173  -26.6817 C   0  0  0  0  0  0  0  0  0  0  0  0
    1.3804  -52.9749  -25.6428 C   0  0  0  0  0  0  0  0  0  0  0  0
    0.0326  -52.7909  -25.9982 C   0  0  0  0  0  0  0  0  0  0  0  0
 13 14  1  0  0  0
 14 15  2  0  0  0
 15 16  1  0  0  0
 16 17  2  0  0  0
 17 18  1  0  0  0
 18 11  1  0  0  0
 11  1  1  0  0  0
  1  2  2  0  0  0
  2  3  1  0  0  0
  3  4  2  0  0  0
  4  5  1  0  0  0
  5  6  2  0  0  0
  6  7  1  0  0  0
  7  8  2  0  0  0
  8  9  1  0  0  0
  9 10  2  0  0  0
 18 19  2  0  0  0
 19 14  1  0  0  0
 10  1  1  0  0  0
 10  5  1  0  0  0
 11 12  1  0  0  0
M  END
> <minimizedAffinity>
-5.95871

> <CNNscore>
0.5164698958

> <CNNaffinity>
5.6322579384

> <CNN_VS>
2.9088916779

> <CNNaffinity_variance>
0.2188267261

$$$$
[H]C([H])=C([H])C(=O)N([H])c1c([H])c([H])c([H])c(N([H])c2nc(N([H])c3c([H])c([H])c([H])c(OC([H])([H])C([H])([H])C([H])([H])N([H])C(=O)C([H])([H])C([H])([H])C([H])([H])C([H])([H])[C@]4([H])SC([H])([H])[C@]5([H])N([H])C(=O)N([H])[C@]45[H])c3[H])nc([H])c2C([H])([H])[H])c1[H]


 52 56  0  0  0  0  0  0  0  0999 V2000
   -0.4604  -52.9207  -18.6529 C   0  0  0  0  0  0  0  0  0  0  0  0
    0.4128  -51.8172  -18.7658 C   0  0  0  0  0  0  0  0  0  0  0  0
    0.2604  -50.8106  -17.8618 C   0  0  0  0  0  0  0  0  0  0  0  0
   -0.7191  -50.8589  -16.8572 C   0  0  0  0  0  0  0  0  0  0  0  0
   -1.5665  -51.9355  -16.7483 C   0  0  0  0  0  0  0  0  0  0  0  0
   -1.4069  -52.9786  -17.6889 C   0  0  0  0  0  0  0  0  0  0  0  0
   -0.2548  -53.9556  -19.5868 N   0  0  0  0  0  0  0  0  0  0  0  0
   -0.0016  -54.9267  -19.2225 H   0  0  0  0  0  0  0  0  0  0  0  0
   -0.5916  -53.4453  -25.2333 C   0  0  0  0  0  0  0  0  0  0  0  0
   -0.5019  -53.5739  -23.7610 C   0  0  0  0  0  0  0  0  0  0  0  0
   -1.1117  -54.6198  -23.1036 C   0  0  0  0  0  0  0  0  0  0  0  0
   -1.0170  -54.7321  -21.7616 N   0  0  0  0  0  0  0  0  0  0  0  0
   -0.3493  -53.8695  -20.9877 C   0  0  0  0  0  0  0  0  0  0  0  0
    0.2490  -52.8376  -21.6635 N   0  0  0  0  0  0  0  0  0  0  0  0
    0.1930  -52.6709  -22.9830 C   0  0  0  0  0  0  0  0  0  0  0  0
    0.8033  -51.5356  -23.5794 N   0  0  0  0  0  0  0  0  0  0  0  0
    0.2806  -51.0251  -24.3541 H   0  0  0  0  0  0  0  0  0  0  0  0
    2.0803  -51.0353  -23.2059 C   0  0  0  0  0  0  0  0  0  0  0  0
    3.2006  -51.7697  -23.4230 C   0  0  0  0  0  0  0  0  0  0  0  0
    4.4466  -51.2801  -23.0089 C   0  0  0  0  0  0  0  0  0  0  0  0
    4.5195  -50.0655  -22.3901 C   0  0  0  0  0  0  0  0  0  0  0  0
    3.4002  -49.2734  -22.1444 C   0  0  0  0  0  0  0  0  0  0  0  0
    2.2085  -49.8010  -22.5703 C   0  0  0  0  0  0  0  0  0  0  0  0
    3.5877  -48.0479  -21.4865 N   0  0  0  0  0  0  0  0  0  0  0  0
    3.4334  -47.7632  -20.1197 C   0  0  0  0  0  0  0  0  0  0  0  0
    3.0848  -48.6233  -19.2677 O   0  0  0  0  0  0  0  0  0  0  0  0
    3.8857  -47.2198  -22.0835 H   0  0  0  0  0  0  0  0  0  0  0  0
    3.6880  -46.3969  -19.6293 C   0  0  0  0  0  0  0  0  0  0  0  0
    3.4998  -46.0848  -18.3638 C   0  0  0  0  0  0  0  0  0  0  0  0
   -2.5318  -52.0397  -15.7841 O   0  0  0  0  0  0  0  0  0  0  0  0
   -3.6893  -51.3249  -15.6912 C   0  0  0  0  0  0  0  0  0  0  0  0
   -3.6344  -50.0404  -14.9023 C   0  0  0  0  0  0  0  0  0  0  0  0
   -3.2405  -50.3985  -13.4695 C   0  0  0  0  0  0  0  0  0  0  0  0
   -1.8764  -50.7957  -13.3245 N   0  0  0  0  0  0  0  0  0  0  0  0
   -1.4408  -51.9982  -12.6909 C   0  0  0  0  0  0  0  0  0  0  0  0
   -2.3512  -52.7355  -12.2373 O   0  0  0  0  0  0  0  0  0  0  0  0
   -1.0967  -50.1734  -13.7005 H   0  0  0  0  0  0  0  0  0  0  0  0
   -0.0225  -52.3335  -12.5830 C   0  0  0  0  0  0  0  0  0  0  0  0
    0.6115  -52.1086  -11.2588 C   0  0  0  0  0  0  0  0  0  0  0  0
    1.9533  -51.4723  -11.3255 C   0  0  0  0  0  0  0  0  0  0  0  0
    2.4055  -51.3339  -12.7797 C   0  0  0  0  0  0  0  0  0  0  0  0
    2.8834  -49.9393  -13.1034 C   0  0  0  0  0  0  0  0  0  0  0  0
    1.4453  -48.9729  -13.6528 S   0  0  0  0  0  0  0  0  0  0  0  0
    1.9966  -48.6327  -15.3756 C   0  0  0  0  0  0  0  0  0  0  0  0
    3.4864  -48.8147  -15.2034 C   0  0  0  0  0  0  0  0  0  0  0  0
    3.9782  -49.2771  -16.4886 N   0  0  0  0  0  0  0  0  0  0  0  0
    3.7489  -50.6811  -16.4790 C   0  0  0  0  0  0  0  0  0  0  0  0
    3.6608  -51.3968  -17.5336 O   0  0  0  0  0  0  0  0  0  0  0  0
    3.6372  -51.1316  -15.1375 N   0  0  0  0  0  0  0  0  0  0  0  0
    3.7479  -49.9767  -14.3156 C   0  0  0  0  0  0  0  0  0  0  0  0
    4.4039  -48.7406  -17.2566 H   0  0  0  0  0  0  0  0  0  0  0  0
    3.5053  -52.1054  -14.8374 H   0  0  0  0  0  0  0  0  0  0  0  0
  9 10  1  0  0  0
 10 11  2  0  0  0
 11 12  1  0  0  0
 12 13  2  0  0  0
 13  7  1  0  0  0
  7  1  1  0  0  0
  1  2  2  0  0  0
  2  3  1  0  0  0
  3  4  2  0  0  0
  4  5  1  0  0  0
  5 30  1  0  0  0
 30 31  1  0  0  0
 31 32  1  0  0  0
 32 33  1  0  0  0
 33 34  1  0  0  0
 34 35  1  0  0  0
 35 36  2  0  0  0
 35 38  1  0  0  0
 38 39  1  0  0  0
 39 40  1  0  0  0
 40 41  1  0  0  0
 41 42  1  0  0  0
 42 43  1  0  0  0
 43 44  1  0  0  0
 44 45  1  0  0  0
 45 46  1  0  0  0
 46 47  1  0  0  0
 47 48  2  0  0  0
 47 49  1  0  0  0
 49 50  1  0  0  0
  5  6  2  0  0  0
 13 14  1  0  0  0
 14 15  2  0  0  0
 15 16  1  0  0  0
 16 18  1  0  0  0
 18 19  2  0  0  0
 19 20  1  0  0  0
 20 21  2  0  0  0
 21 22  1  0  0  0
 22 24  1  0  0  0
 24 25  1  0  0  0
 25 26  2  0  0  0
 25 28  1  0  0  0
 28 29  2  0  0  0
 22 23  2  0  0  0
 15 10  1  0  0  0
 23 18  1  0  0  0
  6  1  1  0  0  0
 50 42  1  0  0  0
 50 45  1  0  0  0
  7  8  1  0  0  0
 34 37  1  0  0  0
 46 51  1  0  0  0
 49 52  1  0  0  0
 16 17  1  0  0  0
 24 27  1  0  0  0
M  END
> <minimizedAffinity>
-6.92571

> <CNNscore>
0.4554421008

> <CNNaffinity>
7.4771423340

> <CNN_VS>
3.4054055214

> <CNNaffinity_variance>
0.2218237370

$$$$
[H]C([H])=C([H])C(=O)N([H])c1c([H])c([H])c([H])c(N([H])c2nc(N([H])c3c([H])c([H])c([H])c(OC([H])([H])C([H])([H])C([H])([H])N([H])C(=O)C([H])([H])C([H])([H])C([H])([H])C([H])([H])[C@]4([H])SC([H])([H])[C@]5([H])N([H])C(=O)N([H])[C@]45[H])c3[H])nc([H])c2C([H])([H])[H])c1[H]


 52 56  0  0  0  0  0  0  0  0999 V2000
   -0.0121  -52.6667  -20.5429 C   0  0  0  0  0  0  0  0  0  0  0  0
    0.3018  -51.2938  -20.4462 C   0  0  0  0  0  0  0  0  0  0  0  0
    0.6190  -50.6471  -21.6015 C   0  0  0  0  0  0  0  0  0  0  0  0
    0.6356  -51.3080  -22.8400 C   0  0  0  0  0  0  0  0  0  0  0  0
    0.3276  -52.6443  -22.9316 C   0  0  0  0  0  0  0  0  0  0  0  0
   -0.0002  -53.3136  -21.7303 C   0  0  0  0  0  0  0  0  0  0  0  0
   -0.3631  -53.2960  -19.3321 N   0  0  0  0  0  0  0  0  0  0  0  0
   -0.1835  -54.3438  -19.2325 H   0  0  0  0  0  0  0  0  0  0  0  0
   -2.5246  -50.8118  -14.7045 C   0  0  0  0  0  0  0  0  0  0  0  0
   -1.9570  -51.4572  -15.9103 C   0  0  0  0  0  0  0  0  0  0  0  0
   -2.6215  -52.4855  -16.5417 C   0  0  0  0  0  0  0  0  0  0  0  0
   -2.0988  -53.0617  -17.6450 N   0  0  0  0  0  0  0  0  0  0  0  0
   -0.9360  -52.6966  -18.1958 C   0  0  0  0  0  0  0  0  0  0  0  0
   -0.2931  -51.6718  -17.5507 N   0  0  0  0  0  0  0  0  0  0  0  0
   -0.7547  -51.0630  -16.4605 C   0  0  0  0  0  0  0  0  0  0  0  0
    0.0171  -50.0468  -15.8372 N   0  0  0  0  0  0  0  0  0  0  0  0
   -0.3479  -49.0466  -15.8568 H   0  0  0  0  0  0  0  0  0  0  0  0
    1.2583  -50.2823  -15.1856 C   0  0  0  0  0  0  0  0  0  0  0  0
    2.2946  -49.4201  -15.3408 C   0  0  0  0  0  0  0  0  0  0  0  0
    3.5248  -49.6904  -14.7266 C   0  0  0  0  0  0  0  0  0  0  0  0
    3.6669  -50.8220  -13.9762 C   0  0  0  0  0  0  0  0  0  0  0  0
    2.6349  -51.7379  -13.7858 C   0  0  0  0  0  0  0  0  0  0  0  0
    1.4547  -51.4234  -14.4090 C   0  0  0  0  0  0  0  0  0  0  0  0
    2.8952  -52.8766  -13.0078 N   0  0  0  0  0  0  0  0  0  0  0  0
    2.4772  -53.1452  -11.6939 C   0  0  0  0  0  0  0  0  0  0  0  0
    1.7788  -52.3484  -11.0124 O   0  0  0  0  0  0  0  0  0  0  0  0
    3.4805  -53.6437  -13.4549 H   0  0  0  0  0  0  0  0  0  0  0  0
    2.8594  -54.4176  -11.0560 C   0  0  0  0  0  0  0  0  0  0  0  0
    1.9659  -55.3587  -10.8316 C   0  0  0  0  0  0  0  0  0  0  0  0
    0.3186  -53.3360  -24.1122 O   0  0  0  0  0  0  0  0  0  0  0  0
   -0.7618  -53.6335  -24.8889 C   0  0  0  0  0  0  0  0  0  0  0  0
   -1.3619  -52.5001  -25.6830 C   0  0  0  0  0  0  0  0  0  0  0  0
   -0.5978  -52.4105  -27.0039 C   0  0  0  0  0  0  0  0  0  0  0  0
    0.8025  -52.1767  -26.8498 N   0  0  0  0  0  0  0  0  0  0  0  0
    1.8312  -53.0235  -27.3614 C   0  0  0  0  0  0  0  0  0  0  0  0
    1.4391  -54.0410  -27.9853 O   0  0  0  0  0  0  0  0  0  0  0  0
    1.1447  -51.3194  -26.3164 H   0  0  0  0  0  0  0  0  0  0  0  0
    3.2452  -52.7135  -27.1609 C   0  0  0  0  0  0  0  0  0  0  0  0
    3.7513  -52.8045  -25.7674 C   0  0  0  0  0  0  0  0  0  0  0  0
    3.6826  -51.5276  -25.0094 C   0  0  0  0  0  0  0  0  0  0  0  0
    4.5170  -51.6213  -23.7314 C   0  0  0  0  0  0  0  0  0  0  0  0
    5.0521  -50.2795  -23.2939 C   0  0  0  0  0  0  0  0  0  0  0  0
    6.8013  -50.4973  -22.8499 S   0  0  0  0  0  0  0  0  0  0  0  0
    6.6778  -50.0643  -21.0652 C   0  0  0  0  0  0  0  0  0  0  0  0
    5.4066  -49.2486  -21.0916 C   0  0  0  0  0  0  0  0  0  0  0  0
    4.7969  -49.4264  -19.7862 N   0  0  0  0  0  0  0  0  0  0  0  0
    4.0797  -50.6510  -19.8866 C   0  0  0  0  0  0  0  0  0  0  0  0
    3.7439  -51.3655  -18.8820 O   0  0  0  0  0  0  0  0  0  0  0  0
    3.8131  -50.9310  -21.2524 N   0  0  0  0  0  0  0  0  0  0  0  0
    4.4223  -49.8879  -22.0023 C   0  0  0  0  0  0  0  0  0  0  0  0
    4.8482  -48.8238  -18.9537 H   0  0  0  0  0  0  0  0  0  0  0  0
    3.2804  -51.7332  -21.6107 H   0  0  0  0  0  0  0  0  0  0  0  0
  9 10  1  0  0  0
 10 11  2  0  0  0
 11 12  1  0  0  0
 12 13  2  0  0  0
 13  7  1  0  0  0
  7  1  1  0  0  0
  1  2  2  0  0  0
  2  3  1  0  0  0
  3  4  2  0  0  0
  4  5  1  0  0  0
  5 30  1  0  0  0
 30 31  1  0  0  0
 31 32  1  0  0  0
 32 33  1  0  0  0
 33 34  1  0  0  0
 34 35  1  0  0  0
 35 36  2  0  0  0
 35 38  1  0  0  0
 38 39  1  0  0  0
 39 40  1  0  0  0
 40 41  1  0  0  0
 41 42  1  0  0  0
 42 43  1  0  0  0
 43 44  1  0  0  0
 44 45  1  0  0  0
 45 46  1  0  0  0
 46 47  1  0  0  0
 47 48  2  0  0  0
 47 49  1  0  0  0
 49 50  1  0  0  0
  5  6  2  0  0  0
 13 14  1  0  0  0
 14 15  2  0  0  0
 15 16  1  0  0  0
 16 18  1  0  0  0
 18 19  2  0  0  0
 19 20  1  0  0  0
 20 21  2  0  0  0
 21 22  1  0  0  0
 22 24  1  0  0  0
 24 25  1  0  0  0
 25 26  2  0  0  0
 25 28  1  0  0  0
 28 29  2  0  0  0
 22 23  2  0  0  0
 15 10  1  0  0  0
 23 18  1  0  0  0
  6  1  1  0  0  0
 50 42  1  0  0  0
 50 45  1  0  0  0
  7  8  1  0  0  0
 34 37  1  0  0  0
 46 51  1  0  0  0
 49 52  1  0  0  0
 16 17  1  0  0  0
 24 27  1  0  0  0
M  END
> <minimizedAffinity>
-8.09630

> <CNNscore>
0.2947197258

> <CNNaffinity>
7.4805974960

> <CNN_VS>
2.2046797276

> <CNNaffinity_variance>
0.2301338166

$$$$
[H]C([H])=C([H])C(=O)N([H])c1c([H])c([H])c([H])c(N([H])c2nc(N([H])c3c([H])c([H])c([H])c(OC([H])([H])C([H])([H])C([H])([H])N([H])C(=O)C([H])([H])C([H])([H])C([H])([H])C([H])([H])[C@]4([H])SC([H])([H])[C@]5([H])N([H])C(=O)N([H])[C@]45[H])c3[H])nc([H])c2C([H])([H])[H])c1[H]


 52 56  0  0  0  0  0  0  0  0999 V2000
    4.6677  -51.6371  -24.3551 C   0  0  0  0  0  0  0  0  0  0  0  0
    4.9438  -52.3105  -23.1457 C   0  0  0  0  0  0  0  0  0  0  0  0
    5.1223  -51.5433  -22.0352 C   0  0  0  0  0  0  0  0  0  0  0  0
    5.0369  -50.1427  -22.0807 C   0  0  0  0  0  0  0  0  0  0  0  0
    4.7658  -49.4897  -23.2592 C   0  0  0  0  0  0  0  0  0  0  0  0
    4.5822  -50.2886  -24.4109 C   0  0  0  0  0  0  0  0  0  0  0  0
    4.4606  -52.4640  -25.4770 N   0  0  0  0  0  0  0  0  0  0  0  0
    5.2934  -53.0020  -25.8732 H   0  0  0  0  0  0  0  0  0  0  0  0
   -0.4998  -53.3567  -28.0952 C   0  0  0  0  0  0  0  0  0  0  0  0
    0.7911  -53.1237  -27.4084 C   0  0  0  0  0  0  0  0  0  0  0  0
    1.9865  -53.2995  -28.0702 C   0  0  0  0  0  0  0  0  0  0  0  0
    3.1578  -53.0766  -27.4369 N   0  0  0  0  0  0  0  0  0  0  0  0
    3.2516  -52.6822  -26.1623 C   0  0  0  0  0  0  0  0  0  0  0  0
    2.0498  -52.5137  -25.5245 N   0  0  0  0  0  0  0  0  0  0  0  0
    0.8629  -52.7169  -26.0920 C   0  0  0  0  0  0  0  0  0  0  0  0
   -0.3231  -52.5661  -25.3254 N   0  0  0  0  0  0  0  0  0  0  0  0
   -1.1041  -51.9538  -25.7115 H   0  0  0  0  0  0  0  0  0  0  0  0
   -0.5339  -53.1841  -24.0627 C   0  0  0  0  0  0  0  0  0  0  0  0
   -0.8947  -54.4899  -23.9843 C   0  0  0  0  0  0  0  0  0  0  0  0
   -1.1410  -55.0715  -22.7333 C   0  0  0  0  0  0  0  0  0  0  0  0
   -1.0144  -54.3150  -21.6040 C   0  0  0  0  0  0  0  0  0  0  0  0
   -0.6467  -52.9717  -21.6306 C   0  0  0  0  0  0  0  0  0  0  0  0
   -0.4180  -52.4551  -22.8800 C   0  0  0  0  0  0  0  0  0  0  0  0
   -0.5619  -52.2840  -20.4101 N   0  0  0  0  0  0  0  0  0  0  0  0
    0.5800  -52.0348  -19.6309 C   0  0  0  0  0  0  0  0  0  0  0  0
    1.7350  -52.4235  -19.9501 O   0  0  0  0  0  0  0  0  0  0  0  0
   -1.4675  -51.8946  -20.0111 H   0  0  0  0  0  0  0  0  0  0  0  0
    0.4492  -51.2805  -18.3715 C   0  0  0  0  0  0  0  0  0  0  0  0
   -0.3731  -51.6806  -17.4239 C   0  0  0  0  0  0  0  0  0  0  0  0
    4.6618  -48.1290  -23.3597 O   0  0  0  0  0  0  0  0  0  0  0  0
    3.8403  -47.4206  -24.1859 C   0  0  0  0  0  0  0  0  0  0  0  0
    4.4110  -47.0028  -25.5182 C   0  0  0  0  0  0  0  0  0  0  0  0
    3.6182  -45.7863  -25.9958 C   0  0  0  0  0  0  0  0  0  0  0  0
    3.3543  -45.7797  -27.3992 N   0  0  0  0  0  0  0  0  0  0  0  0
    2.0522  -45.7659  -27.9835 C   0  0  0  0  0  0  0  0  0  0  0  0
    1.0919  -45.7620  -27.1737 O   0  0  0  0  0  0  0  0  0  0  0  0
    4.1628  -45.7895  -28.0941 H   0  0  0  0  0  0  0  0  0  0  0  0
    1.8660  -45.7596  -29.4330 C   0  0  0  0  0  0  0  0  0  0  0  0
    3.0694  -46.0441  -30.2557 C   0  0  0  0  0  0  0  0  0  0  0  0
    2.7688  -46.5408  -31.6242 C   0  0  0  0  0  0  0  0  0  0  0  0
    3.8325  -46.0589  -32.6114 C   0  0  0  0  0  0  0  0  0  0  0  0
    5.2350  -46.2782  -32.0986 C   0  0  0  0  0  0  0  0  0  0  0  0
    6.2808  -44.9436  -32.7536 S   0  0  0  0  0  0  0  0  0  0  0  0
    7.4165  -45.9725  -33.7731 C   0  0  0  0  0  0  0  0  0  0  0  0
    7.2418  -47.3029  -33.0791 C   0  0  0  0  0  0  0  0  0  0  0  0
    7.4616  -48.3118  -34.0995 N   0  0  0  0  0  0  0  0  0  0  0  0
    6.2098  -48.4309  -34.7649 C   0  0  0  0  0  0  0  0  0  0  0  0
    6.0719  -48.8928  -35.9482 O   0  0  0  0  0  0  0  0  0  0  0  0
    5.1761  -47.9609  -33.9130 N   0  0  0  0  0  0  0  0  0  0  0  0
    5.8116  -47.4986  -32.7282 C   0  0  0  0  0  0  0  0  0  0  0  0
    8.3149  -48.8428  -34.3201 H   0  0  0  0  0  0  0  0  0  0  0  0
    4.1709  -47.9642  -34.1260 H   0  0  0  0  0  0  0  0  0  0  0  0
  9 10  1  0  0  0
 10 11  2  0  0  0
 11 12  1  0  0  0
 12 13  2  0  0  0
 13  7  1  0  0  0
  7  1  1  0  0  0
  1  2  2  0  0  0
  2  3  1  0  0  0
  3  4  2  0  0  0
  4  5  1  0  0  0
  5 30  1  0  0  0
 30 31  1  0  0  0
 31 32  1  0  0  0
 32 33  1  0  0  0
 33 34  1  0  0  0
 34 35  1  0  0  0
 35 36  2  0  0  0
 35 38  1  0  0  0
 38 39  1  0  0  0
 39 40  1  0  0  0
 40 41  1  0  0  0
 41 42  1  0  0  0
 42 43  1  0  0  0
 43 44  1  0  0  0
 44 45  1  0  0  0
 45 46  1  0  0  0
 46 47  1  0  0  0
 47 48  2  0  0  0
 47 49  1  0  0  0
 49 50  1  0  0  0
  5  6  2  0  0  0
 13 14  1  0  0  0
 14 15  2  0  0  0
 15 16  1  0  0  0
 16 18  1  0  0  0
 18 19  2  0  0  0
 19 20  1  0  0  0
 20 21  2  0  0  0
 21 22  1  0  0  0
 22 24  1  0  0  0
 24 25  1  0  0  0
 25 26  2  0  0  0
 25 28  1  0  0  0
 28 29  2  0  0  0
 22 23  2  0  0  0
 15 10  1  0  0  0
 23 18  1  0  0  0
  6  1  1  0  0  0
 50 42  1  0  0  0
 50 45  1  0  0  0
  7  8  1  0  0  0
 34 37  1  0  0  0
 46 51  1  0  0  0
 49 52  1  0  0  0
 16 17  1  0  0  0
 24 27  1  0  0  0
M  END
> <minimizedAffinity>
-8.45651

> <CNNscore>
0.1602445841

> <CNNaffinity>
6.8790359497

> <CNN_VS>
1.1023283005

> <CNNaffinity_variance>
1.0251502991

$$$$
[H]C([H])=C([H])C(=O)N([H])c1c([H])c([H])c([H])c(N([H])c2nc(N([H])c3c([H])c([H])c([H])c(OC([H])([H])C([H])([H])C([H])([H])N([H])C(=O)C([H])([H])C([H])([H])C([H])([H])C([H])([H])[C@]4([H])SC([H])([H])[C@]5([H])N([H])C(=O)N([H])[C@]45[H])c3[H])nc([H])c2C([H])([H])[H])c1[H]


 52 56  0  0  0  0  0  0  0  0999 V2000
    0.8164  -52.2960  -21.0624 C   0  0  0  0  0  0  0  0  0  0  0  0
    1.3731  -51.0085  -21.2204 C   0  0  0  0  0  0  0  0  0  0  0  0
    1.3418  -50.4681  -22.4697 C   0  0  0  0  0  0  0  0  0  0  0  0
    0.7821  -51.1535  -23.5596 C   0  0  0  0  0  0  0  0  0  0  0  0
    0.2388  -52.4061  -23.4025 C   0  0  0  0  0  0  0  0  0  0  0  0
    0.2737  -52.9653  -22.1046 C   0  0  0  0  0  0  0  0  0  0  0  0
    0.8405  -52.8112  -19.7512 N   0  0  0  0  0  0  0  0  0  0  0  0
    1.5723  -53.5498  -19.5081 H   0  0  0  0  0  0  0  0  0  0  0  0
   -2.4378  -51.3191  -15.3599 C   0  0  0  0  0  0  0  0  0  0  0  0
   -1.5795  -51.7055  -16.5029 C   0  0  0  0  0  0  0  0  0  0  0  0
   -1.9737  -52.6894  -17.3829 C   0  0  0  0  0  0  0  0  0  0  0  0
   -1.1871  -53.0286  -18.4264 N   0  0  0  0  0  0  0  0  0  0  0  0
   -0.0041  -52.4597  -18.6826 C   0  0  0  0  0  0  0  0  0  0  0  0
    0.3670  -51.4838  -17.7941 N   0  0  0  0  0  0  0  0  0  0  0  0
   -0.3621  -51.1040  -16.7471 C   0  0  0  0  0  0  0  0  0  0  0  0
    0.1397  -50.1193  -15.8552 N   0  0  0  0  0  0  0  0  0  0  0  0
   -0.3934  -49.2026  -15.7573 H   0  0  0  0  0  0  0  0  0  0  0  0
    1.3205  -50.2805  -15.0804 C   0  0  0  0  0  0  0  0  0  0  0  0
    2.4096  -49.5047  -15.3116 C   0  0  0  0  0  0  0  0  0  0  0  0
    3.5802  -49.7065  -14.5679 C   0  0  0  0  0  0  0  0  0  0  0  0
    3.6113  -50.6845  -13.6159 C   0  0  0  0  0  0  0  0  0  0  0  0
    2.5211  -51.5067  -13.3404 C   0  0  0  0  0  0  0  0  0  0  0  0
    1.4034  -51.2652  -14.0970 C   0  0  0  0  0  0  0  0  0  0  0  0
    2.6677  -52.4914  -12.3511 N   0  0  0  0  0  0  0  0  0  0  0  0
    1.6663  -53.1028  -11.5788 C   0  0  0  0  0  0  0  0  0  0  0  0
    0.4424  -52.8232  -11.6841 O   0  0  0  0  0  0  0  0  0  0  0  0
    3.6554  -52.8299  -12.1491 H   0  0  0  0  0  0  0  0  0  0  0  0
    2.0381  -54.1287  -10.5881 C   0  0  0  0  0  0  0  0  0  0  0  0
    2.0842  -55.4032  -10.9167 C   0  0  0  0  0  0  0  0  0  0  0  0
   -0.3280  -53.1152  -24.4264 O   0  0  0  0  0  0  0  0  0  0  0  0
   -0.4918  -52.7143  -25.7194 C   0  0  0  0  0  0  0  0  0  0  0  0
    0.1402  -53.5756  -26.7842 C   0  0  0  0  0  0  0  0  0  0  0  0
    1.5728  -53.0814  -26.9835 C   0  0  0  0  0  0  0  0  0  0  0  0
    2.4321  -53.3275  -25.8697 N   0  0  0  0  0  0  0  0  0  0  0  0
    3.3786  -52.3948  -25.3490 C   0  0  0  0  0  0  0  0  0  0  0  0
    3.4342  -51.2877  -25.9402 O   0  0  0  0  0  0  0  0  0  0  0  0
    2.3966  -54.2664  -25.3658 H   0  0  0  0  0  0  0  0  0  0  0  0
    4.2232  -52.7238  -24.2026 C   0  0  0  0  0  0  0  0  0  0  0  0
    5.6544  -52.3398  -24.3035 C   0  0  0  0  0  0  0  0  0  0  0  0
    6.0300  -51.1644  -23.4745 C   0  0  0  0  0  0  0  0  0  0  0  0
    6.7174  -50.1035  -24.3349 C   0  0  0  0  0  0  0  0  0  0  0  0
    6.1800  -48.7169  -24.0771 C   0  0  0  0  0  0  0  0  0  0  0  0
    4.5936  -48.8891  -23.2066 S   0  0  0  0  0  0  0  0  0  0  0  0
    3.5054  -48.1383  -24.4872 C   0  0  0  0  0  0  0  0  0  0  0  0
    4.5274  -47.3131  -25.2334 C   0  0  0  0  0  0  0  0  0  0  0  0
    4.0506  -47.2388  -26.6025 N   0  0  0  0  0  0  0  0  0  0  0  0
    4.5005  -48.4454  -27.2074 C   0  0  0  0  0  0  0  0  0  0  0  0
    3.9740  -48.9592  -28.2520 O   0  0  0  0  0  0  0  0  0  0  0  0
    5.5985  -48.9616  -26.4706 N   0  0  0  0  0  0  0  0  0  0  0  0
    5.7898  -48.0847  -25.3679 C   0  0  0  0  0  0  0  0  0  0  0  0
    3.5088  -46.4971  -27.0662 H   0  0  0  0  0  0  0  0  0  0  0  0
    6.1392  -49.8035  -26.7044 H   0  0  0  0  0  0  0  0  0  0  0  0
  9 10  1  0  0  0
 10 11  2  0  0  0
 11 12  1  0  0  0
 12 13  2  0  0  0
 13  7  1  0  0  0
  7  1  1  0  0  0
  1  2  2  0  0  0
  2  3  1  0  0  0
  3  4  2  0  0  0
  4  5  1  0  0  0
  5 30  1  0  0  0
 30 31  1  0  0  0
 31 32  1  0  0  0
 32 33  1  0  0  0
 33 34  1  0  0  0
 34 35  1  0  0  0
 35 36  2  0  0  0
 35 38  1  0  0  0
 38 39  1  0  0  0
 39 40  1  0  0  0
 40 41  1  0  0  0
 41 42  1  0  0  0
 42 43  1  0  0  0
 43 44  1  0  0  0
 44 45  1  0  0  0
 45 46  1  0  0  0
 46 47  1  0  0  0
 47 48  2  0  0  0
 47 49  1  0  0  0
 49 50  1  0  0  0
  5  6  2  0  0  0
 13 14  1  0  0  0
 14 15  2  0  0  0
 15 16  1  0  0  0
 16 18  1  0  0  0
 18 19  2  0  0  0
 19 20  1  0  0  0
 20 21  2  0  0  0
 21 22  1  0  0  0
 22 24  1  0  0  0
 24 25  1  0  0  0
 25 26  2  0  0  0
 25 28  1  0  0  0
 28 29  2  0  0  0
 22 23  2  0  0  0
 15 10  1  0  0  0
 23 18  1  0  0  0
  6  1  1  0  0  0
 50 42  1  0  0  0
 50 45  1  0  0  0
  7  8  1  0  0  0
 34 37  1  0  0  0
 46 51  1  0  0  0
 49 52  1  0  0  0
 16 17  1  0  0  0
 24 27  1  0  0  0
M  END
> <minimizedAffinity>
-7.17539

> <CNNscore>
0.1136284918

> <CNNaffinity>
7.1303429604

> <CNN_VS>
0.8102101088

> <CNNaffinity_variance>
0.1661866456

$$$$
[H]C([H])=C([H])C(=O)N([H])c1c([H])c([H])c([H])c(N([H])c2nc(N([H])c3c([H])c([H])c([H])c(OC([H])([H])C([H])([H])C([H])([H])N([H])C(=O)C([H])([H])C([H])([H])C([H])([H])C([H])([H])[C@]4([H])SC([H])([H])[C@]5([H])N([H])C(=O)N([H])[C@]45[H])c3[H])nc([H])c2C([H])([H])[H])c1[H]


 52 56  0  0  0  0  0  0  0  0999 V2000
    4.2635  -51.5198  -24.1231 C   0  0  0  0  0  0  0  0  0  0  0  0
    3.3601  -50.4418  -24.2431 C   0  0  0  0  0  0  0  0  0  0  0  0
    3.4550  -49.4471  -23.3183 C   0  0  0  0  0  0  0  0  0  0  0  0
    4.4068  -49.4826  -22.2869 C   0  0  0  0  0  0  0  0  0  0  0  0
    5.2866  -50.5324  -22.1738 C   0  0  0  0  0  0  0  0  0  0  0  0
    5.1850  -51.5644  -23.1345 C   0  0  0  0  0  0  0  0  0  0  0  0
    4.1551  -52.5159  -25.1137 N   0  0  0  0  0  0  0  0  0  0  0  0
    4.9551  -53.2146  -25.2225 H   0  0  0  0  0  0  0  0  0  0  0  0
   -0.2479  -53.4000  -28.5908 C   0  0  0  0  0  0  0  0  0  0  0  0
    0.8974  -53.1710  -27.6806 C   0  0  0  0  0  0  0  0  0  0  0  0
    2.1541  -52.9044  -28.1779 C   0  0  0  0  0  0  0  0  0  0  0  0
    3.1898  -52.6893  -27.3390 N   0  0  0  0  0  0  0  0  0  0  0  0
    3.0862  -52.7168  -26.0059 C   0  0  0  0  0  0  0  0  0  0  0  0
    1.8268  -52.9836  -25.5343 N   0  0  0  0  0  0  0  0  0  0  0  0
    0.7660  -53.2045  -26.3076 C   0  0  0  0  0  0  0  0  0  0  0  0
   -0.4851  -53.5265  -25.7175 N   0  0  0  0  0  0  0  0  0  0  0  0
   -1.3405  -53.6012  -26.3473 H   0  0  0  0  0  0  0  0  0  0  0  0
   -0.6694  -53.7544  -24.3265 C   0  0  0  0  0  0  0  0  0  0  0  0
   -1.1593  -54.9383  -23.8794 C   0  0  0  0  0  0  0  0  0  0  0  0
   -1.3759  -55.1302  -22.5082 C   0  0  0  0  0  0  0  0  0  0  0  0
   -1.0902  -54.1205  -21.6350 C   0  0  0  0  0  0  0  0  0  0  0  0
   -0.5858  -52.8878  -22.0429 C   0  0  0  0  0  0  0  0  0  0  0  0
   -0.3934  -52.7554  -23.3940 C   0  0  0  0  0  0  0  0  0  0  0  0
   -0.3423  -51.9144  -21.0616 N   0  0  0  0  0  0  0  0  0  0  0  0
    0.8943  -51.4092  -20.6271 C   0  0  0  0  0  0  0  0  0  0  0  0
    2.0011  -51.7928  -21.0906 O   0  0  0  0  0  0  0  0  0  0  0  0
   -1.1906  -51.4947  -20.5765 H   0  0  0  0  0  0  0  0  0  0  0  0
    0.9278  -50.3750  -19.5775 C   0  0  0  0  0  0  0  0  0  0  0  0
    0.3613  -50.5792  -18.4063 C   0  0  0  0  0  0  0  0  0  0  0  0
    6.2398  -50.6143  -21.1955 O   0  0  0  0  0  0  0  0  0  0  0  0
    7.5391  -50.2073  -21.2698 C   0  0  0  0  0  0  0  0  0  0  0  0
    7.8142  -48.7527  -20.9802 C   0  0  0  0  0  0  0  0  0  0  0  0
    7.7066  -48.5576  -19.4680 C   0  0  0  0  0  0  0  0  0  0  0  0
    6.4040  -48.8121  -18.9410 N   0  0  0  0  0  0  0  0  0  0  0  0
    5.2879  -47.9313  -19.0663 C   0  0  0  0  0  0  0  0  0  0  0  0
    5.5048  -46.8625  -19.6897 O   0  0  0  0  0  0  0  0  0  0  0  0
    6.2121  -49.7135  -18.4050 H   0  0  0  0  0  0  0  0  0  0  0  0
    3.9840  -48.2658  -18.4973 C   0  0  0  0  0  0  0  0  0  0  0  0
    3.9021  -49.5366  -17.7330 C   0  0  0  0  0  0  0  0  0  0  0  0
    3.2815  -49.4007  -16.3890 C   0  0  0  0  0  0  0  0  0  0  0  0
    3.3218  -50.7367  -15.6461 C   0  0  0  0  0  0  0  0  0  0  0  0
    2.1487  -50.9116  -14.7126 C   0  0  0  0  0  0  0  0  0  0  0  0
    2.2193  -49.5807  -13.4767 S   0  0  0  0  0  0  0  0  0  0  0  0
    2.4622  -50.6223  -11.9787 C   0  0  0  0  0  0  0  0  0  0  0  0
    1.9074  -51.9312  -12.4898 C   0  0  0  0  0  0  0  0  0  0  0  0
    2.6262  -52.9701  -11.7747 N   0  0  0  0  0  0  0  0  0  0  0  0
    3.8383  -53.1357  -12.5008 C   0  0  0  0  0  0  0  0  0  0  0  0
    4.9028  -53.6405  -12.0064 O   0  0  0  0  0  0  0  0  0  0  0  0
    3.6639  -52.6564  -13.8255 N   0  0  0  0  0  0  0  0  0  0  0  0
    2.3404  -52.1418  -13.8952 C   0  0  0  0  0  0  0  0  0  0  0  0
    2.3520  -53.4921  -10.9314 H   0  0  0  0  0  0  0  0  0  0  0  0
    4.3662  -52.6862  -14.5749 H   0  0  0  0  0  0  0  0  0  0  0  0
  9 10  1  0  0  0
 10 11  2  0  0  0
 11 12  1  0  0  0
 12 13  2  0  0  0
 13  7  1  0  0  0
  7  1  1  0  0  0
  1  2  2  0  0  0
  2  3  1  0  0  0
  3  4  2  0  0  0
  4  5  1  0  0  0
  5 30  1  0  0  0
 30 31  1  0  0  0
 31 32  1  0  0  0
 32 33  1  0  0  0
 33 34  1  0  0  0
 34 35  1  0  0  0
 35 36  2  0  0  0
 35 38  1  0  0  0
 38 39  1  0  0  0
 39 40  1  0  0  0
 40 41  1  0  0  0
 41 42  1  0  0  0
 42 43  1  0  0  0
 43 44  1  0  0  0
 44 45  1  0  0  0
 45 46  1  0  0  0
 46 47  1  0  0  0
 47 48  2  0  0  0
 47 49  1  0  0  0
 49 50  1  0  0  0
  5  6  2  0  0  0
 13 14  1  0  0  0
 14 15  2  0  0  0
 15 16  1  0  0  0
 16 18  1  0  0  0
 18 19  2  0  0  0
 19 20  1  0  0  0
 20 21  2  0  0  0
 21 22  1  0  0  0
 22 24  1  0  0  0
 24 25  1  0  0  0
 25 26  2  0  0  0
 25 28  1  0  0  0
 28 29  2  0  0  0
 22 23  2  0  0  0
 15 10  1  0  0  0
 23 18  1  0  0  0
  6  1  1  0  0  0
 50 42  1  0  0  0
 50 45  1  0  0  0
  7  8  1  0  0  0
 34 37  1  0  0  0
 46 51  1  0  0  0
 49 52  1  0  0  0
 16 17  1  0  0  0
 24 27  1  0  0  0
M  END
> <minimizedAffinity>
-7.69843

> <CNNscore>
0.0989237130

> <CNNaffinity>
6.8686151505

> <CNN_VS>
0.6794689298

> <CNNaffinity_variance>
0.8369364738

$$$$
[H]C([H])=C([H])C(=O)N([H])c1c([H])c([H])c([H])c(N([H])c2nc(N([H])c3c([H])c([H])c([H])c(OC([H])([H])C([H])([H])C([H])([H])N([H])C(=O)C([H])([H])C([H])([H])C([H])([H])C([H])([H])[C@]4([H])SC([H])([H])[C@]5([H])N([H])C(=O)N([H])[C@]45[H])c3[H])nc([H])c2C([H])([H])[H])c1[H]


 52 56  0  0  0  0  0  0  0  0999 V2000
    4.5870  -51.4425  -24.2255 C   0  0  0  0  0  0  0  0  0  0  0  0
    4.9430  -52.0471  -23.0006 C   0  0  0  0  0  0  0  0  0  0  0  0
    5.0313  -51.2357  -21.9109 C   0  0  0  0  0  0  0  0  0  0  0  0
    4.7806  -49.8567  -21.9916 C   0  0  0  0  0  0  0  0  0  0  0  0
    4.4320  -49.2710  -23.1851 C   0  0  0  0  0  0  0  0  0  0  0  0
    4.3424  -50.1156  -24.3152 C   0  0  0  0  0  0  0  0  0  0  0  0
    4.4774  -52.3169  -25.3249 N   0  0  0  0  0  0  0  0  0  0  0  0
    5.3553  -52.8217  -25.6631 H   0  0  0  0  0  0  0  0  0  0  0  0
   -0.2990  -53.5672  -28.1321 C   0  0  0  0  0  0  0  0  0  0  0  0
    0.9438  -53.2409  -27.3962 C   0  0  0  0  0  0  0  0  0  0  0  0
    2.1766  -53.3695  -27.9974 C   0  0  0  0  0  0  0  0  0  0  0  0
    3.3030  -53.0617  -27.3199 N   0  0  0  0  0  0  0  0  0  0  0  0
    3.3155  -52.6237  -26.0562 C   0  0  0  0  0  0  0  0  0  0  0  0
    2.0778  -52.5036  -25.4790 N   0  0  0  0  0  0  0  0  0  0  0  0
    0.9316  -52.7905  -26.0922 C   0  0  0  0  0  0  0  0  0  0  0  0
   -0.2953  -52.6832  -25.3851 N   0  0  0  0  0  0  0  0  0  0  0  0
   -1.1010  -52.1567  -25.8410 H   0  0  0  0  0  0  0  0  0  0  0  0
   -0.5167  -53.2365  -24.0945 C   0  0  0  0  0  0  0  0  0  0  0  0
   -0.9118  -54.5271  -23.9547 C   0  0  0  0  0  0  0  0  0  0  0  0
   -1.1677  -55.0436  -22.6773 C   0  0  0  0  0  0  0  0  0  0  0  0
   -1.0158  -54.2396  -21.5845 C   0  0  0  0  0  0  0  0  0  0  0  0
   -0.6126  -52.9093  -21.6744 C   0  0  0  0  0  0  0  0  0  0  0  0
   -0.3760  -52.4572  -22.9471 C   0  0  0  0  0  0  0  0  0  0  0  0
   -0.5039  -52.1687  -20.4873 N   0  0  0  0  0  0  0  0  0  0  0  0
    0.6271  -51.9941  -19.6727 C   0  0  0  0  0  0  0  0  0  0  0  0
    1.7473  -52.5141  -19.9216 O   0  0  0  0  0  0  0  0  0  0  0  0
   -1.3790  -51.6688  -20.1479 H   0  0  0  0  0  0  0  0  0  0  0  0
    0.5270  -51.1634  -18.4594 C   0  0  0  0  0  0  0  0  0  0  0  0
   -0.2231  -51.5357  -17.4430 C   0  0  0  0  0  0  0  0  0  0  0  0
    4.1675  -47.9353  -23.3198 O   0  0  0  0  0  0  0  0  0  0  0  0
    3.2086  -47.2123  -22.6740 C   0  0  0  0  0  0  0  0  0  0  0  0
    3.5369  -45.7739  -22.3600 C   0  0  0  0  0  0  0  0  0  0  0  0
    3.1440  -44.9374  -23.5775 C   0  0  0  0  0  0  0  0  0  0  0  0
    2.6803  -45.7084  -24.6865 N   0  0  0  0  0  0  0  0  0  0  0  0
    2.9242  -45.3933  -26.0570 C   0  0  0  0  0  0  0  0  0  0  0  0
    3.5973  -44.3532  -26.2653 O   0  0  0  0  0  0  0  0  0  0  0  0
    2.1028  -46.5890  -24.5197 H   0  0  0  0  0  0  0  0  0  0  0  0
    2.4139  -46.2359  -27.1365 C   0  0  0  0  0  0  0  0  0  0  0  0
    3.3199  -46.4490  -28.2939 C   0  0  0  0  0  0  0  0  0  0  0  0
    2.7529  -46.0194  -29.5992 C   0  0  0  0  0  0  0  0  0  0  0  0
    3.4003  -46.7997  -30.7439 C   0  0  0  0  0  0  0  0  0  0  0  0
    3.3025  -46.0731  -32.0632 C   0  0  0  0  0  0  0  0  0  0  0  0
    2.6569  -47.2433  -33.2952 S   0  0  0  0  0  0  0  0  0  0  0  0
    4.1202  -47.2885  -34.4106 C   0  0  0  0  0  0  0  0  0  0  0  0
    4.7611  -45.9721  -34.0383 C   0  0  0  0  0  0  0  0  0  0  0  0
    6.1859  -46.1537  -34.2487 N   0  0  0  0  0  0  0  0  0  0  0  0
    6.6495  -46.7803  -33.0586 C   0  0  0  0  0  0  0  0  0  0  0  0
    7.7264  -47.4639  -32.9852 O   0  0  0  0  0  0  0  0  0  0  0  0
    5.7359  -46.5227  -32.0031 N   0  0  0  0  0  0  0  0  0  0  0  0
    4.6703  -45.7707  -32.5692 C   0  0  0  0  0  0  0  0  0  0  0  0
    6.7641  -45.8984  -35.0607 H   0  0  0  0  0  0  0  0  0  0  0  0
    5.8412  -46.8256  -31.0269 H   0  0  0  0  0  0  0  0  0  0  0  0
  9 10  1  0  0  0
 10 11  2  0  0  0
 11 12  1  0  0  0
 12 13  2  0  0  0
 13  7  1  0  0  0
  7  1  1  0  0  0
  1  2  2  0  0  0
  2  3  1  0  0  0
  3  4  2  0  0  0
  4  5  1  0  0  0
  5 30  1  0  0  0
 30 31  1  0  0  0
 31 32  1  0  0  0
 32 33  1  0  0  0
 33 34  1  0  0  0
 34 35  1  0  0  0
 35 36  2  0  0  0
 35 38  1  0  0  0
 38 39  1  0  0  0
 39 40  1  0  0  0
 40 41  1  0  0  0
 41 42  1  0  0  0
 42 43  1  0  0  0
 43 44  1  0  0  0
 44 45  1  0  0  0
 45 46  1  0  0  0
 46 47  1  0  0  0
 47 48  2  0  0  0
 47 49  1  0  0  0
 49 50  1  0  0  0
  5  6  2  0  0  0
 13 14  1  0  0  0
 14 15  2  0  0  0
 15 16  1  0  0  0
 16 18  1  0  0  0
 18 19  2  0  0  0
 19 20  1  0  0  0
 20 21  2  0  0  0
 21 22  1  0  0  0
 22 24  1  0  0  0
 24 25  1  0  0  0
 25 26  2  0  0  0
 25 28  1  0  0  0
 28 29  2  0  0  0
 22 23  2  0  0  0
 15 10  1  0  0  0
 23 18  1  0  0  0
  6  1  1  0  0  0
 50 42  1  0  0  0
 50 45  1  0  0  0
  7  8  1  0  0  0
 34 37  1  0  0  0
 46 51  1  0  0  0
 49 52  1  0  0  0
 16 17  1  0  0  0
 24 27  1  0  0  0
M  END
> <minimizedAffinity>
-8.28466

> <CNNscore>
0.0908779502

> <CNNaffinity>
6.7679319382

> <CNN_VS>
0.6150557995

> <CNNaffinity_variance>
1.2364689112

$$$$
[H]C([H])=C([H])C(=O)N([H])c1c([H])c([H])c([H])c(N([H])c2nc(N([H])c3c([H])c([H])c([H])c(OC([H])([H])C([H])([H])C([H])([H])N([H])C(=O)C([H])([H])C([H])([H])C([H])([H])C([H])([H])[C@]4([H])SC([H])([H])[C@]5([H])N([H])C(=O)N([H])[C@]45[H])c3[H])nc([H])c2C([H])([H])[H])c1[H]


 52 56  0  0  0  0  0  0  0  0999 V2000
    4.7524  -50.8021  -22.1541 C   0  0  0  0  0  0  0  0  0  0  0  0
    5.0858  -51.8866  -22.9940 C   0  0  0  0  0  0  0  0  0  0  0  0
    5.2789  -51.6127  -24.3137 C   0  0  0  0  0  0  0  0  0  0  0  0
    5.1546  -50.3116  -24.8262 C   0  0  0  0  0  0  0  0  0  0  0  0
    4.8320  -49.2572  -24.0058 C   0  0  0  0  0  0  0  0  0  0  0  0
    4.6308  -49.5446  -22.6364 C   0  0  0  0  0  0  0  0  0  0  0  0
    4.5884  -51.1181  -20.7908 N   0  0  0  0  0  0  0  0  0  0  0  0
    5.4612  -51.2771  -20.1967 H   0  0  0  0  0  0  0  0  0  0  0  0
   -0.3841  -51.6095  -18.0906 C   0  0  0  0  0  0  0  0  0  0  0  0
    0.9100  -51.4808  -18.7987 C   0  0  0  0  0  0  0  0  0  0  0  0
    2.0895  -51.3498  -18.0991 C   0  0  0  0  0  0  0  0  0  0  0  0
    3.2647  -51.2411  -18.7546 N   0  0  0  0  0  0  0  0  0  0  0  0
    3.3775  -51.2504  -20.0872 C   0  0  0  0  0  0  0  0  0  0  0  0
    2.1913  -51.3819  -20.7619 N   0  0  0  0  0  0  0  0  0  0  0  0
    1.0014  -51.4930  -20.1753 C   0  0  0  0  0  0  0  0  0  0  0  0
   -0.1741  -51.5698  -20.9685 N   0  0  0  0  0  0  0  0  0  0  0  0
   -0.8859  -50.7806  -20.9011 H   0  0  0  0  0  0  0  0  0  0  0  0
   -0.4643  -52.6447  -21.8523 C   0  0  0  0  0  0  0  0  0  0  0  0
   -1.0298  -53.7875  -21.3878 C   0  0  0  0  0  0  0  0  0  0  0  0
   -1.2689  -54.8539  -22.2650 C   0  0  0  0  0  0  0  0  0  0  0  0
   -0.9293  -54.7302  -23.5814 C   0  0  0  0  0  0  0  0  0  0  0  0
   -0.3473  -53.5792  -24.1075 C   0  0  0  0  0  0  0  0  0  0  0  0
   -0.1365  -52.5685  -23.2052 C   0  0  0  0  0  0  0  0  0  0  0  0
   -0.0238  -53.5655  -25.4731 N   0  0  0  0  0  0  0  0  0  0  0  0
   -0.7730  -53.0386  -26.5381 C   0  0  0  0  0  0  0  0  0  0  0  0
   -1.8942  -52.4838  -26.3889 O   0  0  0  0  0  0  0  0  0  0  0  0
    0.9032  -54.0044  -25.7544 H   0  0  0  0  0  0  0  0  0  0  0  0
   -0.2432  -53.1239  -27.9108 C   0  0  0  0  0  0  0  0  0  0  0  0
   -0.8425  -52.5074  -28.9083 C   0  0  0  0  0  0  0  0  0  0  0  0
    4.7072  -47.9686  -24.4490 O   0  0  0  0  0  0  0  0  0  0  0  0
    4.8392  -46.8254  -23.7176 C   0  0  0  0  0  0  0  0  0  0  0  0
    4.8402  -45.5249  -24.4819 C   0  0  0  0  0  0  0  0  0  0  0  0
    3.4318  -45.3194  -25.0393 C   0  0  0  0  0  0  0  0  0  0  0  0
    3.1803  -46.0242  -26.2556 N   0  0  0  0  0  0  0  0  0  0  0  0
    3.1876  -45.4349  -27.5555 C   0  0  0  0  0  0  0  0  0  0  0  0
    3.4347  -44.2038  -27.5940 O   0  0  0  0  0  0  0  0  0  0  0  0
    2.9634  -47.0679  -26.2323 H   0  0  0  0  0  0  0  0  0  0  0  0
    2.9200  -46.2269  -28.7542 C   0  0  0  0  0  0  0  0  0  0  0  0
    2.6061  -45.4682  -29.9918 C   0  0  0  0  0  0  0  0  0  0  0  0
    3.7486  -45.3390  -30.9340 C   0  0  0  0  0  0  0  0  0  0  0  0
    3.9496  -46.6416  -31.7094 C   0  0  0  0  0  0  0  0  0  0  0  0
    4.6452  -46.4231  -33.0309 C   0  0  0  0  0  0  0  0  0  0  0  0
    3.9334  -47.5868  -34.2323 S   0  0  0  0  0  0  0  0  0  0  0  0
    5.4493  -48.5720  -34.5775 C   0  0  0  0  0  0  0  0  0  0  0  0
    6.5007  -47.5696  -34.1630 C   0  0  0  0  0  0  0  0  0  0  0  0
    7.6323  -48.3531  -33.7015 N   0  0  0  0  0  0  0  0  0  0  0  0
    7.3232  -48.6722  -32.3499 C   0  0  0  0  0  0  0  0  0  0  0  0
    7.8356  -49.6546  -31.7138 O   0  0  0  0  0  0  0  0  0  0  0  0
    6.3766  -47.7401  -31.8498 N   0  0  0  0  0  0  0  0  0  0  0  0
    6.0627  -46.8687  -32.9285 C   0  0  0  0  0  0  0  0  0  0  0  0
    8.4832  -48.6328  -34.2079 H   0  0  0  0  0  0  0  0  0  0  0  0
    6.0045  -47.7134  -30.8924 H   0  0  0  0  0  0  0  0  0  0  0  0
  9 10  1  0  0  0
 10 11  2  0  0  0
 11 12  1  0  0  0
 12 13  2  0  0  0
 13  7  1  0  0  0
  7  1  1  0  0  0
  1  2  2  0  0  0
  2  3  1  0  0  0
  3  4  2  0  0  0
  4  5  1  0  0  0
  5 30  1  0  0  0
 30 31  1  0  0  0
 31 32  1  0  0  0
 32 33  1  0  0  0
 33 34  1  0  0  0
 34 35  1  0  0  0
 35 36  2  0  0  0
 35 38  1  0  0  0
 38 39  1  0  0  0
 39 40  1  0  0  0
 40 41  1  0  0  0
 41 42  1  0  0  0
 42 43  1  0  0  0
 43 44  1  0  0  0
 44 45  1  0  0  0
 45 46  1  0  0  0
 46 47  1  0  0  0
 47 48  2  0  0  0
 47 49  1  0  0  0
 49 50  1  0  0  0
  5  6  2  0  0  0
 13 14  1  0  0  0
 14 15  2  0  0  0
 15 16  1  0  0  0
 16 18  1  0  0  0
 18 19  2  0  0  0
 19 20  1  0  0  0
 20 21  2  0  0  0
 21 22  1  0  0  0
 22 24  1  0  0  0
 24 25  1  0  0  0
 25 26  2  0  0  0
 25 28  1  0  0  0
 28 29  2  0  0  0
 22 23  2  0  0  0
 15 10  1  0  0  0
 23 18  1  0  0  0
  6  1  1  0  0  0
 50 42  1  0  0  0
 50 45  1  0  0  0
  7  8  1  0  0  0
 34 37  1  0  0  0
 46 51  1  0  0  0
 49 52  1  0  0  0
 16 17  1  0  0  0
 24 27  1  0  0  0
M  END
> <minimizedAffinity>
-8.14263

> <CNNscore>
0.0813580006

> <CNNaffinity>
6.8396363258

> <CNN_VS>
0.5564591289

> <CNNaffinity_variance>
0.3665862679

$$$$
[H]C([H])=C([H])C(=O)N([H])c1c([H])c([H])c([H])c(N([H])c2nc(N([H])c3c([H])c([H])c([H])c(OC([H])([H])C([H])([H])C([H])([H])N([H])C(=O)C([H])([H])C([H])([H])C([H])([H])C([H])([H])[C@]4([H])SC([H])([H])[C@]5([H])N([H])C(=O)N([H])[C@]45[H])c3[H])nc([H])c2C([H])([H])[H])c1[H]


 52 56  0  0  0  0  0  0  0  0999 V2000
    4.7720  -51.6260  -24.4237 C   0  0  0  0  0  0  0  0  0  0  0  0
    4.9176  -52.2052  -23.1447 C   0  0  0  0  0  0  0  0  0  0  0  0
    5.1495  -51.3593  -22.1034 C   0  0  0  0  0  0  0  0  0  0  0  0
    5.2411  -49.9700  -22.2835 C   0  0  0  0  0  0  0  0  0  0  0  0
    5.0968  -49.4085  -23.5296 C   0  0  0  0  0  0  0  0  0  0  0  0
    4.8574  -50.2892  -24.6093 C   0  0  0  0  0  0  0  0  0  0  0  0
    4.5047  -52.5285  -25.4722 N   0  0  0  0  0  0  0  0  0  0  0  0
    5.2929  -53.1651  -25.8090 H   0  0  0  0  0  0  0  0  0  0  0  0
   -0.4937  -53.2605  -28.0680 C   0  0  0  0  0  0  0  0  0  0  0  0
    0.8072  -53.0694  -27.3871 C   0  0  0  0  0  0  0  0  0  0  0  0
    1.9934  -53.2677  -28.0589 C   0  0  0  0  0  0  0  0  0  0  0  0
    3.1741  -53.0829  -27.4307 N   0  0  0  0  0  0  0  0  0  0  0  0
    3.2862  -52.7070  -26.1521 C   0  0  0  0  0  0  0  0  0  0  0  0
    2.0932  -52.5156  -25.5042 N   0  0  0  0  0  0  0  0  0  0  0  0
    0.8978  -52.6811  -26.0663 C   0  0  0  0  0  0  0  0  0  0  0  0
   -0.2790  -52.5093  -25.2900 N   0  0  0  0  0  0  0  0  0  0  0  0
   -1.0472  -51.8739  -25.6643 H   0  0  0  0  0  0  0  0  0  0  0  0
   -0.4965  -53.1353  -24.0324 C   0  0  0  0  0  0  0  0  0  0  0  0
   -0.8453  -54.4449  -23.9638 C   0  0  0  0  0  0  0  0  0  0  0  0
   -1.0987  -55.0348  -22.7180 C   0  0  0  0  0  0  0  0  0  0  0  0
   -0.9910  -54.2825  -21.5840 C   0  0  0  0  0  0  0  0  0  0  0  0
   -0.6362  -52.9355  -21.6006 C   0  0  0  0  0  0  0  0  0  0  0  0
   -0.3999  -52.4108  -22.8452 C   0  0  0  0  0  0  0  0  0  0  0  0
   -0.5706  -52.2528  -20.3762 N   0  0  0  0  0  0  0  0  0  0  0  0
    0.5721  -51.8271  -19.6790 C   0  0  0  0  0  0  0  0  0  0  0  0
    1.7470  -52.0200  -20.0908 O   0  0  0  0  0  0  0  0  0  0  0  0
   -1.4941  -52.0191  -19.9033 H   0  0  0  0  0  0  0  0  0  0  0  0
    0.4179  -51.1140  -18.3984 C   0  0  0  0  0  0  0  0  0  0  0  0
    1.4630  -50.8377  -17.6462 C   0  0  0  0  0  0  0  0  0  0  0  0
    5.1670  -48.0618  -23.7617 O   0  0  0  0  0  0  0  0  0  0  0  0
    6.1745  -47.3795  -24.3770 C   0  0  0  0  0  0  0  0  0  0  0  0
    6.6081  -46.0837  -23.7381 C   0  0  0  0  0  0  0  0  0  0  0  0
    5.3584  -45.2235  -23.5514 C   0  0  0  0  0  0  0  0  0  0  0  0
    4.4723  -45.2360  -24.6713 N   0  0  0  0  0  0  0  0  0  0  0  0
    3.0568  -45.3982  -24.5887 C   0  0  0  0  0  0  0  0  0  0  0  0
    2.5914  -45.5401  -23.4305 O   0  0  0  0  0  0  0  0  0  0  0  0
    4.8587  -45.1228  -25.6585 H   0  0  0  0  0  0  0  0  0  0  0  0
    2.2175  -45.3994  -25.7851 C   0  0  0  0  0  0  0  0  0  0  0  0
    2.9127  -45.1913  -27.0810 C   0  0  0  0  0  0  0  0  0  0  0  0
    2.5549  -46.1813  -28.1306 C   0  0  0  0  0  0  0  0  0  0  0  0
    3.7335  -46.4006  -29.0799 C   0  0  0  0  0  0  0  0  0  0  0  0
    4.8715  -47.1428  -28.4225 C   0  0  0  0  0  0  0  0  0  0  0  0
    6.3270  -46.0540  -28.4378 S   0  0  0  0  0  0  0  0  0  0  0  0
    7.4152  -47.0807  -29.5098 C   0  0  0  0  0  0  0  0  0  0  0  0
    6.7695  -48.4309  -29.3040 C   0  0  0  0  0  0  0  0  0  0  0  0
    7.0018  -49.1703  -30.5314 N   0  0  0  0  0  0  0  0  0  0  0  0
    5.9661  -48.7463  -31.4098 C   0  0  0  0  0  0  0  0  0  0  0  0
    6.0292  -48.8354  -32.6828 O   0  0  0  0  0  0  0  0  0  0  0  0
    4.8876  -48.2231  -30.6495 N   0  0  0  0  0  0  0  0  0  0  0  0
    5.2917  -48.2800  -29.2876 C   0  0  0  0  0  0  0  0  0  0  0  0
    7.7373  -49.8552  -30.7523 H   0  0  0  0  0  0  0  0  0  0  0  0
    3.9959  -47.8781  -31.0259 H   0  0  0  0  0  0  0  0  0  0  0  0
  9 10  1  0  0  0
 10 11  2  0  0  0
 11 12  1  0  0  0
 12 13  2  0  0  0
 13  7  1  0  0  0
  7  1  1  0  0  0
  1  2  2  0  0  0
  2  3  1  0  0  0
  3  4  2  0  0  0
  4  5  1  0  0  0
  5 30  1  0  0  0
 30 31  1  0  0  0
 31 32  1  0  0  0
 32 33  1  0  0  0
 33 34  1  0  0  0
 34 35  1  0  0  0
 35 36  2  0  0  0
 35 38  1  0  0  0
 38 39  1  0  0  0
 39 40  1  0  0  0
 40 41  1  0  0  0
 41 42  1  0  0  0
 42 43  1  0  0  0
 43 44  1  0  0  0
 44 45  1  0  0  0
 45 46  1  0  0  0
 46 47  1  0  0  0
 47 48  2  0  0  0
 47 49  1  0  0  0
 49 50  1  0  0  0
  5  6  2  0  0  0
 13 14  1  0  0  0
 14 15  2  0  0  0
 15 16  1  0  0  0
 16 18  1  0  0  0
 18 19  2  0  0  0
 19 20  1  0  0  0
 20 21  2  0  0  0
 21 22  1  0  0  0
 22 24  1  0  0  0
 24 25  1  0  0  0
 25 26  2  0  0  0
 25 28  1  0  0  0
 28 29  2  0  0  0
 22 23  2  0  0  0
 15 10  1  0  0  0
 23 18  1  0  0  0
  6  1  1  0  0  0
 50 42  1  0  0  0
 50 45  1  0  0  0
  7  8  1  0  0  0
 34 37  1  0  0  0
 46 51  1  0  0  0
 49 52  1  0  0  0
 16 17  1  0  0  0
 24 27  1  0  0  0
M  END
> <minimizedAffinity>
-7.60404

> <CNNscore>
0.0741867051

> <CNNaffinity>
6.9570479393

> <CNN_VS>
0.5161204338

> <CNNaffinity_variance>
0.9675146937

$$$$
[H]C([H])=C([H])C(=O)N([H])c1c([H])c([H])c([H])c(N([H])c2nc(N([H])c3c([H])c([H])c([H])c(OC([H])([H])C([H])([H])C([H])([H])N([H])C(=O)C([H])([H])C([H])([H])C([H])([H])C([H])([H])[C@]4([H])SC([H])([H])[C@]5([H])N([H])C(=O)N([H])[C@]45[H])c3[H])nc([H])c2C([H])([H])[H])c1[H]


 52 56  0  0  0  0  0  0  0  0999 V2000
    5.1706  -51.8695  -23.9676 C   0  0  0  0  0  0  0  0  0  0  0  0
    6.2147  -51.0141  -24.3808 C   0  0  0  0  0  0  0  0  0  0  0  0
    6.6660  -50.1036  -23.4747 C   0  0  0  0  0  0  0  0  0  0  0  0
    6.1234  -50.0120  -22.1831 C   0  0  0  0  0  0  0  0  0  0  0  0
    5.1083  -50.8476  -21.7828 C   0  0  0  0  0  0  0  0  0  0  0  0
    4.6408  -51.7911  -22.7259 C   0  0  0  0  0  0  0  0  0  0  0  0
    4.7489  -52.8174  -24.9211 N   0  0  0  0  0  0  0  0  0  0  0  0
    5.3640  -53.6727  -25.0947 H   0  0  0  0  0  0  0  0  0  0  0  0
   -0.0770  -52.6897  -27.9131 C   0  0  0  0  0  0  0  0  0  0  0  0
    1.1787  -52.7229  -27.1290 C   0  0  0  0  0  0  0  0  0  0  0  0
    2.3882  -52.9704  -27.7402 C   0  0  0  0  0  0  0  0  0  0  0  0
    3.5281  -52.9906  -27.0171 N   0  0  0  0  0  0  0  0  0  0  0  0
    3.5762  -52.7808  -25.6971 C   0  0  0  0  0  0  0  0  0  0  0  0
    2.3611  -52.5366  -25.1109 N   0  0  0  0  0  0  0  0  0  0  0  0
    1.2033  -52.5035  -25.7671 C   0  0  0  0  0  0  0  0  0  0  0  0
   -0.0078  -52.2954  -25.0551 N   0  0  0  0  0  0  0  0  0  0  0  0
   -0.6850  -51.5537  -25.4090 H   0  0  0  0  0  0  0  0  0  0  0  0
   -0.3747  -53.0192  -23.8880 C   0  0  0  0  0  0  0  0  0  0  0  0
   -0.8269  -54.2953  -23.9802 C   0  0  0  0  0  0  0  0  0  0  0  0
   -1.2257  -54.9791  -22.8238 C   0  0  0  0  0  0  0  0  0  0  0  0
   -1.1541  -54.3515  -21.6136 C   0  0  0  0  0  0  0  0  0  0  0  0
   -0.6973  -53.0439  -21.4656 C   0  0  0  0  0  0  0  0  0  0  0  0
   -0.3205  -52.4233  -22.6288 C   0  0  0  0  0  0  0  0  0  0  0  0
   -0.6803  -52.4904  -20.1760 N   0  0  0  0  0  0  0  0  0  0  0  0
    0.4338  -52.1768  -19.3799 C   0  0  0  0  0  0  0  0  0  0  0  0
    1.6237  -52.3679  -19.7470 O   0  0  0  0  0  0  0  0  0  0  0  0
   -1.6214  -52.2735  -19.7308 H   0  0  0  0  0  0  0  0  0  0  0  0
    0.2292  -51.5911  -18.0430 C   0  0  0  0  0  0  0  0  0  0  0  0
   -0.7108  -52.0457  -17.2404 C   0  0  0  0  0  0  0  0  0  0  0  0
    4.5491  -50.8091  -20.5345 O   0  0  0  0  0  0  0  0  0  0  0  0
    4.5423  -49.7607  -19.6627 C   0  0  0  0  0  0  0  0  0  0  0  0
    3.3021  -49.5821  -18.8227 C   0  0  0  0  0  0  0  0  0  0  0  0
    2.2884  -48.8035  -19.6610 C   0  0  0  0  0  0  0  0  0  0  0  0
    2.8359  -48.2295  -20.8485 N   0  0  0  0  0  0  0  0  0  0  0  0
    2.4581  -48.5899  -22.1768 C   0  0  0  0  0  0  0  0  0  0  0  0
    1.5788  -49.4823  -22.2699 O   0  0  0  0  0  0  0  0  0  0  0  0
    3.5872  -47.4762  -20.7796 H   0  0  0  0  0  0  0  0  0  0  0  0
    3.0672  -47.9535  -23.3429 C   0  0  0  0  0  0  0  0  0  0  0  0
    3.2907  -48.8201  -24.5282 C   0  0  0  0  0  0  0  0  0  0  0  0
    3.1904  -48.1099  -25.8303 C   0  0  0  0  0  0  0  0  0  0  0  0
    4.4871  -47.3557  -26.1269 C   0  0  0  0  0  0  0  0  0  0  0  0
    4.2397  -46.0314  -26.8075 C   0  0  0  0  0  0  0  0  0  0  0  0
    2.4413  -45.8010  -26.9369 S   0  0  0  0  0  0  0  0  0  0  0  0
    2.3065  -45.7912  -28.7725 C   0  0  0  0  0  0  0  0  0  0  0  0
    3.7233  -45.4045  -29.1267 C   0  0  0  0  0  0  0  0  0  0  0  0
    3.9873  -46.0139  -30.4175 N   0  0  0  0  0  0  0  0  0  0  0  0
    4.3682  -47.3507  -30.1145 C   0  0  0  0  0  0  0  0  0  0  0  0
    4.2960  -48.3188  -30.9451 O   0  0  0  0  0  0  0  0  0  0  0  0
    4.8256  -47.4181  -28.7724 N   0  0  0  0  0  0  0  0  0  0  0  0
    4.6728  -46.1127  -28.2302 C   0  0  0  0  0  0  0  0  0  0  0  0
    3.9251  -45.6030  -31.3589 H   0  0  0  0  0  0  0  0  0  0  0  0
    5.1941  -48.2541  -28.3022 H   0  0  0  0  0  0  0  0  0  0  0  0
  9 10  1  0  0  0
 10 11  2  0  0  0
 11 12  1  0  0  0
 12 13  2  0  0  0
 13  7  1  0  0  0
  7  1  1  0  0  0
  1  2  2  0  0  0
  2  3  1  0  0  0
  3  4  2  0  0  0
  4  5  1  0  0  0
  5 30  1  0  0  0
 30 31  1  0  0  0
 31 32  1  0  0  0
 32 33  1  0  0  0
 33 34  1  0  0  0
 34 35  1  0  0  0
 35 36  2  0  0  0
 35 38  1  0  0  0
 38 39  1  0  0  0
 39 40  1  0  0  0
 40 41  1  0  0  0
 41 42  1  0  0  0
 42 43  1  0  0  0
 43 44  1  0  0  0
 44 45  1  0  0  0
 45 46  1  0  0  0
 46 47  1  0  0  0
 47 48  2  0  0  0
 47 49  1  0  0  0
 49 50  1  0  0  0
  5  6  2  0  0  0
 13 14  1  0  0  0
 14 15  2  0  0  0
 15 16  1  0  0  0
 16 18  1  0  0  0
 18 19  2  0  0  0
 19 20  1  0  0  0
 20 21  2  0  0  0
 21 22  1  0  0  0
 22 24  1  0  0  0
 24 25  1  0  0  0
 25 26  2  0  0  0
 25 28  1  0  0  0
 28 29  2  0  0  0
 22 23  2  0  0  0
 15 10  1  0  0  0
 23 18  1  0  0  0
  6  1  1  0  0  0
 50 42  1  0  0  0
 50 45  1  0  0  0
  7  8  1  0  0  0
 34 37  1  0  0  0
 46 51  1  0  0  0
 49 52  1  0  0  0
 16 17  1  0  0  0
 24 27  1  0  0  0
M  END
> <minimizedAffinity>
-7.64942

> <CNNscore>
0.0726344958

> <CNNaffinity>
6.7801141739

> <CNN_VS>
0.4924701750

> <CNNaffinity_variance>
1.5701785088

$$$$
[H]C([H])=C([H])C(=O)N1C([H])([H])C([H])([H])C([H])(C([H])([H])n2nc(C(=O)N([H])c3nc4c([H])c(Cl)c([H])c([H])c4o3)c3c(N([H])[H])nc([H])nc32)C([H])([H])C1([H])[H]


 37 41  0  0  0  0  0  0  0  0999 V2000
   -1.2598  -55.3691  -22.8740 N   0  0  0  0  0  0  0  0  0  0  0  0
   -0.6761  -54.8843  -24.0449 C   0  0  0  0  0  0  0  0  0  0  0  0
   -0.6352  -55.7276  -25.1064 N   0  0  0  0  0  0  0  0  0  0  0  0
   -0.0938  -55.3737  -26.2540 C   0  0  0  0  0  0  0  0  0  0  0  0
    0.4238  -54.1606  -26.3691 N   0  0  0  0  0  0  0  0  0  0  0  0
    0.4169  -53.2654  -25.3453 C   0  0  0  0  0  0  0  0  0  0  0  0
    0.8577  -52.0061  -25.2223 N   0  0  0  0  0  0  0  0  0  0  0  0
    0.5795  -51.5893  -23.9901 N   0  0  0  0  0  0  0  0  0  0  0  0
   -0.0487  -52.5625  -23.2742 C   0  0  0  0  0  0  0  0  0  0  0  0
   -0.1576  -53.6243  -24.1135 C   0  0  0  0  0  0  0  0  0  0  0  0
   -0.6689  -55.8124  -22.1388 H   0  0  0  0  0  0  0  0  0  0  0  0
   -2.2843  -55.3215  -22.7043 H   0  0  0  0  0  0  0  0  0  0  0  0
   -0.4715  -52.4176  -21.8815 C   0  0  0  0  0  0  0  0  0  0  0  0
   -1.5797  -52.7016  -21.4129 O   0  0  0  0  0  0  0  0  0  0  0  0
    0.4752  -51.8942  -20.9248 N   0  0  0  0  0  0  0  0  0  0  0  0
    1.4100  -51.6421  -21.2604 H   0  0  0  0  0  0  0  0  0  0  0  0
    0.1275  -51.7365  -19.5696 C   0  0  0  0  0  0  0  0  0  0  0  0
    0.4336  -50.6233  -18.8467 N   0  0  0  0  0  0  0  0  0  0  0  0
   -0.0169  -50.7581  -17.6105 C   0  0  0  0  0  0  0  0  0  0  0  0
    0.0382  -49.9155  -16.4977 C   0  0  0  0  0  0  0  0  0  0  0  0
   -0.5246  -50.3237  -15.3209 C   0  0  0  0  0  0  0  0  0  0  0  0
   -0.4474  -49.2582  -13.9381 Cl  0  0  0  0  0  0  0  0  0  0  0  0
   -1.1292  -51.5624  -15.2799 C   0  0  0  0  0  0  0  0  0  0  0  0
   -1.1888  -52.4010  -16.3726 C   0  0  0  0  0  0  0  0  0  0  0  0
   -0.6246  -51.9954  -17.5578 C   0  0  0  0  0  0  0  0  0  0  0  0
   -0.4996  -52.5198  -18.7602 O   0  0  0  0  0  0  0  0  0  0  0  0
    1.5482  -51.2006  -26.1849 C   0  0  0  0  0  0  0  0  0  0  0  0
    3.0278  -51.3716  -26.2984 C   0  0  0  0  0  0  0  0  0  0  0  0
    3.7760  -50.1233  -26.3263 C   0  0  0  0  0  0  0  0  0  0  0  0
    4.5754  -49.8364  -25.0670 C   0  0  0  0  0  0  0  0  0  0  0  0
    3.9691  -50.4972  -23.9558 N   0  0  0  0  0  0  0  0  0  0  0  0
    4.2105  -51.9852  -24.1152 C   0  0  0  0  0  0  0  0  0  0  0  0
    3.4410  -52.4062  -25.3012 C   0  0  0  0  0  0  0  0  0  0  0  0
    3.2257  -50.0519  -22.8815 C   0  0  0  0  0  0  0  0  0  0  0  0
    2.9111  -50.9831  -21.9773 O   0  0  0  0  0  0  0  0  0  0  0  0
    2.7303  -48.7590  -22.5701 C   0  0  0  0  0  0  0  0  0  0  0  0
    1.7733  -48.4180  -21.7867 C   0  0  0  0  0  0  0  0  0  0  0  0
  1  2  1  0  0  0
  2  3  2  0  0  0
  3  4  1  0  0  0
  4  5  2  0  0  0
  5  6  1  0  0  0
  6  7  1  0  0  0
  7 27  1  0  0  0
 27 28  1  0  0  0
 28 29  1  0  0  0
 29 30  1  0  0  0
 30 31  1  0  0  0
 31 32  1  0  0  0
 32 33  1  0  0  0
 31 34  1  0  0  0
 34 35  2  0  0  0
 34 36  1  0  0  0
 36 37  2  0  0  0
  7  8  1  0  0  0
  8  9  2  0  0  0
  9 13  1  0  0  0
 13 14  2  0  0  0
 13 15  1  0  0  0
 15 17  1  0  0  0
 17 18  2  0  0  0
 18 19  1  0  0  0
 19 20  2  0  0  0
 20 21  1  0  0  0
 21 22  1  0  0  0
 21 23  2  0  0  0
 23 24  1  0  0  0
 24 25  2  0  0  0
 25 26  1  0  0  0
  9 10  1  0  0  0
 10  2  1  0  0  0
 10  6  2  0  0  0
 33 28  1  0  0  0
 26 17  1  0  0  0
 25 19  1  0  0  0
  1 11  1  0  0  0
  1 12  1  0  0  0
 15 16  1  0  0  0
M  END
> <minimizedAffinity>
-8.47273

> <CNNscore>
0.4972918332

> <CNNaffinity>
7.2727332115

> <CNN_VS>
3.6166708469

> <CNNaffinity_variance>
0.1037329882

$$$$
[H]C([H])=C([H])C(=O)N1C([H])([H])C([H])([H])C([H])(C([H])([H])n2nc(C(=O)N([H])c3nc4c([H])c(Cl)c([H])c([H])c4o3)c3c(N([H])[H])nc([H])nc32)C([H])([H])C1([H])[H]


 37 41  0  0  0  0  0  0  0  0999 V2000
   -0.7617  -54.3168  -20.2445 N   0  0  0  0  0  0  0  0  0  0  0  0
   -0.6947  -54.1413  -21.6271 C   0  0  0  0  0  0  0  0  0  0  0  0
   -1.2146  -55.1287  -22.3981 N   0  0  0  0  0  0  0  0  0  0  0  0
   -1.1900  -55.0682  -23.7139 C   0  0  0  0  0  0  0  0  0  0  0  0
   -0.6411  -54.0126  -24.2947 N   0  0  0  0  0  0  0  0  0  0  0  0
   -0.1015  -52.9874  -23.5824 C   0  0  0  0  0  0  0  0  0  0  0  0
    0.4874  -51.8356  -23.9313 N   0  0  0  0  0  0  0  0  0  0  0  0
    0.8215  -51.1885  -22.8182 N   0  0  0  0  0  0  0  0  0  0  0  0
    0.4620  -51.8979  -21.7127 C   0  0  0  0  0  0  0  0  0  0  0  0
   -0.1196  -53.0334  -22.1775 C   0  0  0  0  0  0  0  0  0  0  0  0
    0.0361  -54.7495  -19.7322 H   0  0  0  0  0  0  0  0  0  0  0  0
   -1.5979  -54.0434  -19.6908 H   0  0  0  0  0  0  0  0  0  0  0  0
    0.7060  -51.4610  -20.3383 C   0  0  0  0  0  0  0  0  0  0  0  0
   -0.0746  -51.5542  -19.3844 O   0  0  0  0  0  0  0  0  0  0  0  0
    1.9788  -50.8557  -20.0234 N   0  0  0  0  0  0  0  0  0  0  0  0
    2.6640  -50.7538  -20.7785 H   0  0  0  0  0  0  0  0  0  0  0  0
    2.2733  -50.4200  -18.7173 C   0  0  0  0  0  0  0  0  0  0  0  0
    2.9411  -51.1853  -17.8096 N   0  0  0  0  0  0  0  0  0  0  0  0
    3.0716  -50.5175  -16.6754 C   0  0  0  0  0  0  0  0  0  0  0  0
    3.6673  -50.8511  -15.4568 C   0  0  0  0  0  0  0  0  0  0  0  0
    3.6528  -49.9439  -14.4345 C   0  0  0  0  0  0  0  0  0  0  0  0
    4.4022  -50.3762  -12.9163 Cl  0  0  0  0  0  0  0  0  0  0  0  0
    3.0447  -48.7251  -14.6500 C   0  0  0  0  0  0  0  0  0  0  0  0
    2.4542  -48.3867  -15.8489 C   0  0  0  0  0  0  0  0  0  0  0  0
    2.4661  -49.2949  -16.8796 C   0  0  0  0  0  0  0  0  0  0  0  0
    2.0139  -49.3089  -18.1173 O   0  0  0  0  0  0  0  0  0  0  0  0
    0.7764  -51.3386  -25.2435 C   0  0  0  0  0  0  0  0  0  0  0  0
    2.0331  -51.8072  -25.9010 C   0  0  0  0  0  0  0  0  0  0  0  0
    2.8053  -50.7520  -26.5406 C   0  0  0  0  0  0  0  0  0  0  0  0
    4.0991  -50.3947  -25.8295 C   0  0  0  0  0  0  0  0  0  0  0  0
    3.9835  -50.7099  -24.4415 N   0  0  0  0  0  0  0  0  0  0  0  0
    3.9914  -52.2198  -24.3083 C   0  0  0  0  0  0  0  0  0  0  0  0
    2.7441  -52.6986  -24.9338 C   0  0  0  0  0  0  0  0  0  0  0  0
    3.8319  -49.9395  -23.3064 C   0  0  0  0  0  0  0  0  0  0  0  0
    3.8612  -50.6093  -22.1513 O   0  0  0  0  0  0  0  0  0  0  0  0
    3.6457  -48.5409  -23.1542 C   0  0  0  0  0  0  0  0  0  0  0  0
    2.6753  -47.9004  -22.6120 C   0  0  0  0  0  0  0  0  0  0  0  0
  1  2  1  0  0  0
  2  3  2  0  0  0
  3  4  1  0  0  0
  4  5  2  0  0  0
  5  6  1  0  0  0
  6  7  1  0  0  0
  7 27  1  0  0  0
 27 28  1  0  0  0
 28 29  1  0  0  0
 29 30  1  0  0  0
 30 31  1  0  0  0
 31 32  1  0  0  0
 32 33  1  0  0  0
 31 34  1  0  0  0
 34 35  2  0  0  0
 34 36  1  0  0  0
 36 37  2  0  0  0
  7  8  1  0  0  0
  8  9  2  0  0  0
  9 13  1  0  0  0
 13 14  2  0  0  0
 13 15  1  0  0  0
 15 17  1  0  0  0
 17 18  2  0  0  0
 18 19  1  0  0  0
 19 20  2  0  0  0
 20 21  1  0  0  0
 21 22  1  0  0  0
 21 23  2  0  0  0
 23 24  1  0  0  0
 24 25  2  0  0  0
 25 26  1  0  0  0
  9 10  1  0  0  0
 10  2  1  0  0  0
 10  6  2  0  0  0
 33 28  1  0  0  0
 26 17  1  0  0  0
 25 19  1  0  0  0
  1 11  1  0  0  0
  1 12  1  0  0  0
 15 16  1  0  0  0
M  END
> <minimizedAffinity>
-8.05120

> <CNNscore>
0.4728693664

> <CNNaffinity>
7.0751595497

> <CNN_VS>
3.3456261158

> <CNNaffinity_variance>
0.2342249900

$$$$
[H]C([H])=C([H])C(=O)N1C([H])([H])C([H])([H])C([H])(C([H])([H])n2nc(C(=O)N([H])c3nc4c([H])c(Cl)c([H])c([H])c4o3)c3c(N([H])[H])nc([H])nc32)C([H])([H])C1([H])[H]


 37 41  0  0  0  0  0  0  0  0999 V2000
   -1.0871  -54.5961  -21.9525 N   0  0  0  0  0  0  0  0  0  0  0  0
   -0.5579  -53.9647  -23.0786 C   0  0  0  0  0  0  0  0  0  0  0  0
   -0.8937  -54.4804  -24.2873 N   0  0  0  0  0  0  0  0  0  0  0  0
   -0.4373  -53.9680  -25.4120 C   0  0  0  0  0  0  0  0  0  0  0  0
    0.3714  -52.9213  -25.3553 N   0  0  0  0  0  0  0  0  0  0  0  0
    0.7485  -52.3549  -24.1778 C   0  0  0  0  0  0  0  0  0  0  0  0
    1.5290  -51.3107  -23.8684 N   0  0  0  0  0  0  0  0  0  0  0  0
    1.5454  -51.1850  -22.5443 N   0  0  0  0  0  0  0  0  0  0  0  0
    0.7786  -52.1419  -21.9520 C   0  0  0  0  0  0  0  0  0  0  0  0
    0.2708  -52.8867  -22.9674 C   0  0  0  0  0  0  0  0  0  0  0  0
   -0.5455  -55.3431  -21.4679 H   0  0  0  0  0  0  0  0  0  0  0  0
   -2.0266  -54.3607  -21.5751 H   0  0  0  0  0  0  0  0  0  0  0  0
    0.6048  -52.2801  -20.5063 C   0  0  0  0  0  0  0  0  0  0  0  0
    0.4242  -53.3313  -19.8815 O   0  0  0  0  0  0  0  0  0  0  0  0
    0.6442  -51.0890  -19.6906 N   0  0  0  0  0  0  0  0  0  0  0  0
    0.7913  -50.1892  -20.1583 H   0  0  0  0  0  0  0  0  0  0  0  0
    0.4879  -51.1595  -18.2931 C   0  0  0  0  0  0  0  0  0  0  0  0
   -0.7063  -51.4133  -17.6890 N   0  0  0  0  0  0  0  0  0  0  0  0
   -0.5479  -51.4194  -16.3759 C   0  0  0  0  0  0  0  0  0  0  0  0
   -1.4460  -51.6271  -15.3263 C   0  0  0  0  0  0  0  0  0  0  0  0
   -0.9929  -51.5742  -14.0378 C   0  0  0  0  0  0  0  0  0  0  0  0
   -2.1288  -51.8362  -12.7360 Cl  0  0  0  0  0  0  0  0  0  0  0  0
    0.3446  -51.3153  -13.8247 C   0  0  0  0  0  0  0  0  0  0  0  0
    1.2386  -51.1090  -14.8538 C   0  0  0  0  0  0  0  0  0  0  0  0
    0.7884  -51.1611  -16.1507 C   0  0  0  0  0  0  0  0  0  0  0  0
    1.3420  -51.0176  -17.3379 O   0  0  0  0  0  0  0  0  0  0  0  0
    2.2758  -50.4593  -24.7458 C   0  0  0  0  0  0  0  0  0  0  0  0
    3.5863  -50.9654  -25.2533 C   0  0  0  0  0  0  0  0  0  0  0  0
    4.6471  -49.9688  -25.2746 C   0  0  0  0  0  0  0  0  0  0  0  0
    5.7291  -50.1739  -24.2285 C   0  0  0  0  0  0  0  0  0  0  0  0
    5.1889  -50.8892  -23.1170 N   0  0  0  0  0  0  0  0  0  0  0  0
    4.9457  -52.3180  -23.5610 C   0  0  0  0  0  0  0  0  0  0  0  0
    3.8668  -52.2630  -24.5655 C   0  0  0  0  0  0  0  0  0  0  0  0
    4.8382  -50.5190  -21.8344 C   0  0  0  0  0  0  0  0  0  0  0  0
    4.4502  -51.5168  -21.0360 O   0  0  0  0  0  0  0  0  0  0  0  0
    4.8169  -49.2441  -21.2114 C   0  0  0  0  0  0  0  0  0  0  0  0
    3.9469  -48.3056  -21.3015 C   0  0  0  0  0  0  0  0  0  0  0  0
  1  2  1  0  0  0
  2  3  2  0  0  0
  3  4  1  0  0  0
  4  5  2  0  0  0
  5  6  1  0  0  0
  6  7  1  0  0  0
  7 27  1  0  0  0
 27 28  1  0  0  0
 28 29  1  0  0  0
 29 30  1  0  0  0
 30 31  1  0  0  0
 31 32  1  0  0  0
 32 33  1  0  0  0
 31 34  1  0  0  0
 34 35  2  0  0  0
 34 36  1  0  0  0
 36 37  2  0  0  0
  7  8  1  0  0  0
  8  9  2  0  0  0
  9 13  1  0  0  0
 13 14  2  0  0  0
 13 15  1  0  0  0
 15 17  1  0  0  0
 17 18  2  0  0  0
 18 19  1  0  0  0
 19 20  2  0  0  0
 20 21  1  0  0  0
 21 22  1  0  0  0
 21 23  2  0  0  0
 23 24  1  0  0  0
 24 25  2  0  0  0
 25 26  1  0  0  0
  9 10  1  0  0  0
 10  2  1  0  0  0
 10  6  2  0  0  0
 33 28  1  0  0  0
 26 17  1  0  0  0
 25 19  1  0  0  0
  1 11  1  0  0  0
  1 12  1  0  0  0
 15 16  1  0  0  0
M  END
> <minimizedAffinity>
-7.45647

> <CNNscore>
0.3717967868

> <CNNaffinity>
6.9916152954

> <CNN_VS>
2.5994601250

> <CNNaffinity_variance>
0.3520251215

$$$$
[H]C([H])=C([H])C(=O)N1C([H])([H])C([H])([H])C([H])(C([H])([H])n2nc(C(=O)N([H])c3nc4c([H])c(Cl)c([H])c([H])c4o3)c3c(N([H])[H])nc([H])nc32)C([H])([H])C1([H])[H]


 37 41  0  0  0  0  0  0  0  0999 V2000
    0.3357  -53.7971  -20.3667 N   0  0  0  0  0  0  0  0  0  0  0  0
   -0.2588  -53.9458  -21.6202 C   0  0  0  0  0  0  0  0  0  0  0  0
   -0.9873  -55.0714  -21.8254 N   0  0  0  0  0  0  0  0  0  0  0  0
   -1.5783  -55.3156  -22.9772 C   0  0  0  0  0  0  0  0  0  0  0  0
   -1.4543  -54.4353  -23.9583 N   0  0  0  0  0  0  0  0  0  0  0  0
   -0.7388  -53.2869  -23.8206 C   0  0  0  0  0  0  0  0  0  0  0  0
   -0.4808  -52.2606  -24.6423 N   0  0  0  0  0  0  0  0  0  0  0  0
    0.2714  -51.3830  -23.9839 N   0  0  0  0  0  0  0  0  0  0  0  0
    0.5265  -51.8105  -22.7164 C   0  0  0  0  0  0  0  0  0  0  0  0
   -0.1021  -53.0083  -22.5987 C   0  0  0  0  0  0  0  0  0  0  0  0
    1.3143  -54.1193  -20.2096 H   0  0  0  0  0  0  0  0  0  0  0  0
   -0.1707  -53.3839  -19.5584 H   0  0  0  0  0  0  0  0  0  0  0  0
    1.3383  -51.0753  -21.7468 C   0  0  0  0  0  0  0  0  0  0  0  0
    2.4052  -51.4464  -21.2448 O   0  0  0  0  0  0  0  0  0  0  0  0
    0.8806  -49.7778  -21.3080 N   0  0  0  0  0  0  0  0  0  0  0  0
    0.0004  -49.4216  -21.6932 H   0  0  0  0  0  0  0  0  0  0  0  0
    1.6215  -49.0211  -20.3802 C   0  0  0  0  0  0  0  0  0  0  0  0
    1.7112  -49.3422  -19.0595 N   0  0  0  0  0  0  0  0  0  0  0  0
    2.4701  -48.4558  -18.4368 C   0  0  0  0  0  0  0  0  0  0  0  0
    2.8668  -48.3368  -17.1028 C   0  0  0  0  0  0  0  0  0  0  0  0
    3.6725  -47.2958  -16.7347 C   0  0  0  0  0  0  0  0  0  0  0  0
    4.1600  -47.1608  -15.0622 Cl  0  0  0  0  0  0  0  0  0  0  0  0
    4.0643  -46.3972  -17.7046 C   0  0  0  0  0  0  0  0  0  0  0  0
    3.6782  -46.5062  -19.0236 C   0  0  0  0  0  0  0  0  0  0  0  0
    2.8684  -47.5507  -19.3987 C   0  0  0  0  0  0  0  0  0  0  0  0
    2.3250  -47.9513  -20.5304 O   0  0  0  0  0  0  0  0  0  0  0  0
   -0.8749  -52.0856  -26.0085 C   0  0  0  0  0  0  0  0  0  0  0  0
   -0.3240  -53.0403  -27.0166 C   0  0  0  0  0  0  0  0  0  0  0  0
    0.4300  -52.4102  -28.0906 C   0  0  0  0  0  0  0  0  0  0  0  0
    1.9297  -52.6439  -28.0325 C   0  0  0  0  0  0  0  0  0  0  0  0
    2.3225  -52.8901  -26.6819 N   0  0  0  0  0  0  0  0  0  0  0  0
    1.8041  -54.2603  -26.2925 C   0  0  0  0  0  0  0  0  0  0  0  0
    0.3327  -54.1569  -26.2701 C   0  0  0  0  0  0  0  0  0  0  0  0
    2.9943  -52.1372  -25.7402 C   0  0  0  0  0  0  0  0  0  0  0  0
    3.2657  -52.7643  -24.5927 O   0  0  0  0  0  0  0  0  0  0  0  0
    3.4501  -50.7939  -25.7818 C   0  0  0  0  0  0  0  0  0  0  0  0
    2.7921  -49.7147  -26.0014 C   0  0  0  0  0  0  0  0  0  0  0  0
  1  2  1  0  0  0
  2  3  2  0  0  0
  3  4  1  0  0  0
  4  5  2  0  0  0
  5  6  1  0  0  0
  6  7  1  0  0  0
  7 27  1  0  0  0
 27 28  1  0  0  0
 28 29  1  0  0  0
 29 30  1  0  0  0
 30 31  1  0  0  0
 31 32  1  0  0  0
 32 33  1  0  0  0
 31 34  1  0  0  0
 34 35  2  0  0  0
 34 36  1  0  0  0
 36 37  2  0  0  0
  7  8  1  0  0  0
  8  9  2  0  0  0
  9 13  1  0  0  0
 13 14  2  0  0  0
 13 15  1  0  0  0
 15 17  1  0  0  0
 17 18  2  0  0  0
 18 19  1  0  0  0
 19 20  2  0  0  0
 20 21  1  0  0  0
 21 22  1  0  0  0
 21 23  2  0  0  0
 23 24  1  0  0  0
 24 25  2  0  0  0
 25 26  1  0  0  0
  9 10  1  0  0  0
 10  2  1  0  0  0
 10  6  2  0  0  0
 33 28  1  0  0  0
 26 17  1  0  0  0
 25 19  1  0  0  0
  1 11  1  0  0  0
  1 12  1  0  0  0
 15 16  1  0  0  0
M  END
> <minimizedAffinity>
-6.88635

> <CNNscore>
0.3543642163

> <CNNaffinity>
6.9785547256

> <CNN_VS>
2.4729499817

> <CNNaffinity_variance>
0.2779685259

$$$$
[H]C([H])=C([H])C(=O)N1C([H])([H])C([H])([H])C([H])(C([H])([H])n2nc(C(=O)N([H])c3nc4c([H])c(Cl)c([H])c([H])c4o3)c3c(N([H])[H])nc([H])nc32)C([H])([H])C1([H])[H]


 37 41  0  0  0  0  0  0  0  0999 V2000
   -0.7361  -54.2742  -24.6377 N   0  0  0  0  0  0  0  0  0  0  0  0
    0.0280  -53.5827  -25.5783 C   0  0  0  0  0  0  0  0  0  0  0  0
    0.0931  -54.1111  -26.8259 N   0  0  0  0  0  0  0  0  0  0  0  0
    0.7980  -53.5447  -27.7839 C   0  0  0  0  0  0  0  0  0  0  0  0
    1.4597  -52.4296  -27.5164 N   0  0  0  0  0  0  0  0  0  0  0  0
    1.4382  -51.8465  -26.2879 C   0  0  0  0  0  0  0  0  0  0  0  0
    2.0022  -50.7398  -25.7857 N   0  0  0  0  0  0  0  0  0  0  0  0
    1.6350  -50.6303  -24.5119 N   0  0  0  0  0  0  0  0  0  0  0  0
    0.8232  -51.6606  -24.1461 C   0  0  0  0  0  0  0  0  0  0  0  0
    0.6906  -52.4353  -25.2533 C   0  0  0  0  0  0  0  0  0  0  0  0
   -0.2867  -54.9750  -24.0109 H   0  0  0  0  0  0  0  0  0  0  0  0
   -1.7612  -54.1302  -24.5421 H   0  0  0  0  0  0  0  0  0  0  0  0
    0.2641  -51.8328  -22.8055 C   0  0  0  0  0  0  0  0  0  0  0  0
   -0.8007  -52.3897  -22.5155 O   0  0  0  0  0  0  0  0  0  0  0  0
    1.0037  -51.3142  -21.6786 N   0  0  0  0  0  0  0  0  0  0  0  0
    1.8944  -50.8423  -21.8629 H   0  0  0  0  0  0  0  0  0  0  0  0
    0.5187  -51.4540  -20.3643 C   0  0  0  0  0  0  0  0  0  0  0  0
    0.7119  -50.5163  -19.3953 N   0  0  0  0  0  0  0  0  0  0  0  0
    0.1467  -50.9178  -18.2689 C   0  0  0  0  0  0  0  0  0  0  0  0
    0.0616  -50.3311  -17.0041 C   0  0  0  0  0  0  0  0  0  0  0  0
   -0.5995  -50.9888  -16.0047 C   0  0  0  0  0  0  0  0  0  0  0  0
   -0.6972  -50.2416  -14.4281 Cl  0  0  0  0  0  0  0  0  0  0  0  0
   -1.1604  -52.2161  -16.2886 C   0  0  0  0  0  0  0  0  0  0  0  0
   -1.0818  -52.8032  -17.5335 C   0  0  0  0  0  0  0  0  0  0  0  0
   -0.4184  -52.1464  -18.5415 C   0  0  0  0  0  0  0  0  0  0  0  0
   -0.1567  -52.4006  -19.8078 O   0  0  0  0  0  0  0  0  0  0  0  0
    2.8845  -49.8127  -26.4295 C   0  0  0  0  0  0  0  0  0  0  0  0
    4.3035  -49.7694  -25.9650 C   0  0  0  0  0  0  0  0  0  0  0  0
    5.0677  -48.6402  -26.4746 C   0  0  0  0  0  0  0  0  0  0  0  0
    5.3946  -47.5784  -25.4388 C   0  0  0  0  0  0  0  0  0  0  0  0
    4.4144  -47.6063  -24.4009 N   0  0  0  0  0  0  0  0  0  0  0  0
    4.6324  -48.8704  -23.5933 C   0  0  0  0  0  0  0  0  0  0  0  0
    4.3026  -49.9966  -24.4872 C   0  0  0  0  0  0  0  0  0  0  0  0
    3.3654  -46.7731  -24.0682 C   0  0  0  0  0  0  0  0  0  0  0  0
    2.7187  -47.0877  -22.9428 O   0  0  0  0  0  0  0  0  0  0  0  0
    2.8486  -45.6267  -24.7258 C   0  0  0  0  0  0  0  0  0  0  0  0
    1.8326  -44.9025  -24.4271 C   0  0  0  0  0  0  0  0  0  0  0  0
  1  2  1  0  0  0
  2  3  2  0  0  0
  3  4  1  0  0  0
  4  5  2  0  0  0
  5  6  1  0  0  0
  6  7  1  0  0  0
  7 27  1  0  0  0
 27 28  1  0  0  0
 28 29  1  0  0  0
 29 30  1  0  0  0
 30 31  1  0  0  0
 31 32  1  0  0  0
 32 33  1  0  0  0
 31 34  1  0  0  0
 34 35  2  0  0  0
 34 36  1  0  0  0
 36 37  2  0  0  0
  7  8  1  0  0  0
  8  9  2  0  0  0
  9 13  1  0  0  0
 13 14  2  0  0  0
 13 15  1  0  0  0
 15 17  1  0  0  0
 17 18  2  0  0  0
 18 19  1  0  0  0
 19 20  2  0  0  0
 20 21  1  0  0  0
 21 22  1  0  0  0
 21 23  2  0  0  0
 23 24  1  0  0  0
 24 25  2  0  0  0
 25 26  1  0  0  0
  9 10  1  0  0  0
 10  2  1  0  0  0
 10  6  2  0  0  0
 33 28  1  0  0  0
 26 17  1  0  0  0
 25 19  1  0  0  0
  1 11  1  0  0  0
  1 12  1  0  0  0
 15 16  1  0  0  0
M  END
> <minimizedAffinity>
-7.81304

> <CNNscore>
0.3391379714

> <CNNaffinity>
7.0319700241

> <CNN_VS>
2.3848080635

> <CNNaffinity_variance>
0.3658588231

$$$$
[H]C([H])=C([H])C(=O)N1C([H])([H])C([H])([H])C([H])(C([H])([H])n2nc(C(=O)N([H])c3nc4c([H])c(Cl)c([H])c([H])c4o3)c3c(N([H])[H])nc([H])nc32)C([H])([H])C1([H])[H]


 37 41  0  0  0  0  0  0  0  0999 V2000
   -1.8514  -54.7267  -23.4434 N   0  0  0  0  0  0  0  0  0  0  0  0
   -0.7209  -54.4336  -24.2069 C   0  0  0  0  0  0  0  0  0  0  0  0
   -0.5973  -55.0771  -25.3945 N   0  0  0  0  0  0  0  0  0  0  0  0
    0.4386  -54.8828  -26.1850 C   0  0  0  0  0  0  0  0  0  0  0  0
    1.3823  -54.0357  -25.8050 N   0  0  0  0  0  0  0  0  0  0  0  0
    1.3216  -53.3577  -24.6276 C   0  0  0  0  0  0  0  0  0  0  0  0
    2.1261  -52.4615  -24.0404 N   0  0  0  0  0  0  0  0  0  0  0  0
    1.5737  -52.1052  -22.8840 N   0  0  0  0  0  0  0  0  0  0  0  0
    0.3956  -52.7578  -22.6826 C   0  0  0  0  0  0  0  0  0  0  0  0
    0.2235  -53.5507  -23.7714 C   0  0  0  0  0  0  0  0  0  0  0  0
   -1.8126  -55.4705  -22.7144 H   0  0  0  0  0  0  0  0  0  0  0  0
   -2.7571  -54.2360  -23.5829 H   0  0  0  0  0  0  0  0  0  0  0  0
   -0.4448  -52.5935  -21.4968 C   0  0  0  0  0  0  0  0  0  0  0  0
   -1.6487  -52.3135  -21.4781 O   0  0  0  0  0  0  0  0  0  0  0  0
    0.1568  -52.7706  -20.1959 N   0  0  0  0  0  0  0  0  0  0  0  0
    1.1537  -53.0039  -20.1538 H   0  0  0  0  0  0  0  0  0  0  0  0
   -0.6025  -52.6301  -19.0186 C   0  0  0  0  0  0  0  0  0  0  0  0
   -0.2235  -51.8370  -17.9780 N   0  0  0  0  0  0  0  0  0  0  0  0
   -1.1286  -51.9030  -17.0159 C   0  0  0  0  0  0  0  0  0  0  0  0
   -1.2088  -51.2900  -15.7633 C   0  0  0  0  0  0  0  0  0  0  0  0
   -2.2838  -51.5482  -14.9597 C   0  0  0  0  0  0  0  0  0  0  0  0
   -2.3695  -50.7735  -13.3957 Cl  0  0  0  0  0  0  0  0  0  0  0  0
   -3.2543  -52.4116  -15.4226 C   0  0  0  0  0  0  0  0  0  0  0  0
   -3.1842  -53.0214  -16.6571 C   0  0  0  0  0  0  0  0  0  0  0  0
   -2.1057  -52.7652  -17.4687 C   0  0  0  0  0  0  0  0  0  0  0  0
   -1.7248  -53.1583  -18.6674 O   0  0  0  0  0  0  0  0  0  0  0  0
    3.3881  -51.9575  -24.4942 C   0  0  0  0  0  0  0  0  0  0  0  0
    4.6071  -52.3446  -23.7226 C   0  0  0  0  0  0  0  0  0  0  0  0
    5.8629  -52.0558  -24.3997 C   0  0  0  0  0  0  0  0  0  0  0  0
    6.6579  -50.9105  -23.7970 C   0  0  0  0  0  0  0  0  0  0  0  0
    5.7710  -50.0149  -23.1260 N   0  0  0  0  0  0  0  0  0  0  0  0
    5.2742  -50.7089  -21.8732 C   0  0  0  0  0  0  0  0  0  0  0  0
    4.4386  -51.8368  -22.3265 C   0  0  0  0  0  0  0  0  0  0  0  0
    5.2958  -48.7540  -23.4247 C   0  0  0  0  0  0  0  0  0  0  0  0
    4.5421  -48.1870  -22.4792 O   0  0  0  0  0  0  0  0  0  0  0  0
    5.4710  -47.9476  -24.5792 C   0  0  0  0  0  0  0  0  0  0  0  0
    6.0875  -46.8300  -24.7088 C   0  0  0  0  0  0  0  0  0  0  0  0
  1  2  1  0  0  0
  2  3  2  0  0  0
  3  4  1  0  0  0
  4  5  2  0  0  0
  5  6  1  0  0  0
  6  7  1  0  0  0
  7 27  1  0  0  0
 27 28  1  0  0  0
 28 29  1  0  0  0
 29 30  1  0  0  0
 30 31  1  0  0  0
 31 32  1  0  0  0
 32 33  1  0  0  0
 31 34  1  0  0  0
 34 35  2  0  0  0
 34 36  1  0  0  0
 36 37  2  0  0  0
  7  8  1  0  0  0
  8  9  2  0  0  0
  9 13  1  0  0  0
 13 14  2  0  0  0
 13 15  1  0  0  0
 15 17  1  0  0  0
 17 18  2  0  0  0
 18 19  1  0  0  0
 19 20  2  0  0  0
 20 21  1  0  0  0
 21 22  1  0  0  0
 21 23  2  0  0  0
 23 24  1  0  0  0
 24 25  2  0  0  0
 25 26  1  0  0  0
  9 10  1  0  0  0
 10  2  1  0  0  0
 10  6  2  0  0  0
 33 28  1  0  0  0
 26 17  1  0  0  0
 25 19  1  0  0  0
  1 11  1  0  0  0
  1 12  1  0  0  0
 15 16  1  0  0  0
M  END
> <minimizedAffinity>
-7.71852

> <CNNscore>
0.3088083267

> <CNNaffinity>
7.0606679916

> <CNN_VS>
2.1803929806

> <CNNaffinity_variance>
0.2015454322

$$$$
[H]C([H])=C([H])C(=O)N1C([H])([H])C([H])([H])C([H])(C([H])([H])n2nc(C(=O)N([H])c3nc4c([H])c(Cl)c([H])c([H])c4o3)c3c(N([H])[H])nc([H])nc32)C([H])([H])C1([H])[H]


 37 41  0  0  0  0  0  0  0  0999 V2000
   -1.5652  -54.2135  -23.9138 N   0  0  0  0  0  0  0  0  0  0  0  0
   -0.4018  -53.9837  -24.6489 C   0  0  0  0  0  0  0  0  0  0  0  0
   -0.3349  -54.5403  -25.8840 N   0  0  0  0  0  0  0  0  0  0  0  0
    0.7241  -54.3961  -26.6542 C   0  0  0  0  0  0  0  0  0  0  0  0
    1.7489  -53.6882  -26.2054 N   0  0  0  0  0  0  0  0  0  0  0  0
    1.7485  -53.1035  -24.9775 C   0  0  0  0  0  0  0  0  0  0  0  0
    2.6378  -52.3484  -24.3187 N   0  0  0  0  0  0  0  0  0  0  0  0
    2.1143  -52.0280  -23.1386 N   0  0  0  0  0  0  0  0  0  0  0  0
    0.8710  -52.5641  -22.9927 C   0  0  0  0  0  0  0  0  0  0  0  0
    0.6269  -53.2449  -24.1420 C   0  0  0  0  0  0  0  0  0  0  0  0
   -1.6141  -55.0126  -23.2467 H   0  0  0  0  0  0  0  0  0  0  0  0
   -2.4117  -53.6187  -24.0153 H   0  0  0  0  0  0  0  0  0  0  0  0
    0.0404  -52.4053  -21.7993 C   0  0  0  0  0  0  0  0  0  0  0  0
   -1.1704  -52.1576  -21.7701 O   0  0  0  0  0  0  0  0  0  0  0  0
    0.6617  -52.5473  -20.5034 N   0  0  0  0  0  0  0  0  0  0  0  0
    1.6650  -52.7530  -20.4700 H   0  0  0  0  0  0  0  0  0  0  0  0
   -0.0874  -52.4102  -19.3192 C   0  0  0  0  0  0  0  0  0  0  0  0
    0.2168  -51.5072  -18.3457 N   0  0  0  0  0  0  0  0  0  0  0  0
   -0.6573  -51.6067  -17.3581 C   0  0  0  0  0  0  0  0  0  0  0  0
   -0.7847  -50.9190  -16.1489 C   0  0  0  0  0  0  0  0  0  0  0  0
   -1.8084  -51.2394  -15.3017 C   0  0  0  0  0  0  0  0  0  0  0  0
   -1.9542  -50.3700  -13.7930 Cl  0  0  0  0  0  0  0  0  0  0  0  0
   -2.6815  -52.2379  -15.6788 C   0  0  0  0  0  0  0  0  0  0  0  0
   -2.5641  -52.9222  -16.8699 C   0  0  0  0  0  0  0  0  0  0  0  0
   -1.5369  -52.6040  -17.7250 C   0  0  0  0  0  0  0  0  0  0  0  0
   -1.1351  -53.0358  -18.9034 O   0  0  0  0  0  0  0  0  0  0  0  0
    3.9512  -51.9485  -24.7279 C   0  0  0  0  0  0  0  0  0  0  0  0
    4.1700  -50.5046  -25.0416 C   0  0  0  0  0  0  0  0  0  0  0  0
    3.1194  -49.6198  -24.5597 C   0  0  0  0  0  0  0  0  0  0  0  0
    3.5209  -48.7399  -23.3885 C   0  0  0  0  0  0  0  0  0  0  0  0
    4.5723  -49.3704  -22.6563 N   0  0  0  0  0  0  0  0  0  0  0  0
    5.8274  -49.3086  -23.5040 C   0  0  0  0  0  0  0  0  0  0  0  0
    5.5806  -50.1710  -24.6751 C   0  0  0  0  0  0  0  0  0  0  0  0
    4.6216  -50.0114  -21.4349 C   0  0  0  0  0  0  0  0  0  0  0  0
    5.8381  -50.3922  -21.0364 O   0  0  0  0  0  0  0  0  0  0  0  0
    3.5885  -50.3412  -20.5195 C   0  0  0  0  0  0  0  0  0  0  0  0
    3.6722  -50.7539  -19.3077 C   0  0  0  0  0  0  0  0  0  0  0  0
  1  2  1  0  0  0
  2  3  2  0  0  0
  3  4  1  0  0  0
  4  5  2  0  0  0
  5  6  1  0  0  0
  6  7  1  0  0  0
  7 27  1  0  0  0
 27 28  1  0  0  0
 28 29  1  0  0  0
 29 30  1  0  0  0
 30 31  1  0  0  0
 31 32  1  0  0  0
 32 33  1  0  0  0
 31 34  1  0  0  0
 34 35  2  0  0  0
 34 36  1  0  0  0
 36 37  2  0  0  0
  7  8  1  0  0  0
  8  9  2  0  0  0
  9 13  1  0  0  0
 13 14  2  0  0  0
 13 15  1  0  0  0
 15 17  1  0  0  0
 17 18  2  0  0  0
 18 19  1  0  0  0
 19 20  2  0  0  0
 20 21  1  0  0  0
 21 22  1  0  0  0
 21 23  2  0  0  0
 23 24  1  0  0  0
 24 25  2  0  0  0
 25 26  1  0  0  0
  9 10  1  0  0  0
 10  2  1  0  0  0
 10  6  2  0  0  0
 33 28  1  0  0  0
 26 17  1  0  0  0
 25 19  1  0  0  0
  1 11  1  0  0  0
  1 12  1  0  0  0
 15 16  1  0  0  0
M  END
> <minimizedAffinity>
-7.79596

> <CNNscore>
0.3074928224

> <CNNaffinity>
6.9434499741

> <CNN_VS>
2.1350610256

> <CNNaffinity_variance>
0.3564632535

$$$$
[H]C([H])=C([H])C(=O)N1C([H])([H])C([H])([H])C([H])(C([H])([H])n2nc(C(=O)N([H])c3nc4c([H])c(Cl)c([H])c([H])c4o3)c3c(N([H])[H])nc([H])nc32)C([H])([H])C1([H])[H]


 37 41  0  0  0  0  0  0  0  0999 V2000
   -0.8617  -54.3416  -24.6293 N   0  0  0  0  0  0  0  0  0  0  0  0
   -0.0829  -53.7108  -25.6002 C   0  0  0  0  0  0  0  0  0  0  0  0
   -0.0729  -54.2671  -26.8372 N   0  0  0  0  0  0  0  0  0  0  0  0
    0.6397  -53.7584  -27.8216 C   0  0  0  0  0  0  0  0  0  0  0  0
    1.3649  -52.6749  -27.5917 N   0  0  0  0  0  0  0  0  0  0  0  0
    1.4010  -52.0668  -26.3758 C   0  0  0  0  0  0  0  0  0  0  0  0
    2.0335  -50.9817  -25.9091 N   0  0  0  0  0  0  0  0  0  0  0  0
    1.7005  -50.8271  -24.6306 N   0  0  0  0  0  0  0  0  0  0  0  0
    0.8437  -51.8052  -24.2261 C   0  0  0  0  0  0  0  0  0  0  0  0
    0.6462  -52.5940  -25.3135 C   0  0  0  0  0  0  0  0  0  0  0  0
   -0.4362  -55.0525  -23.9971 H   0  0  0  0  0  0  0  0  0  0  0  0
   -1.8753  -54.1413  -24.5156 H   0  0  0  0  0  0  0  0  0  0  0  0
    0.3057  -51.9202  -22.8708 C   0  0  0  0  0  0  0  0  0  0  0  0
   -0.7643  -52.4454  -22.5433 O   0  0  0  0  0  0  0  0  0  0  0  0
    1.0755  -51.3785  -21.7756 N   0  0  0  0  0  0  0  0  0  0  0  0
    1.9718  -50.9311  -21.9915 H   0  0  0  0  0  0  0  0  0  0  0  0
    0.6117  -51.4635  -20.4490 C   0  0  0  0  0  0  0  0  0  0  0  0
    0.7980  -50.4755  -19.5299 N   0  0  0  0  0  0  0  0  0  0  0  0
    0.2572  -50.8328  -18.3770 C   0  0  0  0  0  0  0  0  0  0  0  0
    0.1768  -50.1865  -17.1413 C   0  0  0  0  0  0  0  0  0  0  0  0
   -0.4561  -50.8078  -16.1013 C   0  0  0  0  0  0  0  0  0  0  0  0
   -0.5483  -49.9862  -14.5618 Cl  0  0  0  0  0  0  0  0  0  0  0  0
   -0.9943  -52.0591  -16.3165 C   0  0  0  0  0  0  0  0  0  0  0  0
   -0.9201  -52.7050  -17.5322 C   0  0  0  0  0  0  0  0  0  0  0  0
   -0.2850  -52.0848  -18.5808 C   0  0  0  0  0  0  0  0  0  0  0  0
   -0.0354  -52.3955  -19.8369 O   0  0  0  0  0  0  0  0  0  0  0  0
    2.9491  -50.1160  -26.5907 C   0  0  0  0  0  0  0  0  0  0  0  0
    3.9355  -49.3598  -25.7621 C   0  0  0  0  0  0  0  0  0  0  0  0
    5.0754  -48.8450  -26.5068 C   0  0  0  0  0  0  0  0  0  0  0  0
    5.0809  -47.3376  -26.6933 C   0  0  0  0  0  0  0  0  0  0  0  0
    3.7411  -46.8459  -26.6456 N   0  0  0  0  0  0  0  0  0  0  0  0
    3.2595  -46.9551  -25.2125 C   0  0  0  0  0  0  0  0  0  0  0  0
    3.1688  -48.3968  -24.9134 C   0  0  0  0  0  0  0  0  0  0  0  0
    2.8722  -46.3738  -27.6086 C   0  0  0  0  0  0  0  0  0  0  0  0
    1.7103  -45.9015  -27.1498 O   0  0  0  0  0  0  0  0  0  0  0  0
    3.0024  -46.3054  -29.0201 C   0  0  0  0  0  0  0  0  0  0  0  0
    2.1823  -45.8487  -29.8946 C   0  0  0  0  0  0  0  0  0  0  0  0
  1  2  1  0  0  0
  2  3  2  0  0  0
  3  4  1  0  0  0
  4  5  2  0  0  0
  5  6  1  0  0  0
  6  7  1  0  0  0
  7 27  1  0  0  0
 27 28  1  0  0  0
 28 29  1  0  0  0
 29 30  1  0  0  0
 30 31  1  0  0  0
 31 32  1  0  0  0
 32 33  1  0  0  0
 31 34  1  0  0  0
 34 35  2  0  0  0
 34 36  1  0  0  0
 36 37  2  0  0  0
  7  8  1  0  0  0
  8  9  2  0  0  0
  9 13  1  0  0  0
 13 14  2  0  0  0
 13 15  1  0  0  0
 15 17  1  0  0  0
 17 18  2  0  0  0
 18 19  1  0  0  0
 19 20  2  0  0  0
 20 21  1  0  0  0
 21 22  1  0  0  0
 21 23  2  0  0  0
 23 24  1  0  0  0
 24 25  2  0  0  0
 25 26  1  0  0  0
  9 10  1  0  0  0
 10  2  1  0  0  0
 10  6  2  0  0  0
 33 28  1  0  0  0
 26 17  1  0  0  0
 25 19  1  0  0  0
  1 11  1  0  0  0
  1 12  1  0  0  0
 15 16  1  0  0  0
M  END
> <minimizedAffinity>
-8.37988

> <CNNscore>
0.2595947087

> <CNNaffinity>
6.9474611282

> <CNN_VS>
1.8035241365

> <CNNaffinity_variance>
0.3823966086

$$$$
[H]C([H])=C([H])C(=O)N1C([H])([H])C([H])([H])C([H])(C([H])([H])n2nc(C(=O)N([H])c3nc4c([H])c(Cl)c([H])c([H])c4o3)c3c(N([H])[H])nc([H])nc32)C([H])([H])C1([H])[H]


 37 41  0  0  0  0  0  0  0  0999 V2000
   -1.3843  -53.4880  -18.9888 N   0  0  0  0  0  0  0  0  0  0  0  0
   -0.7219  -52.5768  -18.1656 C   0  0  0  0  0  0  0  0  0  0  0  0
   -0.8832  -52.7272  -16.8273 N   0  0  0  0  0  0  0  0  0  0  0  0
   -0.3128  -51.9126  -15.9632 C   0  0  0  0  0  0  0  0  0  0  0  0
    0.4370  -50.9211  -16.4188 N   0  0  0  0  0  0  0  0  0  0  0  0
    0.6406  -50.7126  -17.7472 C   0  0  0  0  0  0  0  0  0  0  0  0
    1.3476  -49.8081  -18.4380 N   0  0  0  0  0  0  0  0  0  0  0  0
    1.2084  -50.0763  -19.7334 N   0  0  0  0  0  0  0  0  0  0  0  0
    0.4075  -51.1608  -19.9256 C   0  0  0  0  0  0  0  0  0  0  0  0
    0.0414  -51.5722  -18.6844 C   0  0  0  0  0  0  0  0  0  0  0  0
   -2.3306  -53.2636  -19.3634 H   0  0  0  0  0  0  0  0  0  0  0  0
   -0.9737  -54.4097  -19.2387 H   0  0  0  0  0  0  0  0  0  0  0  0
    0.0496  -51.6983  -21.2380 C   0  0  0  0  0  0  0  0  0  0  0  0
   -1.0772  -52.0413  -21.6130 O   0  0  0  0  0  0  0  0  0  0  0  0
    1.0918  -51.8575  -22.2250 N   0  0  0  0  0  0  0  0  0  0  0  0
    2.0459  -51.5881  -21.9660 H   0  0  0  0  0  0  0  0  0  0  0  0
    0.8074  -52.3651  -23.5070 C   0  0  0  0  0  0  0  0  0  0  0  0
    0.5861  -51.5700  -24.5907 N   0  0  0  0  0  0  0  0  0  0  0  0
    0.3457  -52.3217  -25.6521 C   0  0  0  0  0  0  0  0  0  0  0  0
    0.0641  -51.9999  -26.9819 C   0  0  0  0  0  0  0  0  0  0  0  0
   -0.1457  -53.0055  -27.8836 C   0  0  0  0  0  0  0  0  0  0  0  0
   -0.4970  -52.5866  -29.5433 Cl  0  0  0  0  0  0  0  0  0  0  0  0
   -0.0701  -54.3088  -27.4394 C   0  0  0  0  0  0  0  0  0  0  0  0
    0.2074  -54.6364  -26.1293 C   0  0  0  0  0  0  0  0  0  0  0  0
    0.4190  -53.6294  -25.2190 C   0  0  0  0  0  0  0  0  0  0  0  0
    0.6972  -53.5772  -23.9320 O   0  0  0  0  0  0  0  0  0  0  0  0
    2.1091  -48.6995  -17.9446 C   0  0  0  0  0  0  0  0  0  0  0  0
    3.5956  -48.8417  -17.9064 C   0  0  0  0  0  0  0  0  0  0  0  0
    4.1138  -49.9434  -18.7043 C   0  0  0  0  0  0  0  0  0  0  0  0
    4.8532  -49.5209  -19.9620 C   0  0  0  0  0  0  0  0  0  0  0  0
    4.3739  -48.2464  -20.3920 N   0  0  0  0  0  0  0  0  0  0  0  0
    4.8715  -47.2087  -19.4053 C   0  0  0  0  0  0  0  0  0  0  0  0
    4.1853  -47.4860  -18.1293 C   0  0  0  0  0  0  0  0  0  0  0  0
    3.5662  -47.8428  -21.4359 C   0  0  0  0  0  0  0  0  0  0  0  0
    3.4211  -46.5221  -21.5705 O   0  0  0  0  0  0  0  0  0  0  0  0
    2.8530  -48.5999  -22.4014 C   0  0  0  0  0  0  0  0  0  0  0  0
    3.2936  -49.2622  -23.4079 C   0  0  0  0  0  0  0  0  0  0  0  0
  1  2  1  0  0  0
  2  3  2  0  0  0
  3  4  1  0  0  0
  4  5  2  0  0  0
  5  6  1  0  0  0
  6  7  1  0  0  0
  7 27  1  0  0  0
 27 28  1  0  0  0
 28 29  1  0  0  0
 29 30  1  0  0  0
 30 31  1  0  0  0
 31 32  1  0  0  0
 32 33  1  0  0  0
 31 34  1  0  0  0
 34 35  2  0  0  0
 34 36  1  0  0  0
 36 37  2  0  0  0
  7  8  1  0  0  0
  8  9  2  0  0  0
  9 13  1  0  0  0
 13 14  2  0  0  0
 13 15  1  0  0  0
 15 17  1  0  0  0
 17 18  2  0  0  0
 18 19  1  0  0  0
 19 20  2  0  0  0
 20 21  1  0  0  0
 21 22  1  0  0  0
 21 23  2  0  0  0
 23 24  1  0  0  0
 24 25  2  0  0  0
 25 26  1  0  0  0
  9 10  1  0  0  0
 10  2  1  0  0  0
 10  6  2  0  0  0
 33 28  1  0  0  0
 26 17  1  0  0  0
 25 19  1  0  0  0
  1 11  1  0  0  0
  1 12  1  0  0  0
 15 16  1  0  0  0
M  END
> <minimizedAffinity>
-8.25849

> <CNNscore>
0.2559698522

> <CNNaffinity>
7.0303854942

> <CNN_VS>
1.7995667458

> <CNNaffinity_variance>
0.3456283212

$$$$
[H]c1nc(N([H])c2c([H])c([H])c(OC([H])([H])c3c([H])c([H])c([H])c(F)c3[H])c(Cl)c2[H])c(C#CC([H])([H])C([H])([H])C([H])([H])N2C([H])([H])C([H])([H])OC([H])([H])C2([H])[H])c(C([H])([H])[H])n1


 36 39  0  0  0  0  0  0  0  0999 V2000
    0.0531  -54.0946  -26.7773 C   0  0  0  0  0  0  0  0  0  0  0  0
   -0.2276  -54.1229  -25.3078 C   0  0  0  0  0  0  0  0  0  0  0  0
   -0.9681  -55.0742  -24.7265 N   0  0  0  0  0  0  0  0  0  0  0  0
   -1.2049  -55.0719  -23.3886 C   0  0  0  0  0  0  0  0  0  0  0  0
   -0.6837  -54.0933  -22.6349 N   0  0  0  0  0  0  0  0  0  0  0  0
    0.0702  -53.0946  -23.1133 C   0  0  0  0  0  0  0  0  0  0  0  0
    0.2927  -53.1338  -24.5096 C   0  0  0  0  0  0  0  0  0  0  0  0
    0.6188  -52.0452  -22.3913 N   0  0  0  0  0  0  0  0  0  0  0  0
    1.1915  -51.3265  -22.9217 H   0  0  0  0  0  0  0  0  0  0  0  0
    0.4833  -51.8483  -21.0086 C   0  0  0  0  0  0  0  0  0  0  0  0
   -0.1577  -52.6761  -20.1351 C   0  0  0  0  0  0  0  0  0  0  0  0
   -0.2778  -52.4124  -18.7693 C   0  0  0  0  0  0  0  0  0  0  0  0
    0.2544  -51.2837  -18.2201 C   0  0  0  0  0  0  0  0  0  0  0  0
    0.9213  -50.4096  -19.0878 C   0  0  0  0  0  0  0  0  0  0  0  0
    1.6106  -48.9473  -18.3750 Cl  0  0  0  0  0  0  0  0  0  0  0  0
    1.0276  -50.6833  -20.4163 C   0  0  0  0  0  0  0  0  0  0  0  0
    0.1661  -50.9676  -16.8718 O   0  0  0  0  0  0  0  0  0  0  0  0
   -0.5080  -51.7181  -15.9017 C   0  0  0  0  0  0  0  0  0  0  0  0
   -1.9345  -51.4009  -15.7711 C   0  0  0  0  0  0  0  0  0  0  0  0
   -2.2937  -50.2056  -15.1668 C   0  0  0  0  0  0  0  0  0  0  0  0
   -3.6191  -49.8781  -15.0280 C   0  0  0  0  0  0  0  0  0  0  0  0
   -4.5837  -50.7442  -15.4925 C   0  0  0  0  0  0  0  0  0  0  0  0
   -4.2556  -51.9300  -16.0924 C   0  0  0  0  0  0  0  0  0  0  0  0
   -5.2240  -52.7478  -16.5323 F   0  0  0  0  0  0  0  0  0  0  0  0
   -2.9296  -52.2590  -16.2320 C   0  0  0  0  0  0  0  0  0  0  0  0
    1.0852  -52.1107  -25.1102 C   0  0  0  0  0  0  0  0  0  0  0  0
    1.7666  -51.2456  -25.6001 C   0  0  0  0  0  0  0  0  0  0  0  0
    2.5997  -50.2132  -26.1686 C   0  0  0  0  0  0  0  0  0  0  0  0
    3.1181  -49.2452  -25.1226 C   0  0  0  0  0  0  0  0  0  0  0  0
    4.0973  -49.8828  -24.1903 C   0  0  0  0  0  0  0  0  0  0  0  0
    3.5964  -50.1214  -22.8755 N   0  0  0  0  0  0  0  0  0  0  0  0
    4.1020  -51.3643  -22.3852 C   0  0  0  0  0  0  0  0  0  0  0  0
    5.3728  -51.2592  -21.6081 C   0  0  0  0  0  0  0  0  0  0  0  0
    5.2928  -50.2748  -20.6161 O   0  0  0  0  0  0  0  0  0  0  0  0
    5.1674  -49.0514  -21.3148 C   0  0  0  0  0  0  0  0  0  0  0  0
    3.7921  -49.0702  -21.9418 C   0  0  0  0  0  0  0  0  0  0  0  0
  1  2  1  0  0  0
  2  3  2  0  0  0
  3  4  1  0  0  0
  4  5  2  0  0  0
  5  6  1  0  0  0
  6  8  1  0  0  0
  8 10  1  0  0  0
 10 11  2  0  0  0
 11 12  1  0  0  0
 12 13  2  0  0  0
 13 17  1  0  0  0
 17 18  1  0  0  0
 18 19  1  0  0  0
 19 20  2  0  0  0
 20 21  1  0  0  0
 21 22  2  0  0  0
 22 23  1  0  0  0
 23 24  1  0  0  0
 23 25  2  0  0  0
 13 14  1  0  0  0
 14 15  1  0  0  0
 14 16  2  0  0  0
  6  7  2  0  0  0
  7 26  1  0  0  0
 26 27  3  0  0  0
 27 28  1  0  0  0
 28 29  1  0  0  0
 29 30  1  0  0  0
 30 31  1  0  0  0
 31 32  1  0  0  0
 32 33  1  0  0  0
 33 34  1  0  0  0
 34 35  1  0  0  0
 35 36  1  0  0  0
  7  2  1  0  0  0
 36 31  1  0  0  0
 16 10  1  0  0  0
 25 19  1  0  0  0
  8  9  1  0  0  0
M  END
> <minimizedAffinity>
-7.95368

> <CNNscore>
0.5638483763

> <CNNaffinity>
7.3688306808

> <CNN_VS>
4.1549034119

> <CNNaffinity_variance>
0.2301892042

$$$$
[H]c1nc(N([H])c2c([H])c([H])c(OC([H])([H])c3c([H])c([H])c([H])c(F)c3[H])c(Cl)c2[H])c(C#CC([H])([H])C([H])([H])C([H])([H])N2C([H])([H])C([H])([H])OC([H])([H])C2([H])[H])c(C([H])([H])[H])n1


 36 39  0  0  0  0  0  0  0  0999 V2000
   -1.0573  -55.6465  -23.9777 C   0  0  0  0  0  0  0  0  0  0  0  0
   -0.9432  -54.6055  -22.9090 C   0  0  0  0  0  0  0  0  0  0  0  0
   -1.4742  -54.7534  -21.6894 N   0  0  0  0  0  0  0  0  0  0  0  0
   -1.3531  -53.7890  -20.7400 C   0  0  0  0  0  0  0  0  0  0  0  0
   -0.6858  -52.6639  -21.0336 N   0  0  0  0  0  0  0  0  0  0  0  0
   -0.1166  -52.4138  -22.2203 C   0  0  0  0  0  0  0  0  0  0  0  0
   -0.2655  -53.4422  -23.1798 C   0  0  0  0  0  0  0  0  0  0  0  0
    0.5666  -51.2650  -22.5911 N   0  0  0  0  0  0  0  0  0  0  0  0
    0.5815  -51.0097  -23.6208 H   0  0  0  0  0  0  0  0  0  0  0  0
    1.2468  -50.4033  -21.7173 C   0  0  0  0  0  0  0  0  0  0  0  0
    0.7449  -49.2702  -21.1488 C   0  0  0  0  0  0  0  0  0  0  0  0
    1.4822  -48.4401  -20.3022 C   0  0  0  0  0  0  0  0  0  0  0  0
    2.7779  -48.7256  -19.9886 C   0  0  0  0  0  0  0  0  0  0  0  0
    3.3273  -49.8832  -20.5543 C   0  0  0  0  0  0  0  0  0  0  0  0
    5.0064  -50.2522  -20.1472 Cl  0  0  0  0  0  0  0  0  0  0  0  0
    2.5932  -50.6796  -21.3778 C   0  0  0  0  0  0  0  0  0  0  0  0
    3.5601  -47.9388  -19.1552 O   0  0  0  0  0  0  0  0  0  0  0  0
    3.2704  -47.6263  -17.8222 C   0  0  0  0  0  0  0  0  0  0  0  0
    2.7897  -48.7591  -17.0233 C   0  0  0  0  0  0  0  0  0  0  0  0
    3.6655  -49.8014  -16.7596 C   0  0  0  0  0  0  0  0  0  0  0  0
    3.2483  -50.8766  -16.0159 C   0  0  0  0  0  0  0  0  0  0  0  0
    1.9577  -50.9097  -15.5367 C   0  0  0  0  0  0  0  0  0  0  0  0
    1.0738  -49.8940  -15.7829 C   0  0  0  0  0  0  0  0  0  0  0  0
   -0.1757  -49.9622  -15.2990 F   0  0  0  0  0  0  0  0  0  0  0  0
    1.4900  -48.8174  -16.5270 C   0  0  0  0  0  0  0  0  0  0  0  0
    0.3083  -53.2655  -24.4741 C   0  0  0  0  0  0  0  0  0  0  0  0
    0.7759  -53.1053  -25.5733 C   0  0  0  0  0  0  0  0  0  0  0  0
    1.3184  -52.8957  -26.8943 C   0  0  0  0  0  0  0  0  0  0  0  0
    2.6120  -52.1045  -26.8708 C   0  0  0  0  0  0  0  0  0  0  0  0
    2.5642  -50.9610  -25.9092 C   0  0  0  0  0  0  0  0  0  0  0  0
    3.7605  -50.1851  -25.8496 N   0  0  0  0  0  0  0  0  0  0  0  0
    3.7226  -49.1634  -26.8472 C   0  0  0  0  0  0  0  0  0  0  0  0
    3.1559  -47.8608  -26.3867 C   0  0  0  0  0  0  0  0  0  0  0  0
    3.7464  -47.4332  -25.1916 O   0  0  0  0  0  0  0  0  0  0  0  0
    3.3566  -48.3862  -24.2219 C   0  0  0  0  0  0  0  0  0  0  0  0
    4.0907  -49.6601  -24.5727 C   0  0  0  0  0  0  0  0  0  0  0  0
  1  2  1  0  0  0
  2  3  2  0  0  0
  3  4  1  0  0  0
  4  5  2  0  0  0
  5  6  1  0  0  0
  6  8  1  0  0  0
  8 10  1  0  0  0
 10 11  2  0  0  0
 11 12  1  0  0  0
 12 13  2  0  0  0
 13 17  1  0  0  0
 17 18  1  0  0  0
 18 19  1  0  0  0
 19 20  2  0  0  0
 20 21  1  0  0  0
 21 22  2  0  0  0
 22 23  1  0  0  0
 23 24  1  0  0  0
 23 25  2  0  0  0
 13 14  1  0  0  0
 14 15  1  0  0  0
 14 16  2  0  0  0
  6  7  2  0  0  0
  7 26  1  0  0  0
 26 27  3  0  0  0
 27 28  1  0  0  0
 28 29  1  0  0  0
 29 30  1  0  0  0
 30 31  1  0  0  0
 31 32  1  0  0  0
 32 33  1  0  0  0
 33 34  1  0  0  0
 34 35  1  0  0  0
 35 36  1  0  0  0
  7  2  1  0  0  0
 36 31  1  0  0  0
 16 10  1  0  0  0
 25 19  1  0  0  0
  8  9  1  0  0  0
M  END
> <minimizedAffinity>
-6.49854

> <CNNscore>
0.4425044060

> <CNNaffinity>
7.0885872841

> <CNN_VS>
3.1367311478

> <CNNaffinity_variance>
0.1530094594

$$$$
[H]c1nc(N([H])c2c([H])c([H])c(OC([H])([H])c3c([H])c([H])c([H])c(F)c3[H])c(Cl)c2[H])c(C#CC([H])([H])C([H])([H])C([H])([H])N2C([H])([H])C([H])([H])OC([H])([H])C2([H])[H])c(C([H])([H])[H])n1


 36 39  0  0  0  0  0  0  0  0999 V2000
   -1.1228  -55.1101  -23.7332 C   0  0  0  0  0  0  0  0  0  0  0  0
   -1.0097  -54.3521  -22.4480 C   0  0  0  0  0  0  0  0  0  0  0  0
   -1.8000  -54.5855  -21.3935 N   0  0  0  0  0  0  0  0  0  0  0  0
   -1.6721  -53.8795  -20.2397 C   0  0  0  0  0  0  0  0  0  0  0  0
   -0.7318  -52.9275  -20.1575 N   0  0  0  0  0  0  0  0  0  0  0  0
    0.1103  -52.6131  -21.1508 C   0  0  0  0  0  0  0  0  0  0  0  0
   -0.0558  -53.3707  -22.3335 C   0  0  0  0  0  0  0  0  0  0  0  0
    1.0869  -51.6282  -21.1349 N   0  0  0  0  0  0  0  0  0  0  0  0
    1.6084  -51.4348  -22.0384 H   0  0  0  0  0  0  0  0  0  0  0  0
    1.4503  -50.8587  -20.0193 C   0  0  0  0  0  0  0  0  0  0  0  0
    1.0114  -49.6006  -19.7297 C   0  0  0  0  0  0  0  0  0  0  0  0
    1.4292  -48.8763  -18.6116 C   0  0  0  0  0  0  0  0  0  0  0  0
    2.3211  -49.4018  -17.7245 C   0  0  0  0  0  0  0  0  0  0  0  0
    2.7936  -50.6934  -17.9896 C   0  0  0  0  0  0  0  0  0  0  0  0
    3.9494  -51.3734  -16.8393 Cl  0  0  0  0  0  0  0  0  0  0  0  0
    2.3753  -51.3837  -19.0849 C   0  0  0  0  0  0  0  0  0  0  0  0
    2.7735  -48.7302  -16.5976 O   0  0  0  0  0  0  0  0  0  0  0  0
    2.0894  -48.6278  -15.3810 C   0  0  0  0  0  0  0  0  0  0  0  0
    2.2204  -49.8011  -14.5098 C   0  0  0  0  0  0  0  0  0  0  0  0
    3.3145  -49.8761  -13.6613 C   0  0  0  0  0  0  0  0  0  0  0  0
    3.4679  -50.9599  -12.8336 C   0  0  0  0  0  0  0  0  0  0  0  0
    2.5290  -51.9670  -12.8543 C   0  0  0  0  0  0  0  0  0  0  0  0
    1.4402  -51.9171  -13.6823 C   0  0  0  0  0  0  0  0  0  0  0  0
    0.5467  -52.9179  -13.6740 F   0  0  0  0  0  0  0  0  0  0  0  0
    1.2855  -50.8331  -14.5112 C   0  0  0  0  0  0  0  0  0  0  0  0
    0.7970  -53.1069  -23.4465 C   0  0  0  0  0  0  0  0  0  0  0  0
    1.5080  -52.8653  -24.3892 C   0  0  0  0  0  0  0  0  0  0  0  0
    2.3525  -52.5517  -25.5170 C   0  0  0  0  0  0  0  0  0  0  0  0
    2.6230  -51.0648  -25.6428 C   0  0  0  0  0  0  0  0  0  0  0  0
    3.9993  -50.6948  -25.1918 C   0  0  0  0  0  0  0  0  0  0  0  0
    4.4270  -51.3450  -23.9956 N   0  0  0  0  0  0  0  0  0  0  0  0
    5.7833  -51.7707  -24.1367 C   0  0  0  0  0  0  0  0  0  0  0  0
    6.8001  -50.7849  -23.6633 C   0  0  0  0  0  0  0  0  0  0  0  0
    6.5074  -50.3169  -22.3768 O   0  0  0  0  0  0  0  0  0  0  0  0
    5.3011  -49.5906  -22.5104 C   0  0  0  0  0  0  0  0  0  0  0  0
    4.2277  -50.6163  -22.7938 C   0  0  0  0  0  0  0  0  0  0  0  0
  1  2  1  0  0  0
  2  3  2  0  0  0
  3  4  1  0  0  0
  4  5  2  0  0  0
  5  6  1  0  0  0
  6  8  1  0  0  0
  8 10  1  0  0  0
 10 11  2  0  0  0
 11 12  1  0  0  0
 12 13  2  0  0  0
 13 17  1  0  0  0
 17 18  1  0  0  0
 18 19  1  0  0  0
 19 20  2  0  0  0
 20 21  1  0  0  0
 21 22  2  0  0  0
 22 23  1  0  0  0
 23 24  1  0  0  0
 23 25  2  0  0  0
 13 14  1  0  0  0
 14 15  1  0  0  0
 14 16  2  0  0  0
  6  7  2  0  0  0
  7 26  1  0  0  0
 26 27  3  0  0  0
 27 28  1  0  0  0
 28 29  1  0  0  0
 29 30  1  0  0  0
 30 31  1  0  0  0
 31 32  1  0  0  0
 32 33  1  0  0  0
 33 34  1  0  0  0
 34 35  1  0  0  0
 35 36  1  0  0  0
  7  2  1  0  0  0
 36 31  1  0  0  0
 16 10  1  0  0  0
 25 19  1  0  0  0
  8  9  1  0  0  0
M  END
> <minimizedAffinity>
-6.49811

> <CNNscore>
0.4028262794

> <CNNaffinity>
7.1768226624

> <CNN_VS>
2.8910126686

> <CNNaffinity_variance>
0.2382729053

$$$$
[H]c1nc(N([H])c2c([H])c([H])c(OC([H])([H])c3c([H])c([H])c([H])c(F)c3[H])c(Cl)c2[H])c(C#CC([H])([H])C([H])([H])C([H])([H])N2C([H])([H])C([H])([H])OC([H])([H])C2([H])[H])c(C([H])([H])[H])n1


 36 39  0  0  0  0  0  0  0  0999 V2000
   -0.3658  -49.4654  -15.4825 C   0  0  0  0  0  0  0  0  0  0  0  0
   -1.0449  -50.6579  -16.0788 C   0  0  0  0  0  0  0  0  0  0  0  0
   -2.2681  -51.0582  -15.7116 N   0  0  0  0  0  0  0  0  0  0  0  0
   -2.8579  -52.1461  -16.2724 C   0  0  0  0  0  0  0  0  0  0  0  0
   -2.1978  -52.8332  -17.2155 N   0  0  0  0  0  0  0  0  0  0  0  0
   -0.9720  -52.5203  -17.6561 C   0  0  0  0  0  0  0  0  0  0  0  0
   -0.3938  -51.3821  -17.0472 C   0  0  0  0  0  0  0  0  0  0  0  0
   -0.2306  -53.2010  -18.6105 N   0  0  0  0  0  0  0  0  0  0  0  0
    0.4573  -53.9342  -18.2713 H   0  0  0  0  0  0  0  0  0  0  0  0
   -0.3096  -53.0035  -19.9974 C   0  0  0  0  0  0  0  0  0  0  0  0
   -0.0787  -51.8344  -20.6600 C   0  0  0  0  0  0  0  0  0  0  0  0
   -0.1958  -51.6964  -22.0444 C   0  0  0  0  0  0  0  0  0  0  0  0
   -0.5556  -52.7511  -22.8299 C   0  0  0  0  0  0  0  0  0  0  0  0
   -0.8002  -53.9692  -22.1832 C   0  0  0  0  0  0  0  0  0  0  0  0
   -1.2664  -55.3353  -23.2020 Cl  0  0  0  0  0  0  0  0  0  0  0  0
   -0.6816  -54.0843  -20.8327 C   0  0  0  0  0  0  0  0  0  0  0  0
   -0.6893  -52.6744  -24.2089 O   0  0  0  0  0  0  0  0  0  0  0  0
    0.3621  -52.5415  -25.1230 C   0  0  0  0  0  0  0  0  0  0  0  0
   -0.0403  -52.6407  -26.5304 C   0  0  0  0  0  0  0  0  0  0  0  0
    0.9443  -52.8320  -27.4880 C   0  0  0  0  0  0  0  0  0  0  0  0
    0.6026  -52.9286  -28.8136 C   0  0  0  0  0  0  0  0  0  0  0  0
   -0.7211  -52.8340  -29.1812 C   0  0  0  0  0  0  0  0  0  0  0  0
   -1.7119  -52.6452  -28.2558 C   0  0  0  0  0  0  0  0  0  0  0  0
   -2.9905  -52.5580  -28.6526 F   0  0  0  0  0  0  0  0  0  0  0  0
   -1.3714  -52.5484  -26.9289 C   0  0  0  0  0  0  0  0  0  0  0  0
    0.9109  -50.9714  -17.4529 C   0  0  0  0  0  0  0  0  0  0  0  0
    2.0144  -50.6414  -17.8080 C   0  0  0  0  0  0  0  0  0  0  0  0
    3.3346  -50.2630  -18.2522 C   0  0  0  0  0  0  0  0  0  0  0  0
    3.3585  -49.8474  -19.7105 C   0  0  0  0  0  0  0  0  0  0  0  0
    3.5810  -51.0047  -20.6302 C   0  0  0  0  0  0  0  0  0  0  0  0
    3.2911  -50.7373  -22.0017 N   0  0  0  0  0  0  0  0  0  0  0  0
    3.8590  -49.4818  -22.3786 C   0  0  0  0  0  0  0  0  0  0  0  0
    5.2368  -49.5649  -22.9485 C   0  0  0  0  0  0  0  0  0  0  0  0
    5.3201  -50.5264  -23.9625 O   0  0  0  0  0  0  0  0  0  0  0  0
    5.0948  -51.7660  -23.3197 C   0  0  0  0  0  0  0  0  0  0  0  0
    3.6381  -51.7661  -22.9162 C   0  0  0  0  0  0  0  0  0  0  0  0
  1  2  1  0  0  0
  2  3  2  0  0  0
  3  4  1  0  0  0
  4  5  2  0  0  0
  5  6  1  0  0  0
  6  8  1  0  0  0
  8 10  1  0  0  0
 10 11  2  0  0  0
 11 12  1  0  0  0
 12 13  2  0  0  0
 13 17  1  0  0  0
 17 18  1  0  0  0
 18 19  1  0  0  0
 19 20  2  0  0  0
 20 21  1  0  0  0
 21 22  2  0  0  0
 22 23  1  0  0  0
 23 24  1  0  0  0
 23 25  2  0  0  0
 13 14  1  0  0  0
 14 15  1  0  0  0
 14 16  2  0  0  0
  6  7  2  0  0  0
  7 26  1  0  0  0
 26 27  3  0  0  0
 27 28  1  0  0  0
 28 29  1  0  0  0
 29 30  1  0  0  0
 30 31  1  0  0  0
 31 32  1  0  0  0
 32 33  1  0  0  0
 33 34  1  0  0  0
 34 35  1  0  0  0
 35 36  1  0  0  0
  7  2  1  0  0  0
 36 31  1  0  0  0
 16 10  1  0  0  0
 25 19  1  0  0  0
  8  9  1  0  0  0
M  END
> <minimizedAffinity>
-8.33372

> <CNNscore>
0.3797695935

> <CNNaffinity>
7.1949119568

> <CNN_VS>
2.7324087620

> <CNNaffinity_variance>
0.2877174020

$$$$
[H]c1nc(N([H])c2c([H])c([H])c(OC([H])([H])c3c([H])c([H])c([H])c(F)c3[H])c(Cl)c2[H])c(C#CC([H])([H])C([H])([H])C([H])([H])N2C([H])([H])C([H])([H])OC([H])([H])C2([H])[H])c(C([H])([H])[H])n1


 36 39  0  0  0  0  0  0  0  0999 V2000
    0.9386  -54.2364  -27.2585 C   0  0  0  0  0  0  0  0  0  0  0  0
    0.2833  -54.2823  -25.9141 C   0  0  0  0  0  0  0  0  0  0  0  0
   -0.4385  -55.3272  -25.4915 N   0  0  0  0  0  0  0  0  0  0  0  0
   -1.0213  -55.3383  -24.2643 C   0  0  0  0  0  0  0  0  0  0  0  0
   -0.8686  -54.2772  -23.4592 N   0  0  0  0  0  0  0  0  0  0  0  0
   -0.1685  -53.1817  -23.7819 C   0  0  0  0  0  0  0  0  0  0  0  0
    0.4217  -53.2102  -25.0670 C   0  0  0  0  0  0  0  0  0  0  0  0
    0.0084  -52.0469  -23.0043 N   0  0  0  0  0  0  0  0  0  0  0  0
    0.1884  -51.1284  -23.5041 H   0  0  0  0  0  0  0  0  0  0  0  0
   -0.0289  -52.0055  -21.6023 C   0  0  0  0  0  0  0  0  0  0  0  0
   -0.5918  -52.9383  -20.7825 C   0  0  0  0  0  0  0  0  0  0  0  0
   -0.6160  -52.8282  -19.3909 C   0  0  0  0  0  0  0  0  0  0  0  0
   -0.0623  -51.7544  -18.7592 C   0  0  0  0  0  0  0  0  0  0  0  0
    0.5262  -50.7755  -19.5699 C   0  0  0  0  0  0  0  0  0  0  0  0
    1.2435  -49.3844  -18.7503 Cl  0  0  0  0  0  0  0  0  0  0  0  0
    0.5395  -50.8999  -20.9247 C   0  0  0  0  0  0  0  0  0  0  0  0
   -0.0569  -51.5896  -17.3814 O   0  0  0  0  0  0  0  0  0  0  0  0
   -0.8111  -52.3360  -16.4688 C   0  0  0  0  0  0  0  0  0  0  0  0
   -2.0880  -51.7210  -16.0895 C   0  0  0  0  0  0  0  0  0  0  0  0
   -3.2629  -52.3817  -16.4148 C   0  0  0  0  0  0  0  0  0  0  0  0
   -4.4746  -51.8342  -16.0753 C   0  0  0  0  0  0  0  0  0  0  0  0
   -4.5115  -50.6281  -15.4118 C   0  0  0  0  0  0  0  0  0  0  0  0
   -3.3666  -49.9558  -15.0792 C   0  0  0  0  0  0  0  0  0  0  0  0
   -3.4431  -48.7828  -14.4325 F   0  0  0  0  0  0  0  0  0  0  0  0
   -2.1533  -50.5026  -15.4184 C   0  0  0  0  0  0  0  0  0  0  0  0
    1.1876  -52.0866  -25.4987 C   0  0  0  0  0  0  0  0  0  0  0  0
    1.8176  -51.1252  -25.8615 C   0  0  0  0  0  0  0  0  0  0  0  0
    2.5532  -49.9589  -26.2880 C   0  0  0  0  0  0  0  0  0  0  0  0
    3.3699  -49.3466  -25.1664 C   0  0  0  0  0  0  0  0  0  0  0  0
    3.3607  -47.8522  -25.2037 C   0  0  0  0  0  0  0  0  0  0  0  0
    3.8522  -47.2257  -24.0194 N   0  0  0  0  0  0  0  0  0  0  0  0
    5.1255  -46.6333  -24.2803 C   0  0  0  0  0  0  0  0  0  0  0  0
    5.0736  -45.2043  -24.7107 C   0  0  0  0  0  0  0  0  0  0  0  0
    4.2804  -44.4339  -23.8522 O   0  0  0  0  0  0  0  0  0  0  0  0
    2.9662  -44.9315  -24.0128 C   0  0  0  0  0  0  0  0  0  0  0  0
    2.9656  -46.3105  -23.3938 C   0  0  0  0  0  0  0  0  0  0  0  0
  1  2  1  0  0  0
  2  3  2  0  0  0
  3  4  1  0  0  0
  4  5  2  0  0  0
  5  6  1  0  0  0
  6  8  1  0  0  0
  8 10  1  0  0  0
 10 11  2  0  0  0
 11 12  1  0  0  0
 12 13  2  0  0  0
 13 17  1  0  0  0
 17 18  1  0  0  0
 18 19  1  0  0  0
 19 20  2  0  0  0
 20 21  1  0  0  0
 21 22  2  0  0  0
 22 23  1  0  0  0
 23 24  1  0  0  0
 23 25  2  0  0  0
 13 14  1  0  0  0
 14 15  1  0  0  0
 14 16  2  0  0  0
  6  7  2  0  0  0
  7 26  1  0  0  0
 26 27  3  0  0  0
 27 28  1  0  0  0
 28 29  1  0  0  0
 29 30  1  0  0  0
 30 31  1  0  0  0
 31 32  1  0  0  0
 32 33  1  0  0  0
 33 34  1  0  0  0
 34 35  1  0  0  0
 35 36  1  0  0  0
  7  2  1  0  0  0
 36 31  1  0  0  0
 16 10  1  0  0  0
 25 19  1  0  0  0
  8  9  1  0  0  0
M  END
> <minimizedAffinity>
-7.65318

> <CNNscore>
0.3125195801

> <CNNaffinity>
7.1106886864

> <CNN_VS>
2.2222294807

> <CNNaffinity_variance>
0.1144870296

$$$$
[H]c1nc(N([H])c2c([H])c([H])c(OC([H])([H])c3c([H])c([H])c([H])c(F)c3[H])c(Cl)c2[H])c(C#CC([H])([H])C([H])([H])C([H])([H])N2C([H])([H])C([H])([H])OC([H])([H])C2([H])[H])c(C([H])([H])[H])n1


 36 39  0  0  0  0  0  0  0  0999 V2000
   -1.1422  -55.5630  -23.6194 C   0  0  0  0  0  0  0  0  0  0  0  0
   -1.0355  -54.5083  -22.5634 C   0  0  0  0  0  0  0  0  0  0  0  0
   -1.6756  -54.5855  -21.3905 N   0  0  0  0  0  0  0  0  0  0  0  0
   -1.5582  -53.6105  -20.4515 C   0  0  0  0  0  0  0  0  0  0  0  0
   -0.7828  -52.5473  -20.7076 N   0  0  0  0  0  0  0  0  0  0  0  0
   -0.0995  -52.3703  -21.8463 C   0  0  0  0  0  0  0  0  0  0  0  0
   -0.2487  -53.4072  -22.7966 C   0  0  0  0  0  0  0  0  0  0  0  0
    0.7000  -51.2866  -22.1784 N   0  0  0  0  0  0  0  0  0  0  0  0
    0.8987  -51.1159  -23.2066 H   0  0  0  0  0  0  0  0  0  0  0  0
    1.2754  -50.3885  -21.2668 C   0  0  0  0  0  0  0  0  0  0  0  0
    1.1414  -49.0316  -21.2776 C   0  0  0  0  0  0  0  0  0  0  0  0
    1.7597  -48.1881  -20.3527 C   0  0  0  0  0  0  0  0  0  0  0  0
    2.5509  -48.6884  -19.3616 C   0  0  0  0  0  0  0  0  0  0  0  0
    2.7112  -50.0792  -19.3190 C   0  0  0  0  0  0  0  0  0  0  0  0
    3.7368  -50.7265  -18.0342 Cl  0  0  0  0  0  0  0  0  0  0  0  0
    2.1010  -50.8852  -20.2295 C   0  0  0  0  0  0  0  0  0  0  0  0
    3.1917  -47.9007  -18.4158 O   0  0  0  0  0  0  0  0  0  0  0  0
    4.0578  -46.8370  -18.6934 C   0  0  0  0  0  0  0  0  0  0  0  0
    5.2307  -47.2022  -19.4956 C   0  0  0  0  0  0  0  0  0  0  0  0
    5.4127  -46.5812  -20.7220 C   0  0  0  0  0  0  0  0  0  0  0  0
    6.4988  -46.8997  -21.4980 C   0  0  0  0  0  0  0  0  0  0  0  0
    7.4014  -47.8376  -21.0486 C   0  0  0  0  0  0  0  0  0  0  0  0
    7.2448  -48.4650  -19.8422 C   0  0  0  0  0  0  0  0  0  0  0  0
    8.1456  -49.3735  -19.4384 F   0  0  0  0  0  0  0  0  0  0  0  0
    6.1583  -48.1472  -19.0646 C   0  0  0  0  0  0  0  0  0  0  0  0
    0.4423  -53.3064  -24.0408 C   0  0  0  0  0  0  0  0  0  0  0  0
    1.0096  -53.2106  -25.0999 C   0  0  0  0  0  0  0  0  0  0  0  0
    1.6721  -53.0785  -26.3754 C   0  0  0  0  0  0  0  0  0  0  0  0
    3.0815  -52.5344  -26.2428 C   0  0  0  0  0  0  0  0  0  0  0  0
    3.2534  -51.6856  -25.0244 C   0  0  0  0  0  0  0  0  0  0  0  0
    4.6091  -51.3785  -24.7012 N   0  0  0  0  0  0  0  0  0  0  0  0
    4.7159  -50.0043  -24.3261 C   0  0  0  0  0  0  0  0  0  0  0  0
    4.5735  -49.7430  -22.8628 C   0  0  0  0  0  0  0  0  0  0  0  0
    5.4007  -50.5800  -22.1047 O   0  0  0  0  0  0  0  0  0  0  0  0
    4.8994  -51.8862  -22.3124 C   0  0  0  0  0  0  0  0  0  0  0  0
    5.2232  -52.2323  -23.7477 C   0  0  0  0  0  0  0  0  0  0  0  0
  1  2  1  0  0  0
  2  3  2  0  0  0
  3  4  1  0  0  0
  4  5  2  0  0  0
  5  6  1  0  0  0
  6  8  1  0  0  0
  8 10  1  0  0  0
 10 11  2  0  0  0
 11 12  1  0  0  0
 12 13  2  0  0  0
 13 17  1  0  0  0
 17 18  1  0  0  0
 18 19  1  0  0  0
 19 20  2  0  0  0
 20 21  1  0  0  0
 21 22  2  0  0  0
 22 23  1  0  0  0
 23 24  1  0  0  0
 23 25  2  0  0  0
 13 14  1  0  0  0
 14 15  1  0  0  0
 14 16  2  0  0  0
  6  7  2  0  0  0
  7 26  1  0  0  0
 26 27  3  0  0  0
 27 28  1  0  0  0
 28 29  1  0  0  0
 29 30  1  0  0  0
 30 31  1  0  0  0
 31 32  1  0  0  0
 32 33  1  0  0  0
 33 34  1  0  0  0
 34 35  1  0  0  0
 35 36  1  0  0  0
  7  2  1  0  0  0
 36 31  1  0  0  0
 16 10  1  0  0  0
 25 19  1  0  0  0
  8  9  1  0  0  0
M  END
> <minimizedAffinity>
-6.59210

> <CNNscore>
0.2917742431

> <CNNaffinity>
6.8350563049

> <CNN_VS>
1.9942933321

> <CNNaffinity_variance>
0.3144486248

$$$$
[H]c1nc(N([H])c2c([H])c([H])c(OC([H])([H])c3c([H])c([H])c([H])c(F)c3[H])c(Cl)c2[H])c(C#CC([H])([H])C([H])([H])C([H])([H])N2C([H])([H])C([H])([H])OC([H])([H])C2([H])[H])c(C([H])([H])[H])n1


 36 39  0  0  0  0  0  0  0  0999 V2000
   -0.2321  -52.3173  -26.6999 C   0  0  0  0  0  0  0  0  0  0  0  0
   -0.2643  -52.9583  -25.3482 C   0  0  0  0  0  0  0  0  0  0  0  0
   -1.0662  -53.9873  -25.0497 N   0  0  0  0  0  0  0  0  0  0  0  0
   -1.0721  -54.5478  -23.8120 C   0  0  0  0  0  0  0  0  0  0  0  0
   -0.2548  -54.0573  -22.8692 N   0  0  0  0  0  0  0  0  0  0  0  0
    0.5863  -53.0323  -23.0607 C   0  0  0  0  0  0  0  0  0  0  0  0
    0.5615  -52.4778  -24.3617 C   0  0  0  0  0  0  0  0  0  0  0  0
    1.4385  -52.4675  -22.1234 N   0  0  0  0  0  0  0  0  0  0  0  0
    2.4593  -52.3529  -22.3893 H   0  0  0  0  0  0  0  0  0  0  0  0
    1.0672  -52.0311  -20.8426 C   0  0  0  0  0  0  0  0  0  0  0  0
    0.2445  -52.6858  -19.9745 C   0  0  0  0  0  0  0  0  0  0  0  0
   -0.1056  -52.1867  -18.7185 C   0  0  0  0  0  0  0  0  0  0  0  0
    0.3696  -50.9866  -18.2795 C   0  0  0  0  0  0  0  0  0  0  0  0
    1.2189  -50.2856  -19.1451 C   0  0  0  0  0  0  0  0  0  0  0  0
    1.8342  -48.7306  -18.5753 Cl  0  0  0  0  0  0  0  0  0  0  0  0
    1.5483  -50.7879  -20.3659 C   0  0  0  0  0  0  0  0  0  0  0  0
    0.0561  -50.4394  -17.0435 O   0  0  0  0  0  0  0  0  0  0  0  0
   -0.4497  -51.1442  -15.9453 C   0  0  0  0  0  0  0  0  0  0  0  0
   -1.8989  -51.0154  -15.7559 C   0  0  0  0  0  0  0  0  0  0  0  0
   -2.3866  -49.8723  -15.1409 C   0  0  0  0  0  0  0  0  0  0  0  0
   -3.7366  -49.7200  -14.9476 C   0  0  0  0  0  0  0  0  0  0  0  0
   -4.5976  -50.7089  -15.3685 C   0  0  0  0  0  0  0  0  0  0  0  0
   -4.1418  -51.8466  -15.9780 C   0  0  0  0  0  0  0  0  0  0  0  0
   -5.0118  -52.7879  -16.3743 F   0  0  0  0  0  0  0  0  0  0  0  0
   -2.7910  -52.0003  -16.1720 C   0  0  0  0  0  0  0  0  0  0  0  0
    1.4244  -51.3814  -24.6601 C   0  0  0  0  0  0  0  0  0  0  0  0
    2.1364  -50.4438  -24.9179 C   0  0  0  0  0  0  0  0  0  0  0  0
    2.9689  -49.3061  -25.2276 C   0  0  0  0  0  0  0  0  0  0  0  0
    3.5317  -49.3656  -26.6346 C   0  0  0  0  0  0  0  0  0  0  0  0
    3.9967  -48.0304  -27.1202 C   0  0  0  0  0  0  0  0  0  0  0  0
    3.3505  -46.9168  -26.5048 N   0  0  0  0  0  0  0  0  0  0  0  0
    4.3306  -45.9895  -26.0356 C   0  0  0  0  0  0  0  0  0  0  0  0
    4.6935  -44.9174  -27.0096 C   0  0  0  0  0  0  0  0  0  0  0  0
    3.5579  -44.2897  -27.5351 O   0  0  0  0  0  0  0  0  0  0  0  0
    2.8970  -45.2868  -28.2898 C   0  0  0  0  0  0  0  0  0  0  0  0
    2.3525  -46.2759  -27.2848 C   0  0  0  0  0  0  0  0  0  0  0  0
  1  2  1  0  0  0
  2  3  2  0  0  0
  3  4  1  0  0  0
  4  5  2  0  0  0
  5  6  1  0  0  0
  6  8  1  0  0  0
  8 10  1  0  0  0
 10 11  2  0  0  0
 11 12  1  0  0  0
 12 13  2  0  0  0
 13 17  1  0  0  0
 17 18  1  0  0  0
 18 19  1  0  0  0
 19 20  2  0  0  0
 20 21  1  0  0  0
 21 22  2  0  0  0
 22 23  1  0  0  0
 23 24  1  0  0  0
 23 25  2  0  0  0
 13 14  1  0  0  0
 14 15  1  0  0  0
 14 16  2  0  0  0
  6  7  2  0  0  0
  7 26  1  0  0  0
 26 27  3  0  0  0
 27 28  1  0  0  0
 28 29  1  0  0  0
 29 30  1  0  0  0
 30 31  1  0  0  0
 31 32  1  0  0  0
 32 33  1  0  0  0
 33 34  1  0  0  0
 34 35  1  0  0  0
 35 36  1  0  0  0
  7  2  1  0  0  0
 36 31  1  0  0  0
 16 10  1  0  0  0
 25 19  1  0  0  0
  8  9  1  0  0  0
M  END
> <minimizedAffinity>
-7.58092

> <CNNscore>
0.2402735949

> <CNNaffinity>
6.9707183838

> <CNN_VS>
1.6748795509

> <CNNaffinity_variance>
0.2908977866

$$$$
[H]c1nc(N([H])c2c([H])c([H])c(OC([H])([H])c3c([H])c([H])c([H])c(F)c3[H])c(Cl)c2[H])c(C#CC([H])([H])C([H])([H])C([H])([H])N2C([H])([H])C([H])([H])OC([H])([H])C2([H])[H])c(C([H])([H])[H])n1


 36 39  0  0  0  0  0  0  0  0999 V2000
   -2.7162  -52.2150  -26.9973 C   0  0  0  0  0  0  0  0  0  0  0  0
   -1.4415  -52.5250  -27.7169 C   0  0  0  0  0  0  0  0  0  0  0  0
   -1.3621  -52.6175  -29.0497 N   0  0  0  0  0  0  0  0  0  0  0  0
   -0.1889  -52.9006  -29.6737 C   0  0  0  0  0  0  0  0  0  0  0  0
    0.9138  -53.0914  -28.9355 N   0  0  0  0  0  0  0  0  0  0  0  0
    0.9460  -53.0223  -27.5980 C   0  0  0  0  0  0  0  0  0  0  0  0
   -0.2950  -52.7256  -26.9879 C   0  0  0  0  0  0  0  0  0  0  0  0
    2.0462  -53.2296  -26.7792 N   0  0  0  0  0  0  0  0  0  0  0  0
    2.3728  -54.2286  -26.6338 H   0  0  0  0  0  0  0  0  0  0  0  0
    2.7716  -52.2261  -26.1192 C   0  0  0  0  0  0  0  0  0  0  0  0
    2.9385  -50.9407  -26.5422 C   0  0  0  0  0  0  0  0  0  0  0  0
    3.6933  -49.9924  -25.8491 C   0  0  0  0  0  0  0  0  0  0  0  0
    4.3201  -50.3081  -24.6802 C   0  0  0  0  0  0  0  0  0  0  0  0
    4.1703  -51.6205  -24.2144 C   0  0  0  0  0  0  0  0  0  0  0  0
    4.9829  -52.0285  -22.6996 Cl  0  0  0  0  0  0  0  0  0  0  0  0
    3.4311  -52.5310  -24.9041 C   0  0  0  0  0  0  0  0  0  0  0  0
    5.0838  -49.4098  -23.9486 O   0  0  0  0  0  0  0  0  0  0  0  0
    4.6708  -48.1387  -23.5333 C   0  0  0  0  0  0  0  0  0  0  0  0
    3.8802  -48.1305  -22.2974 C   0  0  0  0  0  0  0  0  0  0  0  0
    4.5472  -48.0256  -21.0862 C   0  0  0  0  0  0  0  0  0  0  0  0
    3.8384  -48.0154  -19.9112 C   0  0  0  0  0  0  0  0  0  0  0  0
    2.4650  -48.1101  -19.9470 C   0  0  0  0  0  0  0  0  0  0  0  0
    1.7828  -48.2146  -21.1291 C   0  0  0  0  0  0  0  0  0  0  0  0
    0.4442  -48.3049  -21.1235 F   0  0  0  0  0  0  0  0  0  0  0  0
    2.4909  -48.2249  -22.3057 C   0  0  0  0  0  0  0  0  0  0  0  0
   -0.3587  -52.6310  -25.5656 C   0  0  0  0  0  0  0  0  0  0  0  0
   -0.3926  -52.5439  -24.3640 C   0  0  0  0  0  0  0  0  0  0  0  0
   -0.4122  -52.4256  -22.9257 C   0  0  0  0  0  0  0  0  0  0  0  0
    0.9659  -52.5820  -22.3124 C   0  0  0  0  0  0  0  0  0  0  0  0
    1.1658  -51.6971  -21.1243 C   0  0  0  0  0  0  0  0  0  0  0  0
    1.3779  -52.3915  -19.8957 N   0  0  0  0  0  0  0  0  0  0  0  0
    1.5145  -51.4521  -18.8283 C   0  0  0  0  0  0  0  0  0  0  0  0
    0.2409  -51.1155  -18.1251 C   0  0  0  0  0  0  0  0  0  0  0  0
   -0.4632  -52.2661  -17.7509 O   0  0  0  0  0  0  0  0  0  0  0  0
   -0.8460  -52.8801  -18.9662 C   0  0  0  0  0  0  0  0  0  0  0  0
    0.4293  -53.4017  -19.5879 C   0  0  0  0  0  0  0  0  0  0  0  0
  1  2  1  0  0  0
  2  3  2  0  0  0
  3  4  1  0  0  0
  4  5  2  0  0  0
  5  6  1  0  0  0
  6  8  1  0  0  0
  8 10  1  0  0  0
 10 11  2  0  0  0
 11 12  1  0  0  0
 12 13  2  0  0  0
 13 17  1  0  0  0
 17 18  1  0  0  0
 18 19  1  0  0  0
 19 20  2  0  0  0
 20 21  1  0  0  0
 21 22  2  0  0  0
 22 23  1  0  0  0
 23 24  1  0  0  0
 23 25  2  0  0  0
 13 14  1  0  0  0
 14 15  1  0  0  0
 14 16  2  0  0  0
  6  7  2  0  0  0
  7 26  1  0  0  0
 26 27  3  0  0  0
 27 28  1  0  0  0
 28 29  1  0  0  0
 29 30  1  0  0  0
 30 31  1  0  0  0
 31 32  1  0  0  0
 32 33  1  0  0  0
 33 34  1  0  0  0
 34 35  1  0  0  0
 35 36  1  0  0  0
  7  2  1  0  0  0
 36 31  1  0  0  0
 16 10  1  0  0  0
 25 19  1  0  0  0
  8  9  1  0  0  0
M  END
> <minimizedAffinity>
-7.75827

> <CNNscore>
0.2176065147

> <CNNaffinity>
6.9872703552

> <CNN_VS>
1.5204755068

> <CNNaffinity_variance>
0.4464774132

$$$$
[H]c1nc(N([H])c2c([H])c([H])c(OC([H])([H])c3c([H])c([H])c([H])c(F)c3[H])c(Cl)c2[H])c(C#CC([H])([H])C([H])([H])C([H])([H])N2C([H])([H])C([H])([H])OC([H])([H])C2([H])[H])c(C([H])([H])[H])n1


 36 39  0  0  0  0  0  0  0  0999 V2000
   -2.0160  -49.6959  -14.7608 C   0  0  0  0  0  0  0  0  0  0  0  0
   -2.3438  -50.9188  -15.5583 C   0  0  0  0  0  0  0  0  0  0  0  0
   -3.5156  -51.5582  -15.4618 N   0  0  0  0  0  0  0  0  0  0  0  0
   -3.7829  -52.6669  -16.2002 C   0  0  0  0  0  0  0  0  0  0  0  0
   -2.8500  -53.1297  -17.0445 N   0  0  0  0  0  0  0  0  0  0  0  0
   -1.6464  -52.5678  -17.2184 C   0  0  0  0  0  0  0  0  0  0  0  0
   -1.4082  -51.4168  -16.4317 C   0  0  0  0  0  0  0  0  0  0  0  0
   -0.6342  -53.0093  -18.0576 N   0  0  0  0  0  0  0  0  0  0  0  0
    0.2072  -53.4783  -17.6128 H   0  0  0  0  0  0  0  0  0  0  0  0
   -0.6235  -52.8886  -19.4555 C   0  0  0  0  0  0  0  0  0  0  0  0
   -1.2188  -53.7357  -20.3427 C   0  0  0  0  0  0  0  0  0  0  0  0
   -1.1529  -53.5728  -21.7278 C   0  0  0  0  0  0  0  0  0  0  0  0
   -0.4730  -52.5298  -22.2832 C   0  0  0  0  0  0  0  0  0  0  0  0
    0.1512  -51.6380  -21.4016 C   0  0  0  0  0  0  0  0  0  0  0  0
    1.0320  -50.2867  -22.1223 Cl  0  0  0  0  0  0  0  0  0  0  0  0
    0.0764  -51.8136  -20.0545 C   0  0  0  0  0  0  0  0  0  0  0  0
   -0.3716  -52.3169  -23.6507 O   0  0  0  0  0  0  0  0  0  0  0  0
    0.2636  -53.1676  -24.5625 C   0  0  0  0  0  0  0  0  0  0  0  0
   -0.1640  -52.9937  -25.9551 C   0  0  0  0  0  0  0  0  0  0  0  0
   -1.4196  -52.4584  -26.1995 C   0  0  0  0  0  0  0  0  0  0  0  0
   -1.8512  -52.2827  -27.4903 C   0  0  0  0  0  0  0  0  0  0  0  0
   -1.0288  -52.6416  -28.5349 C   0  0  0  0  0  0  0  0  0  0  0  0
    0.2148  -53.1719  -28.3207 C   0  0  0  0  0  0  0  0  0  0  0  0
    0.9873  -53.5094  -29.3644 F   0  0  0  0  0  0  0  0  0  0  0  0
    0.6479  -53.3483  -27.0294 C   0  0  0  0  0  0  0  0  0  0  0  0
   -0.1527  -50.7492  -16.5494 C   0  0  0  0  0  0  0  0  0  0  0  0
    0.9166  -50.2035  -16.6550 C   0  0  0  0  0  0  0  0  0  0  0  0
    2.2060  -49.5698  -16.7944 C   0  0  0  0  0  0  0  0  0  0  0  0
    2.2656  -48.6328  -17.9853 C   0  0  0  0  0  0  0  0  0  0  0  0
    2.7045  -49.3254  -19.2352 C   0  0  0  0  0  0  0  0  0  0  0  0
    3.8728  -50.1317  -19.0881 N   0  0  0  0  0  0  0  0  0  0  0  0
    3.7905  -51.2627  -19.9568 C   0  0  0  0  0  0  0  0  0  0  0  0
    4.4059  -51.0632  -21.3027 C   0  0  0  0  0  0  0  0  0  0  0  0
    5.7022  -50.5434  -21.2071 O   0  0  0  0  0  0  0  0  0  0  0  0
    5.5446  -49.2483  -20.6607 C   0  0  0  0  0  0  0  0  0  0  0  0
    5.1114  -49.4520  -19.2270 C   0  0  0  0  0  0  0  0  0  0  0  0
  1  2  1  0  0  0
  2  3  2  0  0  0
  3  4  1  0  0  0
  4  5  2  0  0  0
  5  6  1  0  0  0
  6  8  1  0  0  0
  8 10  1  0  0  0
 10 11  2  0  0  0
 11 12  1  0  0  0
 12 13  2  0  0  0
 13 17  1  0  0  0
 17 18  1  0  0  0
 18 19  1  0  0  0
 19 20  2  0  0  0
 20 21  1  0  0  0
 21 22  2  0  0  0
 22 23  1  0  0  0
 23 24  1  0  0  0
 23 25  2  0  0  0
 13 14  1  0  0  0
 14 15  1  0  0  0
 14 16  2  0  0  0
  6  7  2  0  0  0
  7 26  1  0  0  0
 26 27  3  0  0  0
 27 28  1  0  0  0
 28 29  1  0  0  0
 29 30  1  0  0  0
 30 31  1  0  0  0
 31 32  1  0  0  0
 32 33  1  0  0  0
 33 34  1  0  0  0
 34 35  1  0  0  0
 35 36  1  0  0  0
  7  2  1  0  0  0
 36 31  1  0  0  0
 16 10  1  0  0  0
 25 19  1  0  0  0
  8  9  1  0  0  0
M  END
> <minimizedAffinity>
-7.98904

> <CNNscore>
0.2079208642

> <CNNaffinity>
6.8408460617

> <CNN_VS>
1.4223545790

> <CNNaffinity_variance>
0.1801182032

$$$$
[H]c1nc(N([H])c2c([H])c([H])c(OC([H])([H])c3c([H])c([H])c([H])c(F)c3[H])c(Cl)c2[H])c(C#CC([H])([H])C([H])([H])C([H])([H])N2C([H])([H])C([H])([H])N(C([H])([H])C([H])([H])[H])C([H])([H])C2([H])[H])c(C([H])([H])[H])n1


 38 41  0  0  0  0  0  0  0  0999 V2000
    0.2191  -52.7762  -23.0187 C   0  0  0  0  0  0  0  0  0  0  0  0
   -0.4244  -53.1190  -24.1791 C   0  0  0  0  0  0  0  0  0  0  0  0
   -0.2742  -52.2213  -25.3474 C   0  0  0  0  0  0  0  0  0  0  0  0
   -1.1563  -54.2416  -24.2084 N   0  0  0  0  0  0  0  0  0  0  0  0
   -1.2910  -55.0546  -23.1464 C   0  0  0  0  0  0  0  0  0  0  0  0
   -0.6701  -54.7353  -22.0077 N   0  0  0  0  0  0  0  0  0  0  0  0
    0.0772  -53.6290  -21.9077 C   0  0  0  0  0  0  0  0  0  0  0  0
    1.6480  -50.5579  -22.9795 C   0  0  0  0  0  0  0  0  0  0  0  0
    0.9922  -51.5764  -22.9839 C   0  0  0  0  0  0  0  0  0  0  0  0
    2.4538  -49.3171  -23.0032 C   0  0  0  0  0  0  0  0  0  0  0  0
    3.4199  -49.4083  -21.8599 C   0  0  0  0  0  0  0  0  0  0  0  0
    4.8071  -48.9888  -22.2239 C   0  0  0  0  0  0  0  0  0  0  0  0
    8.0760  -49.1730  -23.9984 N   0  0  0  0  0  0  0  0  0  0  0  0
    7.8237  -50.4211  -23.3497 C   0  0  0  0  0  0  0  0  0  0  0  0
    6.6282  -50.4301  -22.4470 C   0  0  0  0  0  0  0  0  0  0  0  0
    5.4350  -49.9356  -23.0767 N   0  0  0  0  0  0  0  0  0  0  0  0
    5.7419  -49.5018  -24.3980 C   0  0  0  0  0  0  0  0  0  0  0  0
    6.8447  -48.5013  -24.3654 C   0  0  0  0  0  0  0  0  0  0  0  0
    9.7345  -48.1027  -25.4548 C   0  0  0  0  0  0  0  0  0  0  0  0
    8.8713  -49.2980  -25.1938 C   0  0  0  0  0  0  0  0  0  0  0  0
    0.7895  -53.2374  -20.7498 N   0  0  0  0  0  0  0  0  0  0  0  0
    1.8457  -53.4066  -20.7123 H   0  0  0  0  0  0  0  0  0  0  0  0
    0.2754  -52.6260  -19.5874 C   0  0  0  0  0  0  0  0  0  0  0  0
   -0.6880  -53.2154  -18.8203 C   0  0  0  0  0  0  0  0  0  0  0  0
   -1.1752  -52.6133  -17.6499 C   0  0  0  0  0  0  0  0  0  0  0  0
   -0.6569  -51.3864  -17.2732 C   0  0  0  0  0  0  0  0  0  0  0  0
    0.3191  -50.7560  -18.0223 C   0  0  0  0  0  0  0  0  0  0  0  0
    0.9180  -49.2117  -17.4757 Cl  0  0  0  0  0  0  0  0  0  0  0  0
    0.7637  -51.3834  -19.1573 C   0  0  0  0  0  0  0  0  0  0  0  0
   -1.0861  -50.7460  -16.1418 O   0  0  0  0  0  0  0  0  0  0  0  0
   -1.1786  -51.2760  -14.8585 C   0  0  0  0  0  0  0  0  0  0  0  0
    0.1340  -51.2950  -14.1775 C   0  0  0  0  0  0  0  0  0  0  0  0
    0.6427  -52.4840  -13.6559 C   0  0  0  0  0  0  0  0  0  0  0  0
    1.8650  -52.5209  -13.0148 C   0  0  0  0  0  0  0  0  0  0  0  0
    2.6205  -51.3808  -12.8711 C   0  0  0  0  0  0  0  0  0  0  0  0
    2.1023  -50.2127  -13.3931 C   0  0  0  0  0  0  0  0  0  0  0  0
    2.8306  -49.0789  -13.2623 F   0  0  0  0  0  0  0  0  0  0  0  0
    0.8857  -50.1527  -14.0361 C   0  0  0  0  0  0  0  0  0  0  0  0
 19 20  1  0  0  0
 20 13  1  0  0  0
 13 14  1  0  0  0
 14 15  1  0  0  0
 15 16  1  0  0  0
 16 12  1  0  0  0
 12 11  1  0  0  0
 11 10  1  0  0  0
 10  8  1  0  0  0
  8  9  3  0  0  0
  9  1  1  0  0  0
  1  2  2  0  0  0
  2  3  1  0  0  0
  2  4  1  0  0  0
  4  5  2  0  0  0
  5  6  1  0  0  0
  6  7  2  0  0  0
  7 21  1  0  0  0
 21 23  1  0  0  0
 23 24  2  0  0  0
 24 25  1  0  0  0
 25 26  2  0  0  0
 26 30  1  0  0  0
 30 31  1  0  0  0
 31 32  1  0  0  0
 32 33  2  0  0  0
 33 34  1  0  0  0
 34 35  2  0  0  0
 35 36  1  0  0  0
 36 37  1  0  0  0
 36 38  2  0  0  0
 26 27  1  0  0  0
 27 28  1  0  0  0
 27 29  2  0  0  0
 16 17  1  0  0  0
 17 18  1  0  0  0
 18 13  1  0  0  0
  7  1  1  0  0  0
 29 23  1  0  0  0
 38 32  1  0  0  0
 21 22  1  0  0  0
M  END
> <minimizedAffinity>
-6.87482

> <CNNscore>
0.5619024038

> <CNNaffinity>
7.3862204552

> <CNN_VS>
4.1503348351

> <CNNaffinity_variance>
0.1505981982

$$$$
[H]c1nc(N([H])c2c([H])c([H])c(OC([H])([H])c3c([H])c([H])c([H])c(F)c3[H])c(Cl)c2[H])c(C#CC([H])([H])C([H])([H])C([H])([H])N2C([H])([H])C([H])([H])N(C([H])([H])C([H])([H])[H])C([H])([H])C2([H])[H])c(C([H])([H])[H])n1


 38 41  0  0  0  0  0  0  0  0999 V2000
    0.1276  -53.0228  -23.2102 C   0  0  0  0  0  0  0  0  0  0  0  0
   -0.6404  -53.4267  -24.2710 C   0  0  0  0  0  0  0  0  0  0  0  0
   -0.5579  -52.6441  -25.5256 C   0  0  0  0  0  0  0  0  0  0  0  0
   -1.4269  -54.5030  -24.1305 N   0  0  0  0  0  0  0  0  0  0  0  0
   -1.4999  -55.2115  -22.9905 C   0  0  0  0  0  0  0  0  0  0  0  0
   -0.7577  -54.8315  -21.9470 N   0  0  0  0  0  0  0  0  0  0  0  0
    0.0502  -53.7663  -22.0174 C   0  0  0  0  0  0  0  0  0  0  0  0
    1.6516  -50.8833  -23.4631 C   0  0  0  0  0  0  0  0  0  0  0  0
    0.9597  -51.8717  -23.3562 C   0  0  0  0  0  0  0  0  0  0  0  0
    2.4765  -49.6603  -23.5783 C   0  0  0  0  0  0  0  0  0  0  0  0
    2.5120  -49.0340  -22.2162 C   0  0  0  0  0  0  0  0  0  0  0  0
    3.8547  -48.4890  -21.8515 C   0  0  0  0  0  0  0  0  0  0  0  0
    7.2694  -48.6903  -20.3791 N   0  0  0  0  0  0  0  0  0  0  0  0
    6.3096  -48.5886  -19.3252 C   0  0  0  0  0  0  0  0  0  0  0  0
    4.9069  -48.3178  -19.7761 C   0  0  0  0  0  0  0  0  0  0  0  0
    4.4499  -49.2251  -20.7924 N   0  0  0  0  0  0  0  0  0  0  0  0
    5.5067  -50.1123  -21.1450 C   0  0  0  0  0  0  0  0  0  0  0  0
    6.7121  -49.3373  -21.5507 C   0  0  0  0  0  0  0  0  0  0  0  0
    9.1992  -48.7939  -18.8683 C   0  0  0  0  0  0  0  0  0  0  0  0
    8.4552  -49.4199  -20.0070 C   0  0  0  0  0  0  0  0  0  0  0  0
    0.8888  -53.3180  -20.9699 N   0  0  0  0  0  0  0  0  0  0  0  0
    1.9260  -53.5815  -20.9911 H   0  0  0  0  0  0  0  0  0  0  0  0
    0.5292  -52.5355  -19.8529 C   0  0  0  0  0  0  0  0  0  0  0  0
   -0.4173  -52.9393  -18.9557 C   0  0  0  0  0  0  0  0  0  0  0  0
   -0.7505  -52.1678  -17.8317 C   0  0  0  0  0  0  0  0  0  0  0  0
   -0.0943  -50.9645  -17.6384 C   0  0  0  0  0  0  0  0  0  0  0  0
    0.8700  -50.5194  -18.5234 C   0  0  0  0  0  0  0  0  0  0  0  0
    1.6487  -48.9916  -18.2044 Cl  0  0  0  0  0  0  0  0  0  0  0  0
    1.1614  -51.3079  -19.6063 C   0  0  0  0  0  0  0  0  0  0  0  0
   -0.3696  -50.1651  -16.5615 O   0  0  0  0  0  0  0  0  0  0  0  0
   -0.4621  -50.5519  -15.2280 C   0  0  0  0  0  0  0  0  0  0  0  0
    0.8659  -50.8539  -14.6516 C   0  0  0  0  0  0  0  0  0  0  0  0
    1.0724  -52.0284  -13.9289 C   0  0  0  0  0  0  0  0  0  0  0  0
    2.3045  -52.3264  -13.3814 C   0  0  0  0  0  0  0  0  0  0  0  0
    3.3694  -51.4696  -13.5334 C   0  0  0  0  0  0  0  0  0  0  0  0
    3.1478  -50.3117  -14.2514 C   0  0  0  0  0  0  0  0  0  0  0  0
    4.1833  -49.4547  -14.4129 F   0  0  0  0  0  0  0  0  0  0  0  0
    1.9276  -49.9943  -14.8061 C   0  0  0  0  0  0  0  0  0  0  0  0
 19 20  1  0  0  0
 20 13  1  0  0  0
 13 14  1  0  0  0
 14 15  1  0  0  0
 15 16  1  0  0  0
 16 12  1  0  0  0
 12 11  1  0  0  0
 11 10  1  0  0  0
 10  8  1  0  0  0
  8  9  3  0  0  0
  9  1  1  0  0  0
  1  2  2  0  0  0
  2  3  1  0  0  0
  2  4  1  0  0  0
  4  5  2  0  0  0
  5  6  1  0  0  0
  6  7  2  0  0  0
  7 21  1  0  0  0
 21 23  1  0  0  0
 23 24  2  0  0  0
 24 25  1  0  0  0
 25 26  2  0  0  0
 26 30  1  0  0  0
 30 31  1  0  0  0
 31 32  1  0  0  0
 32 33  2  0  0  0
 33 34  1  0  0  0
 34 35  2  0  0  0
 35 36  1  0  0  0
 36 37  1  0  0  0
 36 38  2  0  0  0
 26 27  1  0  0  0
 27 28  1  0  0  0
 27 29  2  0  0  0
 16 17  1  0  0  0
 17 18  1  0  0  0
 18 13  1  0  0  0
  7  1  1  0  0  0
 29 23  1  0  0  0
 38 32  1  0  0  0
 21 22  1  0  0  0
M  END
> <minimizedAffinity>
-6.79147

> <CNNscore>
0.5373338461

> <CNNaffinity>
7.3004746437

> <CNN_VS>
3.9227921963

> <CNNaffinity_variance>
0.1694015115

$$$$
[H]c1nc(N([H])c2c([H])c([H])c(OC([H])([H])c3c([H])c([H])c([H])c(F)c3[H])c(Cl)c2[H])c(C#CC([H])([H])C([H])([H])C([H])([H])N2C([H])([H])C([H])([H])N(C([H])([H])C([H])([H])[H])C([H])([H])C2([H])[H])c(C([H])([H])[H])n1


 38 41  0  0  0  0  0  0  0  0999 V2000
    0.2787  -52.9257  -23.2238 C   0  0  0  0  0  0  0  0  0  0  0  0
   -0.3952  -53.4101  -24.3144 C   0  0  0  0  0  0  0  0  0  0  0  0
   -0.2183  -52.7095  -25.6072 C   0  0  0  0  0  0  0  0  0  0  0  0
   -1.1791  -54.4874  -24.1674 N   0  0  0  0  0  0  0  0  0  0  0  0
   -1.3379  -55.1213  -22.9927 C   0  0  0  0  0  0  0  0  0  0  0  0
   -0.6881  -54.6623  -21.9198 N   0  0  0  0  0  0  0  0  0  0  0  0
    0.1115  -53.5911  -21.9947 C   0  0  0  0  0  0  0  0  0  0  0  0
    1.8239  -50.8078  -23.5256 C   0  0  0  0  0  0  0  0  0  0  0  0
    1.1076  -51.7734  -23.3776 C   0  0  0  0  0  0  0  0  0  0  0  0
    2.7176  -49.6451  -23.7225 C   0  0  0  0  0  0  0  0  0  0  0  0
    3.5032  -49.9116  -24.9718 C   0  0  0  0  0  0  0  0  0  0  0  0
    4.0904  -48.6769  -25.5748 C   0  0  0  0  0  0  0  0  0  0  0  0
    4.4911  -45.9732  -28.1042 N   0  0  0  0  0  0  0  0  0  0  0  0
    4.1548  -47.1921  -28.7701 C   0  0  0  0  0  0  0  0  0  0  0  0
    4.1411  -48.4054  -27.8916 C   0  0  0  0  0  0  0  0  0  0  0  0
    3.3481  -48.2406  -26.7046 N   0  0  0  0  0  0  0  0  0  0  0  0
    2.8347  -46.9129  -26.6589 C   0  0  0  0  0  0  0  0  0  0  0  0
    3.9485  -45.9293  -26.7605 C   0  0  0  0  0  0  0  0  0  0  0  0
    4.4990  -44.7214  -30.2138 C   0  0  0  0  0  0  0  0  0  0  0  0
    4.0284  -44.7957  -28.7943 C   0  0  0  0  0  0  0  0  0  0  0  0
    0.8564  -53.0622  -20.9144 N   0  0  0  0  0  0  0  0  0  0  0  0
    1.9248  -53.0580  -20.9780 H   0  0  0  0  0  0  0  0  0  0  0  0
    0.3614  -52.5142  -19.7128 C   0  0  0  0  0  0  0  0  0  0  0  0
   -0.5691  -53.1574  -18.9484 C   0  0  0  0  0  0  0  0  0  0  0  0
   -1.0368  -52.6185  -17.7398 C   0  0  0  0  0  0  0  0  0  0  0  0
   -0.5333  -51.3988  -17.3219 C   0  0  0  0  0  0  0  0  0  0  0  0
    0.4095  -50.7151  -18.0667 C   0  0  0  0  0  0  0  0  0  0  0  0
    0.9917  -49.1843  -17.4668 Cl  0  0  0  0  0  0  0  0  0  0  0  0
    0.8360  -51.2819  -19.2399 C   0  0  0  0  0  0  0  0  0  0  0  0
   -0.9448  -50.8186  -16.1520 O   0  0  0  0  0  0  0  0  0  0  0  0
   -1.0700  -51.4296  -14.9080 C   0  0  0  0  0  0  0  0  0  0  0  0
    0.2020  -51.4033  -14.1541 C   0  0  0  0  0  0  0  0  0  0  0  0
    0.6372  -52.5330  -13.4622 C   0  0  0  0  0  0  0  0  0  0  0  0
    1.8206  -52.5267  -12.7510 C   0  0  0  0  0  0  0  0  0  0  0  0
    2.6089  -51.4009  -12.7038 C   0  0  0  0  0  0  0  0  0  0  0  0
    2.1635  -50.2916  -13.3941 C   0  0  0  0  0  0  0  0  0  0  0  0
    2.9251  -49.1727  -13.3605 F   0  0  0  0  0  0  0  0  0  0  0  0
    0.9867  -50.2754  -14.1098 C   0  0  0  0  0  0  0  0  0  0  0  0
 19 20  1  0  0  0
 20 13  1  0  0  0
 13 14  1  0  0  0
 14 15  1  0  0  0
 15 16  1  0  0  0
 16 12  1  0  0  0
 12 11  1  0  0  0
 11 10  1  0  0  0
 10  8  1  0  0  0
  8  9  3  0  0  0
  9  1  1  0  0  0
  1  2  2  0  0  0
  2  3  1  0  0  0
  2  4  1  0  0  0
  4  5  2  0  0  0
  5  6  1  0  0  0
  6  7  2  0  0  0
  7 21  1  0  0  0
 21 23  1  0  0  0
 23 24  2  0  0  0
 24 25  1  0  0  0
 25 26  2  0  0  0
 26 30  1  0  0  0
 30 31  1  0  0  0
 31 32  1  0  0  0
 32 33  2  0  0  0
 33 34  1  0  0  0
 34 35  2  0  0  0
 35 36  1  0  0  0
 36 37  1  0  0  0
 36 38  2  0  0  0
 26 27  1  0  0  0
 27 28  1  0  0  0
 27 29  2  0  0  0
 16 17  1  0  0  0
 17 18  1  0  0  0
 18 13  1  0  0  0
  7  1  1  0  0  0
 29 23  1  0  0  0
 38 32  1  0  0  0
 21 22  1  0  0  0
M  END
> <minimizedAffinity>
-6.89249

> <CNNscore>
0.3990055323

> <CNNaffinity>
7.0667638779

> <CNN_VS>
2.8196778297

> <CNNaffinity_variance>
0.0802833289

$$$$
[H]c1nc(N([H])c2c([H])c([H])c(OC([H])([H])c3c([H])c([H])c([H])c(F)c3[H])c(Cl)c2[H])c(C#CC([H])([H])C([H])([H])C([H])([H])N2C([H])([H])C([H])([H])N(C([H])([H])C([H])([H])[H])C([H])([H])C2([H])[H])c(C([H])([H])[H])n1


 38 41  0  0  0  0  0  0  0  0999 V2000
   -0.7864  -51.5579  -16.8520 C   0  0  0  0  0  0  0  0  0  0  0  0
   -1.5444  -50.9212  -15.9043 C   0  0  0  0  0  0  0  0  0  0  0  0
   -0.9442  -49.7678  -15.1952 C   0  0  0  0  0  0  0  0  0  0  0  0
   -2.7858  -51.3644  -15.6607 N   0  0  0  0  0  0  0  0  0  0  0  0
   -3.3281  -52.4116  -16.3058 C   0  0  0  0  0  0  0  0  0  0  0  0
   -2.6029  -53.0433  -17.2327 N   0  0  0  0  0  0  0  0  0  0  0  0
   -1.3561  -52.6540  -17.5269 C   0  0  0  0  0  0  0  0  0  0  0  0
    1.6551  -50.6726  -17.3204 C   0  0  0  0  0  0  0  0  0  0  0  0
    0.5389  -51.0917  -17.1066 C   0  0  0  0  0  0  0  0  0  0  0  0
    3.0074  -50.1334  -17.5852 C   0  0  0  0  0  0  0  0  0  0  0  0
    2.8442  -49.0367  -18.5950 C   0  0  0  0  0  0  0  0  0  0  0  0
    2.8881  -49.5228  -20.0073 C   0  0  0  0  0  0  0  0  0  0  0  0
    4.6391  -50.8204  -23.0270 N   0  0  0  0  0  0  0  0  0  0  0  0
    5.6091  -50.3577  -22.0851 C   0  0  0  0  0  0  0  0  0  0  0  0
    5.0413  -49.6422  -20.8978 C   0  0  0  0  0  0  0  0  0  0  0  0
    4.0002  -50.3771  -20.2339 N   0  0  0  0  0  0  0  0  0  0  0  0
    3.7451  -51.5842  -20.9454 C   0  0  0  0  0  0  0  0  0  0  0  0
    3.4322  -51.2826  -22.3700 C   0  0  0  0  0  0  0  0  0  0  0  0
    4.0128  -52.6458  -24.5412 C   0  0  0  0  0  0  0  0  0  0  0  0
    5.1152  -51.8959  -23.8597 C   0  0  0  0  0  0  0  0  0  0  0  0
   -0.5359  -53.2494  -18.5139 N   0  0  0  0  0  0  0  0  0  0  0  0
    0.2114  -53.9520  -18.2080 H   0  0  0  0  0  0  0  0  0  0  0  0
   -0.5708  -53.0352  -19.9075 C   0  0  0  0  0  0  0  0  0  0  0  0
   -0.2488  -51.8323  -20.4673 C   0  0  0  0  0  0  0  0  0  0  0  0
   -0.2596  -51.6345  -21.8567 C   0  0  0  0  0  0  0  0  0  0  0  0
   -0.6092  -52.6966  -22.6724 C   0  0  0  0  0  0  0  0  0  0  0  0
   -0.9424  -53.9305  -22.1455 C   0  0  0  0  0  0  0  0  0  0  0  0
   -1.3701  -55.2154  -23.2448 Cl  0  0  0  0  0  0  0  0  0  0  0  0
   -0.9170  -54.0753  -20.7825 C   0  0  0  0  0  0  0  0  0  0  0  0
   -0.6373  -52.5720  -24.0356 O   0  0  0  0  0  0  0  0  0  0  0  0
    0.4531  -52.4727  -24.8943 C   0  0  0  0  0  0  0  0  0  0  0  0
    0.0531  -52.6337  -26.3089 C   0  0  0  0  0  0  0  0  0  0  0  0
    1.0073  -52.9170  -27.2855 C   0  0  0  0  0  0  0  0  0  0  0  0
    0.6532  -53.0685  -28.6115 C   0  0  0  0  0  0  0  0  0  0  0  0
   -0.6570  -52.9439  -29.0100 C   0  0  0  0  0  0  0  0  0  0  0  0
   -1.5886  -52.6634  -28.0308 C   0  0  0  0  0  0  0  0  0  0  0  0
   -2.8843  -52.5370  -28.4022 F   0  0  0  0  0  0  0  0  0  0  0  0
   -1.2580  -52.5082  -26.7026 C   0  0  0  0  0  0  0  0  0  0  0  0
 19 20  1  0  0  0
 20 13  1  0  0  0
 13 14  1  0  0  0
 14 15  1  0  0  0
 15 16  1  0  0  0
 16 12  1  0  0  0
 12 11  1  0  0  0
 11 10  1  0  0  0
 10  8  1  0  0  0
  8  9  3  0  0  0
  9  1  1  0  0  0
  1  2  2  0  0  0
  2  3  1  0  0  0
  2  4  1  0  0  0
  4  5  2  0  0  0
  5  6  1  0  0  0
  6  7  2  0  0  0
  7 21  1  0  0  0
 21 23  1  0  0  0
 23 24  2  0  0  0
 24 25  1  0  0  0
 25 26  2  0  0  0
 26 30  1  0  0  0
 30 31  1  0  0  0
 31 32  1  0  0  0
 32 33  2  0  0  0
 33 34  1  0  0  0
 34 35  2  0  0  0
 35 36  1  0  0  0
 36 37  1  0  0  0
 36 38  2  0  0  0
 26 27  1  0  0  0
 27 28  1  0  0  0
 27 29  2  0  0  0
 16 17  1  0  0  0
 17 18  1  0  0  0
 18 13  1  0  0  0
  7  1  1  0  0  0
 29 23  1  0  0  0
 38 32  1  0  0  0
 21 22  1  0  0  0
M  END
> <minimizedAffinity>
-8.59885

> <CNNscore>
0.3815200031

> <CNNaffinity>
7.4391379356

> <CNN_VS>
2.8381798267

> <CNNaffinity_variance>
0.4211274683

$$$$
[H]c1nc(N([H])c2c([H])c([H])c(OC([H])([H])c3c([H])c([H])c([H])c(F)c3[H])c(Cl)c2[H])c(C#CC([H])([H])C([H])([H])C([H])([H])N2C([H])([H])C([H])([H])N(C([H])([H])C([H])([H])[H])C([H])([H])C2([H])[H])c(C([H])([H])[H])n1


 38 41  0  0  0  0  0  0  0  0999 V2000
    0.2437  -53.0363  -24.6042 C   0  0  0  0  0  0  0  0  0  0  0  0
   -0.0567  -54.1694  -25.3142 C   0  0  0  0  0  0  0  0  0  0  0  0
    0.4377  -54.2676  -26.7067 C   0  0  0  0  0  0  0  0  0  0  0  0
   -0.7786  -55.1327  -24.7245 N   0  0  0  0  0  0  0  0  0  0  0  0
   -1.2261  -55.0409  -23.4603 C   0  0  0  0  0  0  0  0  0  0  0  0
   -0.9420  -53.9432  -22.7542 N   0  0  0  0  0  0  0  0  0  0  0  0
   -0.2254  -52.9422  -23.2804 C   0  0  0  0  0  0  0  0  0  0  0  0
    1.6320  -51.1175  -25.7684 C   0  0  0  0  0  0  0  0  0  0  0  0
    1.0057  -52.0061  -25.2341 C   0  0  0  0  0  0  0  0  0  0  0  0
    2.3713  -50.0176  -26.4264 C   0  0  0  0  0  0  0  0  0  0  0  0
    3.7807  -50.0805  -25.9178 C   0  0  0  0  0  0  0  0  0  0  0  0
    3.8832  -50.6160  -24.5265 C   0  0  0  0  0  0  0  0  0  0  0  0
    5.3678  -49.5627  -21.2777 N   0  0  0  0  0  0  0  0  0  0  0  0
    5.9959  -50.7711  -21.7104 C   0  0  0  0  0  0  0  0  0  0  0  0
    5.3719  -51.4081  -22.9141 C   0  0  0  0  0  0  0  0  0  0  0  0
    5.2038  -50.5013  -24.0160 N   0  0  0  0  0  0  0  0  0  0  0  0
    5.6281  -49.1988  -23.6262 C   0  0  0  0  0  0  0  0  0  0  0  0
    4.9021  -48.7697  -22.3986 C   0  0  0  0  0  0  0  0  0  0  0  0
    5.6560  -48.4018  -19.1360 C   0  0  0  0  0  0  0  0  0  0  0  0
    6.2269  -48.7220  -20.4827 C   0  0  0  0  0  0  0  0  0  0  0  0
    0.1429  -51.7632  -22.5907 N   0  0  0  0  0  0  0  0  0  0  0  0
   -0.0279  -50.8165  -23.0601 H   0  0  0  0  0  0  0  0  0  0  0  0
    0.7289  -51.6602  -21.3119 C   0  0  0  0  0  0  0  0  0  0  0  0
    2.0746  -51.5082  -21.1380 C   0  0  0  0  0  0  0  0  0  0  0  0
    2.6476  -51.3791  -19.8634 C   0  0  0  0  0  0  0  0  0  0  0  0
    1.8144  -51.4089  -18.7585 C   0  0  0  0  0  0  0  0  0  0  0  0
    0.4468  -51.5615  -18.8913 C   0  0  0  0  0  0  0  0  0  0  0  0
   -0.5305  -51.5879  -17.4469 Cl  0  0  0  0  0  0  0  0  0  0  0  0
   -0.0664  -51.6834  -20.1567 C   0  0  0  0  0  0  0  0  0  0  0  0
    2.3080  -51.2858  -17.4874 O   0  0  0  0  0  0  0  0  0  0  0  0
    3.5010  -50.6814  -17.1027 C   0  0  0  0  0  0  0  0  0  0  0  0
    3.6093  -50.5697  -15.6321 C   0  0  0  0  0  0  0  0  0  0  0  0
    3.6853  -51.7147  -14.8398 C   0  0  0  0  0  0  0  0  0  0  0  0
    3.7845  -51.6304  -13.4652 C   0  0  0  0  0  0  0  0  0  0  0  0
    3.8115  -50.4091  -12.8338 C   0  0  0  0  0  0  0  0  0  0  0  0
    3.7354  -49.2860  -13.6328 C   0  0  0  0  0  0  0  0  0  0  0  0
    3.7607  -48.0736  -13.0308 F   0  0  0  0  0  0  0  0  0  0  0  0
    3.6359  -49.3465  -15.0053 C   0  0  0  0  0  0  0  0  0  0  0  0
 19 20  1  0  0  0
 20 13  1  0  0  0
 13 14  1  0  0  0
 14 15  1  0  0  0
 15 16  1  0  0  0
 16 12  1  0  0  0
 12 11  1  0  0  0
 11 10  1  0  0  0
 10  8  1  0  0  0
  8  9  3  0  0  0
  9  1  1  0  0  0
  1  2  2  0  0  0
  2  3  1  0  0  0
  2  4  1  0  0  0
  4  5  2  0  0  0
  5  6  1  0  0  0
  6  7  2  0  0  0
  7 21  1  0  0  0
 21 23  1  0  0  0
 23 24  2  0  0  0
 24 25  1  0  0  0
 25 26  2  0  0  0
 26 30  1  0  0  0
 30 31  1  0  0  0
 31 32  1  0  0  0
 32 33  2  0  0  0
 33 34  1  0  0  0
 34 35  2  0  0  0
 35 36  1  0  0  0
 36 37  1  0  0  0
 36 38  2  0  0  0
 26 27  1  0  0  0
 27 28  1  0  0  0
 27 29  2  0  0  0
 16 17  1  0  0  0
 17 18  1  0  0  0
 18 13  1  0  0  0
  7  1  1  0  0  0
 29 23  1  0  0  0
 38 32  1  0  0  0
 21 22  1  0  0  0
M  END
> <minimizedAffinity>
-6.64370

> <CNNscore>
0.2460729629

> <CNNaffinity>
7.1788825989

> <CNN_VS>
1.7665289640

> <CNNaffinity_variance>
0.2620078921

$$$$
[H]c1nc(N([H])c2c([H])c([H])c(OC([H])([H])c3c([H])c([H])c([H])c(F)c3[H])c(Cl)c2[H])c(C#CC([H])([H])C([H])([H])C([H])([H])N2C([H])([H])C([H])([H])N(C([H])([H])C([H])([H])[H])C([H])([H])C2([H])[H])c(C([H])([H])[H])n1


 38 41  0  0  0  0  0  0  0  0999 V2000
    1.3332  -52.6739  -25.2890 C   0  0  0  0  0  0  0  0  0  0  0  0
    1.1929  -52.2123  -26.5718 C   0  0  0  0  0  0  0  0  0  0  0  0
    2.4014  -51.7095  -27.2646 C   0  0  0  0  0  0  0  0  0  0  0  0
   -0.0206  -52.2346  -27.1407 N   0  0  0  0  0  0  0  0  0  0  0  0
   -1.1158  -52.6916  -26.5094 C   0  0  0  0  0  0  0  0  0  0  0  0
   -0.9966  -53.1454  -25.2589 N   0  0  0  0  0  0  0  0  0  0  0  0
    0.1852  -53.1525  -24.6297 C   0  0  0  0  0  0  0  0  0  0  0  0
    3.7221  -52.6407  -24.1683 C   0  0  0  0  0  0  0  0  0  0  0  0
    2.6238  -52.6430  -24.6792 C   0  0  0  0  0  0  0  0  0  0  0  0
    5.0646  -52.6676  -23.5468 C   0  0  0  0  0  0  0  0  0  0  0  0
    4.9552  -51.9199  -22.2514 C   0  0  0  0  0  0  0  0  0  0  0  0
    4.4702  -50.5165  -22.4186 C   0  0  0  0  0  0  0  0  0  0  0  0
    5.5332  -48.1332  -19.7619 N   0  0  0  0  0  0  0  0  0  0  0  0
    6.6771  -48.8450  -20.2382 C   0  0  0  0  0  0  0  0  0  0  0  0
    6.3712  -49.9669  -21.1826 C   0  0  0  0  0  0  0  0  0  0  0  0
    5.5254  -49.5762  -22.2766 N   0  0  0  0  0  0  0  0  0  0  0  0
    5.1495  -48.2114  -22.1203 C   0  0  0  0  0  0  0  0  0  0  0  0
    4.5171  -48.0037  -20.7879 C   0  0  0  0  0  0  0  0  0  0  0  0
    6.1846  -46.7659  -17.8322 C   0  0  0  0  0  0  0  0  0  0  0  0
    5.8387  -46.8068  -19.2885 C   0  0  0  0  0  0  0  0  0  0  0  0
    0.4001  -53.6431  -23.3203 N   0  0  0  0  0  0  0  0  0  0  0  0
    0.6389  -54.6783  -23.1903 H   0  0  0  0  0  0  0  0  0  0  0  0
    0.3417  -52.9222  -22.1095 C   0  0  0  0  0  0  0  0  0  0  0  0
    0.1274  -53.5339  -20.9078 C   0  0  0  0  0  0  0  0  0  0  0  0
    0.0976  -52.8132  -19.7038 C   0  0  0  0  0  0  0  0  0  0  0  0
    0.2916  -51.4435  -19.7489 C   0  0  0  0  0  0  0  0  0  0  0  0
    0.5111  -50.7859  -20.9450 C   0  0  0  0  0  0  0  0  0  0  0  0
    0.7469  -49.0580  -20.9121 Cl  0  0  0  0  0  0  0  0  0  0  0  0
    0.5319  -51.5326  -22.0945 C   0  0  0  0  0  0  0  0  0  0  0  0
    0.2773  -50.6817  -18.6114 O   0  0  0  0  0  0  0  0  0  0  0  0
    0.4005  -51.1268  -17.2988 C   0  0  0  0  0  0  0  0  0  0  0  0
   -0.8883  -51.0658  -16.5761 C   0  0  0  0  0  0  0  0  0  0  0  0
   -1.2016  -49.9639  -15.7811 C   0  0  0  0  0  0  0  0  0  0  0  0
   -2.3988  -49.8902  -15.0972 C   0  0  0  0  0  0  0  0  0  0  0  0
   -3.3220  -50.9060  -15.1803 C   0  0  0  0  0  0  0  0  0  0  0  0
   -2.9961  -51.9892  -15.9714 C   0  0  0  0  0  0  0  0  0  0  0  0
   -3.8915  -53.0002  -16.0669 F   0  0  0  0  0  0  0  0  0  0  0  0
   -1.8081  -52.0838  -16.6622 C   0  0  0  0  0  0  0  0  0  0  0  0
 19 20  1  0  0  0
 20 13  1  0  0  0
 13 14  1  0  0  0
 14 15  1  0  0  0
 15 16  1  0  0  0
 16 12  1  0  0  0
 12 11  1  0  0  0
 11 10  1  0  0  0
 10  8  1  0  0  0
  8  9  3  0  0  0
  9  1  1  0  0  0
  1  2  2  0  0  0
  2  3  1  0  0  0
  2  4  1  0  0  0
  4  5  2  0  0  0
  5  6  1  0  0  0
  6  7  2  0  0  0
  7 21  1  0  0  0
 21 23  1  0  0  0
 23 24  2  0  0  0
 24 25  1  0  0  0
 25 26  2  0  0  0
 26 30  1  0  0  0
 30 31  1  0  0  0
 31 32  1  0  0  0
 32 33  2  0  0  0
 33 34  1  0  0  0
 34 35  2  0  0  0
 35 36  1  0  0  0
 36 37  1  0  0  0
 36 38  2  0  0  0
 26 27  1  0  0  0
 27 28  1  0  0  0
 27 29  2  0  0  0
 16 17  1  0  0  0
 17 18  1  0  0  0
 18 13  1  0  0  0
  7  1  1  0  0  0
 29 23  1  0  0  0
 38 32  1  0  0  0
 21 22  1  0  0  0
M  END
> <minimizedAffinity>
-7.49482

> <CNNscore>
0.2272465378

> <CNNaffinity>
7.0623359680

> <CNN_VS>
1.6048914194

> <CNNaffinity_variance>
0.2640992999

$$$$
[H]c1nc(N([H])c2c([H])c([H])c(OC([H])([H])c3c([H])c([H])c([H])c(F)c3[H])c(Cl)c2[H])c(C#CC([H])([H])C([H])([H])C([H])([H])N2C([H])([H])C([H])([H])N(C([H])([H])C([H])([H])[H])C([H])([H])C2([H])[H])c(C([H])([H])[H])n1


 38 41  0  0  0  0  0  0  0  0999 V2000
   -0.4956  -51.4514  -17.1117 C   0  0  0  0  0  0  0  0  0  0  0  0
   -1.3083  -50.8355  -16.1960 C   0  0  0  0  0  0  0  0  0  0  0  0
   -0.8045  -49.6102  -15.5341 C   0  0  0  0  0  0  0  0  0  0  0  0
   -2.5138  -51.3625  -15.9398 N   0  0  0  0  0  0  0  0  0  0  0  0
   -2.9685  -52.4749  -16.5420 C   0  0  0  0  0  0  0  0  0  0  0  0
   -2.1892  -53.0875  -17.4373 N   0  0  0  0  0  0  0  0  0  0  0  0
   -0.9737  -52.6159  -17.7416 C   0  0  0  0  0  0  0  0  0  0  0  0
    1.8734  -50.4021  -17.6127 C   0  0  0  0  0  0  0  0  0  0  0  0
    0.7920  -50.8955  -17.3794 C   0  0  0  0  0  0  0  0  0  0  0  0
    3.1808  -49.7765  -17.9107 C   0  0  0  0  0  0  0  0  0  0  0  0
    3.7789  -50.5485  -19.0488 C   0  0  0  0  0  0  0  0  0  0  0  0
    3.2596  -50.1279  -20.3853 C   0  0  0  0  0  0  0  0  0  0  0  0
    3.0433  -47.9720  -23.4141 N   0  0  0  0  0  0  0  0  0  0  0  0
    3.5245  -47.1926  -22.3172 C   0  0  0  0  0  0  0  0  0  0  0  0
    3.4897  -47.8863  -20.9899 C   0  0  0  0  0  0  0  0  0  0  0  0
    4.1157  -49.1796  -21.0062 N   0  0  0  0  0  0  0  0  0  0  0  0
    4.5493  -49.4790  -22.3294 C   0  0  0  0  0  0  0  0  0  0  0  0
    3.4077  -49.3687  -23.2796 C   0  0  0  0  0  0  0  0  0  0  0  0
    3.3492  -48.5353  -25.7819 C   0  0  0  0  0  0  0  0  0  0  0  0
    3.5279  -47.5216  -24.6944 C   0  0  0  0  0  0  0  0  0  0  0  0
   -0.1018  -53.1875  -18.6980 N   0  0  0  0  0  0  0  0  0  0  0  0
    0.7221  -53.7790  -18.3562 H   0  0  0  0  0  0  0  0  0  0  0  0
   -0.1741  -53.0808  -20.1026 C   0  0  0  0  0  0  0  0  0  0  0  0
    0.2192  -51.9556  -20.7683 C   0  0  0  0  0  0  0  0  0  0  0  0
    0.1698  -51.8668  -22.1681 C   0  0  0  0  0  0  0  0  0  0  0  0
   -0.2935  -52.9576  -22.8831 C   0  0  0  0  0  0  0  0  0  0  0  0
   -0.7016  -54.1153  -22.2473 C   0  0  0  0  0  0  0  0  0  0  0  0
   -1.2713  -55.4433  -23.2243 Cl  0  0  0  0  0  0  0  0  0  0  0  0
   -0.6347  -54.1547  -20.8786 C   0  0  0  0  0  0  0  0  0  0  0  0
   -0.3648  -52.9382  -24.2503 O   0  0  0  0  0  0  0  0  0  0  0  0
   -1.0091  -51.9959  -25.0461 C   0  0  0  0  0  0  0  0  0  0  0  0
   -0.8954  -52.3231  -26.4838 C   0  0  0  0  0  0  0  0  0  0  0  0
   -2.0174  -52.2764  -27.3105 C   0  0  0  0  0  0  0  0  0  0  0  0
   -1.9312  -52.5808  -28.6545 C   0  0  0  0  0  0  0  0  0  0  0  0
   -0.7306  -52.9406  -29.2203 C   0  0  0  0  0  0  0  0  0  0  0  0
    0.3700  -52.9818  -28.3881 C   0  0  0  0  0  0  0  0  0  0  0  0
    1.5617  -53.3336  -28.9255 F   0  0  0  0  0  0  0  0  0  0  0  0
    0.3071  -52.6824  -27.0450 C   0  0  0  0  0  0  0  0  0  0  0  0
 19 20  1  0  0  0
 20 13  1  0  0  0
 13 14  1  0  0  0
 14 15  1  0  0  0
 15 16  1  0  0  0
 16 12  1  0  0  0
 12 11  1  0  0  0
 11 10  1  0  0  0
 10  8  1  0  0  0
  8  9  3  0  0  0
  9  1  1  0  0  0
  1  2  2  0  0  0
  2  3  1  0  0  0
  2  4  1  0  0  0
  4  5  2  0  0  0
  5  6  1  0  0  0
  6  7  2  0  0  0
  7 21  1  0  0  0
 21 23  1  0  0  0
 23 24  2  0  0  0
 24 25  1  0  0  0
 25 26  2  0  0  0
 26 30  1  0  0  0
 30 31  1  0  0  0
 31 32  1  0  0  0
 32 33  2  0  0  0
 33 34  1  0  0  0
 34 35  2  0  0  0
 35 36  1  0  0  0
 36 37  1  0  0  0
 36 38  2  0  0  0
 26 27  1  0  0  0
 27 28  1  0  0  0
 27 29  2  0  0  0
 16 17  1  0  0  0
 17 18  1  0  0  0
 18 13  1  0  0  0
  7  1  1  0  0  0
 29 23  1  0  0  0
 38 32  1  0  0  0
 21 22  1  0  0  0
M  END
> <minimizedAffinity>
-7.99409

> <CNNscore>
0.1929281503

> <CNNaffinity>
7.0907135010

> <CNN_VS>
1.3679982424

> <CNNaffinity_variance>
0.4181120396

$$$$
[H]c1nc(N([H])c2c([H])c([H])c(OC([H])([H])c3c([H])c([H])c([H])c(F)c3[H])c(Cl)c2[H])c(C#CC([H])([H])C([H])([H])C([H])([H])N2C([H])([H])C([H])([H])N(C([H])([H])C([H])([H])[H])C([H])([H])C2([H])[H])c(C([H])([H])[H])n1


 38 41  0  0  0  0  0  0  0  0999 V2000
    1.2682  -52.5312  -25.1092 C   0  0  0  0  0  0  0  0  0  0  0  0
    1.0413  -52.1357  -26.4017 C   0  0  0  0  0  0  0  0  0  0  0  0
    2.2132  -51.7825  -27.2354 C   0  0  0  0  0  0  0  0  0  0  0  0
   -0.2198  -52.0853  -26.8532 N   0  0  0  0  0  0  0  0  0  0  0  0
   -1.2816  -52.4064  -26.0942 C   0  0  0  0  0  0  0  0  0  0  0  0
   -1.0781  -52.7941  -24.8323 N   0  0  0  0  0  0  0  0  0  0  0  0
    0.1550  -52.8674  -24.3160 C   0  0  0  0  0  0  0  0  0  0  0  0
    3.7459  -52.6406  -24.2075 C   0  0  0  0  0  0  0  0  0  0  0  0
    2.6105  -52.5774  -24.6247 C   0  0  0  0  0  0  0  0  0  0  0  0
    5.1264  -52.7440  -23.6850 C   0  0  0  0  0  0  0  0  0  0  0  0
    5.1830  -51.9008  -22.4462 C   0  0  0  0  0  0  0  0  0  0  0  0
    4.6361  -50.5242  -22.6431 C   0  0  0  0  0  0  0  0  0  0  0  0
    7.7272  -49.6942  -20.7393 N   0  0  0  0  0  0  0  0  0  0  0  0
    8.0325  -49.7339  -22.1348 C   0  0  0  0  0  0  0  0  0  0  0  0
    6.9223  -50.2343  -23.0073 C   0  0  0  0  0  0  0  0  0  0  0  0
    5.6725  -49.5625  -22.7806 N   0  0  0  0  0  0  0  0  0  0  0  0
    5.8234  -48.6281  -21.7165 C   0  0  0  0  0  0  0  0  0  0  0  0
    6.3481  -49.3141  -20.5031 C   0  0  0  0  0  0  0  0  0  0  0  0
    9.4326  -49.4668  -18.9909 C   0  0  0  0  0  0  0  0  0  0  0  0
    8.5588  -48.7820  -19.9956 C   0  0  0  0  0  0  0  0  0  0  0  0
    0.4563  -53.2967  -23.0020 N   0  0  0  0  0  0  0  0  0  0  0  0
    0.7192  -54.3218  -22.8421 H   0  0  0  0  0  0  0  0  0  0  0  0
    0.4590  -52.5238  -21.8223 C   0  0  0  0  0  0  0  0  0  0  0  0
    0.2883  -53.0801  -20.5872 C   0  0  0  0  0  0  0  0  0  0  0  0
    0.3194  -52.3082  -19.4155 C   0  0  0  0  0  0  0  0  0  0  0  0
    0.5291  -50.9447  -19.5282 C   0  0  0  0  0  0  0  0  0  0  0  0
    0.7059  -50.3423  -20.7599 C   0  0  0  0  0  0  0  0  0  0  0  0
    0.9654  -48.6183  -20.8120 Cl  0  0  0  0  0  0  0  0  0  0  0  0
    0.6678  -51.1377  -21.8758 C   0  0  0  0  0  0  0  0  0  0  0  0
    0.5734  -50.1347  -18.4252 O   0  0  0  0  0  0  0  0  0  0  0  0
    0.0566  -50.4044  -17.1617 C   0  0  0  0  0  0  0  0  0  0  0  0
    1.1071  -50.8605  -16.2260 C   0  0  0  0  0  0  0  0  0  0  0  0
    2.4542  -50.6504  -16.5185 C   0  0  0  0  0  0  0  0  0  0  0  0
    3.4490  -51.0711  -15.6583 C   0  0  0  0  0  0  0  0  0  0  0  0
    3.1392  -51.7127  -14.4821 C   0  0  0  0  0  0  0  0  0  0  0  0
    1.8012  -51.9127  -14.2080 C   0  0  0  0  0  0  0  0  0  0  0  0
    1.4748  -52.5424  -13.0548 F   0  0  0  0  0  0  0  0  0  0  0  0
    0.7926  -51.5016  -15.0513 C   0  0  0  0  0  0  0  0  0  0  0  0
 19 20  1  0  0  0
 20 13  1  0  0  0
 13 14  1  0  0  0
 14 15  1  0  0  0
 15 16  1  0  0  0
 16 12  1  0  0  0
 12 11  1  0  0  0
 11 10  1  0  0  0
 10  8  1  0  0  0
  8  9  3  0  0  0
  9  1  1  0  0  0
  1  2  2  0  0  0
  2  3  1  0  0  0
  2  4  1  0  0  0
  4  5  2  0  0  0
  5  6  1  0  0  0
  6  7  2  0  0  0
  7 21  1  0  0  0
 21 23  1  0  0  0
 23 24  2  0  0  0
 24 25  1  0  0  0
 25 26  2  0  0  0
 26 30  1  0  0  0
 30 31  1  0  0  0
 31 32  1  0  0  0
 32 33  2  0  0  0
 33 34  1  0  0  0
 34 35  2  0  0  0
 35 36  1  0  0  0
 36 37  1  0  0  0
 36 38  2  0  0  0
 26 27  1  0  0  0
 27 28  1  0  0  0
 27 29  2  0  0  0
 16 17  1  0  0  0
 17 18  1  0  0  0
 18 13  1  0  0  0
  7  1  1  0  0  0
 29 23  1  0  0  0
 38 32  1  0  0  0
 21 22  1  0  0  0
M  END
> <minimizedAffinity>
-7.27483

> <CNNscore>
0.1811639816

> <CNNaffinity>
6.8847489357

> <CNN_VS>
1.2472685575

> <CNNaffinity_variance>
0.3883375227

$$$$
[H]c1nc(N([H])c2c([H])c([H])c(OC([H])([H])c3c([H])c([H])c([H])c(F)c3[H])c(Cl)c2[H])c(C#CC([H])([H])C([H])([H])C([H])([H])N2C([H])([H])C([H])([H])N(C([H])([H])C([H])([H])[H])C([H])([H])C2([H])[H])c(C([H])([H])[H])n1


 38 41  0  0  0  0  0  0  0  0999 V2000
    0.9228  -52.4893  -25.4336 C   0  0  0  0  0  0  0  0  0  0  0  0
    0.5086  -53.3054  -26.4537 C   0  0  0  0  0  0  0  0  0  0  0  0
    0.9313  -52.9636  -27.8314 C   0  0  0  0  0  0  0  0  0  0  0  0
   -0.2546  -54.3689  -26.1652 N   0  0  0  0  0  0  0  0  0  0  0  0
   -0.6368  -54.6767  -24.9138 C   0  0  0  0  0  0  0  0  0  0  0  0
   -0.2416  -53.8918  -23.9079 N   0  0  0  0  0  0  0  0  0  0  0  0
    0.5219  -52.8135  -24.1238 C   0  0  0  0  0  0  0  0  0  0  0  0
    2.4288  -50.4014  -26.0139 C   0  0  0  0  0  0  0  0  0  0  0  0
    1.7291  -51.3517  -25.7408 C   0  0  0  0  0  0  0  0  0  0  0  0
    3.3048  -49.2592  -26.3568 C   0  0  0  0  0  0  0  0  0  0  0  0
    3.4161  -48.4152  -25.1222 C   0  0  0  0  0  0  0  0  0  0  0  0
    4.1745  -49.0791  -24.0192 C   0  0  0  0  0  0  0  0  0  0  0  0
    7.3760  -49.3185  -22.1318 N   0  0  0  0  0  0  0  0  0  0  0  0
    7.3098  -50.3856  -23.0801 C   0  0  0  0  0  0  0  0  0  0  0  0
    5.9947  -50.5198  -23.7849 C   0  0  0  0  0  0  0  0  0  0  0  0
    5.5343  -49.2913  -24.3710 N   0  0  0  0  0  0  0  0  0  0  0  0
    6.4475  -48.2449  -24.0556 C   0  0  0  0  0  0  0  0  0  0  0  0
    6.6351  -48.1560  -22.5808 C   0  0  0  0  0  0  0  0  0  0  0  0
    9.0274  -48.8471  -20.3803 C   0  0  0  0  0  0  0  0  0  0  0  0
    8.7211  -48.8879  -21.8454 C   0  0  0  0  0  0  0  0  0  0  0  0
    1.0062  -51.9512  -23.1122 N   0  0  0  0  0  0  0  0  0  0  0  0
    1.7204  -51.1984  -23.3748 H   0  0  0  0  0  0  0  0  0  0  0  0
    0.6601  -51.9468  -21.7449 C   0  0  0  0  0  0  0  0  0  0  0  0
    0.1078  -53.0336  -21.1304 C   0  0  0  0  0  0  0  0  0  0  0  0
   -0.2089  -53.0310  -19.7631 C   0  0  0  0  0  0  0  0  0  0  0  0
    0.0501  -51.8877  -19.0273 C   0  0  0  0  0  0  0  0  0  0  0  0
    0.6080  -50.7658  -19.6116 C   0  0  0  0  0  0  0  0  0  0  0  0
    0.9023  -49.3674  -18.6115 Cl  0  0  0  0  0  0  0  0  0  0  0  0
    0.9004  -50.8163  -20.9500 C   0  0  0  0  0  0  0  0  0  0  0  0
   -0.2322  -51.8194  -17.6893 O   0  0  0  0  0  0  0  0  0  0  0  0
   -1.0429  -52.6798  -16.9553 C   0  0  0  0  0  0  0  0  0  0  0  0
   -2.1990  -51.9722  -16.3638 C   0  0  0  0  0  0  0  0  0  0  0  0
   -3.4825  -52.5080  -16.4638 C   0  0  0  0  0  0  0  0  0  0  0  0
   -4.5742  -51.8608  -15.9201 C   0  0  0  0  0  0  0  0  0  0  0  0
   -4.4274  -50.6630  -15.2606 C   0  0  0  0  0  0  0  0  0  0  0  0
   -3.1503  -50.1467  -15.1707 C   0  0  0  0  0  0  0  0  0  0  0  0
   -2.9841  -48.9683  -14.5252 F   0  0  0  0  0  0  0  0  0  0  0  0
   -2.0473  -50.7749  -15.7055 C   0  0  0  0  0  0  0  0  0  0  0  0
 19 20  1  0  0  0
 20 13  1  0  0  0
 13 14  1  0  0  0
 14 15  1  0  0  0
 15 16  1  0  0  0
 16 12  1  0  0  0
 12 11  1  0  0  0
 11 10  1  0  0  0
 10  8  1  0  0  0
  8  9  3  0  0  0
  9  1  1  0  0  0
  1  2  2  0  0  0
  2  3  1  0  0  0
  2  4  1  0  0  0
  4  5  2  0  0  0
  5  6  1  0  0  0
  6  7  2  0  0  0
  7 21  1  0  0  0
 21 23  1  0  0  0
 23 24  2  0  0  0
 24 25  1  0  0  0
 25 26  2  0  0  0
 26 30  1  0  0  0
 30 31  1  0  0  0
 31 32  1  0  0  0
 32 33  2  0  0  0
 33 34  1  0  0  0
 34 35  2  0  0  0
 35 36  1  0  0  0
 36 37  1  0  0  0
 36 38  2  0  0  0
 26 27  1  0  0  0
 27 28  1  0  0  0
 27 29  2  0  0  0
 16 17  1  0  0  0
 17 18  1  0  0  0
 18 13  1  0  0  0
  7  1  1  0  0  0
 29 23  1  0  0  0
 38 32  1  0  0  0
 21 22  1  0  0  0
M  END
> <minimizedAffinity>
-7.60145

> <CNNscore>
0.1702860147

> <CNNaffinity>
7.0970125198

> <CNN_VS>
1.2085219622

> <CNNaffinity_variance>
0.1987823397

$$$$
[H]c1nc(N([H])c2c([H])c([H])c([H])c(Br)c2[H])c2c([H])c(N([H])C(=O)N(N=O)C([H])([H])C([H])([H])Cl)c([H])c([H])c2n1


 29 31  0  0  0  0  0  0  0  0999 V2000
    1.0739  -51.6582  -20.6926 C   0  0  0  0  0  0  0  0  0  0  0  0
    0.7139  -52.5782  -19.7597 C   0  0  0  0  0  0  0  0  0  0  0  0
   -0.0295  -53.7164  -20.1182 C   0  0  0  0  0  0  0  0  0  0  0  0
   -0.4147  -53.9375  -21.4056 C   0  0  0  0  0  0  0  0  0  0  0  0
   -1.1238  -55.0147  -21.7832 N   0  0  0  0  0  0  0  0  0  0  0  0
   -1.4982  -55.2255  -23.0568 C   0  0  0  0  0  0  0  0  0  0  0  0
   -1.1478  -54.3224  -23.9821 N   0  0  0  0  0  0  0  0  0  0  0  0
   -0.4319  -53.2011  -23.7016 C   0  0  0  0  0  0  0  0  0  0  0  0
   -0.0553  -52.9990  -22.3930 C   0  0  0  0  0  0  0  0  0  0  0  0
    0.6679  -51.8964  -22.0329 C   0  0  0  0  0  0  0  0  0  0  0  0
    3.7018  -49.1827  -19.4493 N   0  0  0  0  0  0  0  0  0  0  0  0
    3.0300  -50.4355  -19.6795 C   0  0  0  0  0  0  0  0  0  0  0  0
    3.5912  -51.4530  -19.1888 O   0  0  0  0  0  0  0  0  0  0  0  0
    1.8307  -50.5085  -20.4041 N   0  0  0  0  0  0  0  0  0  0  0  0
    1.4681  -49.5568  -20.7742 H   0  0  0  0  0  0  0  0  0  0  0  0
    4.8922  -49.1398  -18.7458 N   0  0  0  0  0  0  0  0  0  0  0  0
    5.9778  -48.7644  -19.2405 O   0  0  0  0  0  0  0  0  0  0  0  0
    3.1250  -47.9769  -19.9591 C   0  0  0  0  0  0  0  0  0  0  0  0
    2.2059  -47.4374  -22.4050 Cl  0  0  0  0  0  0  0  0  0  0  0  0
    3.6387  -47.6381  -21.3449 C   0  0  0  0  0  0  0  0  0  0  0  0
   -0.1191  -52.2577  -24.7059 N   0  0  0  0  0  0  0  0  0  0  0  0
    0.1888  -51.2728  -24.4720 H   0  0  0  0  0  0  0  0  0  0  0  0
   -0.1898  -52.5403  -26.0810 C   0  0  0  0  0  0  0  0  0  0  0  0
   -1.3335  -52.2057  -26.7749 C   0  0  0  0  0  0  0  0  0  0  0  0
   -1.4470  -52.4276  -28.1401 C   0  0  0  0  0  0  0  0  0  0  0  0
   -0.4065  -52.9923  -28.8310 C   0  0  0  0  0  0  0  0  0  0  0  0
    0.7382  -53.3301  -28.1542 C   0  0  0  0  0  0  0  0  0  0  0  0
    2.1667  -54.1109  -29.1313 Br  0  0  0  0  0  0  0  0  0  0  0  0
    0.8373  -53.0982  -26.7708 C   0  0  0  0  0  0  0  0  0  0  0  0
 19 20  1  0  0  0
 20 18  1  0  0  0
 18 11  1  0  0  0
 11 16  1  0  0  0
 16 17  2  0  0  0
 11 12  1  0  0  0
 12 13  2  0  0  0
 12 14  1  0  0  0
 14  1  1  0  0  0
  1  2  2  0  0  0
  2  3  1  0  0  0
  3  4  2  0  0  0
  4  5  1  0  0  0
  5  6  2  0  0  0
  6  7  1  0  0  0
  7  8  2  0  0  0
  8 21  1  0  0  0
 21 23  1  0  0  0
 23 24  2  0  0  0
 24 25  1  0  0  0
 25 26  2  0  0  0
 26 27  1  0  0  0
 27 28  1  0  0  0
 27 29  2  0  0  0
  8  9  1  0  0  0
  9 10  2  0  0  0
 10  1  1  0  0  0
  9  4  1  0  0  0
 29 23  1  0  0  0
 14 15  1  0  0  0
 21 22  1  0  0  0
M  END
> <minimizedAffinity>
-7.14227

> <CNNscore>
0.8809113503

> <CNNaffinity>
7.2499971390

> <CNN_VS>
6.3866047859

> <CNNaffinity_variance>
0.2315528393

$$$$
[H]c1nc(N([H])c2c([H])c([H])c([H])c(Br)c2[H])c2c([H])c(N([H])C(=O)N(N=O)C([H])([H])C([H])([H])Cl)c([H])c([H])c2n1


 29 31  0  0  0  0  0  0  0  0999 V2000
    0.4991  -51.9411  -20.1250 C   0  0  0  0  0  0  0  0  0  0  0  0
   -0.1450  -52.8954  -19.4032 C   0  0  0  0  0  0  0  0  0  0  0  0
   -0.8239  -53.9478  -20.0420 C   0  0  0  0  0  0  0  0  0  0  0  0
   -0.8618  -54.0490  -21.3996 C   0  0  0  0  0  0  0  0  0  0  0  0
   -1.4996  -55.0419  -22.0424 N   0  0  0  0  0  0  0  0  0  0  0  0
   -1.5302  -55.1346  -23.3830 C   0  0  0  0  0  0  0  0  0  0  0  0
   -0.8983  -54.1970  -24.1016 N   0  0  0  0  0  0  0  0  0  0  0  0
   -0.2259  -53.1540  -23.5464 C   0  0  0  0  0  0  0  0  0  0  0  0
   -0.2029  -53.0726  -22.1723 C   0  0  0  0  0  0  0  0  0  0  0  0
    0.4544  -52.0542  -21.5404 C   0  0  0  0  0  0  0  0  0  0  0  0
    3.1900  -49.6457  -18.6865 N   0  0  0  0  0  0  0  0  0  0  0  0
    2.5881  -50.8049  -19.2930 C   0  0  0  0  0  0  0  0  0  0  0  0
    3.3800  -51.7451  -19.5756 O   0  0  0  0  0  0  0  0  0  0  0  0
    1.2103  -50.8734  -19.5490 N   0  0  0  0  0  0  0  0  0  0  0  0
    0.6532  -49.9892  -19.2623 H   0  0  0  0  0  0  0  0  0  0  0  0
    4.5538  -49.5963  -18.4599 N   0  0  0  0  0  0  0  0  0  0  0  0
    5.2510  -48.5738  -18.6407 O   0  0  0  0  0  0  0  0  0  0  0  0
    2.3607  -48.5389  -18.3206 C   0  0  0  0  0  0  0  0  0  0  0  0
    0.3800  -49.1784  -16.6514 Cl  0  0  0  0  0  0  0  0  0  0  0  0
    2.0413  -48.5286  -16.8384 C   0  0  0  0  0  0  0  0  0  0  0  0
    0.3930  -52.1680  -24.3472 N   0  0  0  0  0  0  0  0  0  0  0  0
    0.4940  -51.1660  -24.0226 H   0  0  0  0  0  0  0  0  0  0  0  0
    0.9187  -52.4277  -25.6247 C   0  0  0  0  0  0  0  0  0  0  0  0
    2.2675  -52.6837  -25.7539 C   0  0  0  0  0  0  0  0  0  0  0  0
    2.8366  -52.9817  -26.9840 C   0  0  0  0  0  0  0  0  0  0  0  0
    2.0535  -53.0269  -28.1080 C   0  0  0  0  0  0  0  0  0  0  0  0
    0.7095  -52.7748  -27.9951 C   0  0  0  0  0  0  0  0  0  0  0  0
   -0.3561  -52.8428  -29.5652 Br  0  0  0  0  0  0  0  0  0  0  0  0
    0.1483  -52.4748  -26.7411 C   0  0  0  0  0  0  0  0  0  0  0  0
 19 20  1  0  0  0
 20 18  1  0  0  0
 18 11  1  0  0  0
 11 16  1  0  0  0
 16 17  2  0  0  0
 11 12  1  0  0  0
 12 13  2  0  0  0
 12 14  1  0  0  0
 14  1  1  0  0  0
  1  2  2  0  0  0
  2  3  1  0  0  0
  3  4  2  0  0  0
  4  5  1  0  0  0
  5  6  2  0  0  0
  6  7  1  0  0  0
  7  8  2  0  0  0
  8 21  1  0  0  0
 21 23  1  0  0  0
 23 24  2  0  0  0
 24 25  1  0  0  0
 25 26  2  0  0  0
 26 27  1  0  0  0
 27 28  1  0  0  0
 27 29  2  0  0  0
  8  9  1  0  0  0
  9 10  2  0  0  0
 10  1  1  0  0  0
  9  4  1  0  0  0
 29 23  1  0  0  0
 14 15  1  0  0  0
 21 22  1  0  0  0
M  END
> <minimizedAffinity>
-7.53222

> <CNNscore>
0.8600092530

> <CNNaffinity>
7.1285009384

> <CNN_VS>
6.1305766106

> <CNNaffinity_variance>
0.1340529174

$$$$
[H]c1nc(N([H])c2c([H])c([H])c([H])c(Br)c2[H])c2c([H])c(N([H])C(=O)N(N=O)C([H])([H])C([H])([H])Cl)c([H])c([H])c2n1


 29 31  0  0  0  0  0  0  0  0999 V2000
    0.8844  -51.0786  -20.0279 C   0  0  0  0  0  0  0  0  0  0  0  0
    0.2291  -51.8179  -19.0949 C   0  0  0  0  0  0  0  0  0  0  0  0
   -0.5026  -52.9605  -19.4634 C   0  0  0  0  0  0  0  0  0  0  0  0
   -0.5820  -53.3659  -20.7611 C   0  0  0  0  0  0  0  0  0  0  0  0
   -1.2707  -54.4531  -21.1479 N   0  0  0  0  0  0  0  0  0  0  0  0
   -1.3420  -54.8468  -22.4311 C   0  0  0  0  0  0  0  0  0  0  0  0
   -0.6993  -54.1225  -23.3568 N   0  0  0  0  0  0  0  0  0  0  0  0
    0.0233  -53.0078  -23.0675 C   0  0  0  0  0  0  0  0  0  0  0  0
    0.0875  -52.6172  -21.7490 C   0  0  0  0  0  0  0  0  0  0  0  0
    0.7962  -51.5085  -21.3790 C   0  0  0  0  0  0  0  0  0  0  0  0
    3.2630  -48.5354  -18.4615 N   0  0  0  0  0  0  0  0  0  0  0  0
    2.5483  -49.7693  -18.6623 C   0  0  0  0  0  0  0  0  0  0  0  0
    2.7880  -50.6806  -17.8238 O   0  0  0  0  0  0  0  0  0  0  0  0
    1.6471  -49.9367  -19.7247 N   0  0  0  0  0  0  0  0  0  0  0  0
    1.5465  -49.0733  -20.3717 H   0  0  0  0  0  0  0  0  0  0  0  0
    4.1588  -48.4015  -17.4159 N   0  0  0  0  0  0  0  0  0  0  0  0
    4.4323  -47.3091  -16.8716 O   0  0  0  0  0  0  0  0  0  0  0  0
    3.0386  -47.4442  -19.3591 C   0  0  0  0  0  0  0  0  0  0  0  0
    3.4498  -46.3351  -21.7505 Cl  0  0  0  0  0  0  0  0  0  0  0  0
    4.1081  -47.3551  -20.4302 C   0  0  0  0  0  0  0  0  0  0  0  0
    0.6524  -52.2546  -24.0841 N   0  0  0  0  0  0  0  0  0  0  0  0
    1.3096  -51.4554  -23.8629 H   0  0  0  0  0  0  0  0  0  0  0  0
    0.4619  -52.4964  -25.4556 C   0  0  0  0  0  0  0  0  0  0  0  0
    1.5312  -52.9225  -26.2148 C   0  0  0  0  0  0  0  0  0  0  0  0
    1.3951  -53.2112  -27.5653 C   0  0  0  0  0  0  0  0  0  0  0  0
    0.1753  -53.0749  -28.1753 C   0  0  0  0  0  0  0  0  0  0  0  0
   -0.8983  -52.6522  -27.4328 C   0  0  0  0  0  0  0  0  0  0  0  0
   -2.5784  -52.4703  -28.2983 Br  0  0  0  0  0  0  0  0  0  0  0  0
   -0.7437  -52.3641  -26.0650 C   0  0  0  0  0  0  0  0  0  0  0  0
 19 20  1  0  0  0
 20 18  1  0  0  0
 18 11  1  0  0  0
 11 16  1  0  0  0
 16 17  2  0  0  0
 11 12  1  0  0  0
 12 13  2  0  0  0
 12 14  1  0  0  0
 14  1  1  0  0  0
  1  2  2  0  0  0
  2  3  1  0  0  0
  3  4  2  0  0  0
  4  5  1  0  0  0
  5  6  2  0  0  0
  6  7  1  0  0  0
  7  8  2  0  0  0
  8 21  1  0  0  0
 21 23  1  0  0  0
 23 24  2  0  0  0
 24 25  1  0  0  0
 25 26  2  0  0  0
 26 27  1  0  0  0
 27 28  1  0  0  0
 27 29  2  0  0  0
  8  9  1  0  0  0
  9 10  2  0  0  0
 10  1  1  0  0  0
  9  4  1  0  0  0
 29 23  1  0  0  0
 14 15  1  0  0  0
 21 22  1  0  0  0
M  END
> <minimizedAffinity>
-7.06972

> <CNNscore>
0.8547963500

> <CNNaffinity>
7.2041597366

> <CNN_VS>
6.1580896378

> <CNNaffinity_variance>
0.3604039550

$$$$
[H]c1nc(N([H])c2c([H])c([H])c([H])c(Br)c2[H])c2c([H])c(N([H])C(=O)N(N=O)C([H])([H])C([H])([H])Cl)c([H])c([H])c2n1


 29 31  0  0  0  0  0  0  0  0999 V2000
    0.5353  -52.0242  -20.6050 C   0  0  0  0  0  0  0  0  0  0  0  0
   -0.0440  -53.0066  -19.8663 C   0  0  0  0  0  0  0  0  0  0  0  0
   -0.6857  -54.0928  -20.4869 C   0  0  0  0  0  0  0  0  0  0  0  0
   -0.7508  -54.1998  -21.8430 C   0  0  0  0  0  0  0  0  0  0  0  0
   -1.3544  -55.2245  -22.4687 N   0  0  0  0  0  0  0  0  0  0  0  0
   -1.4123  -55.3226  -23.8079 C   0  0  0  0  0  0  0  0  0  0  0  0
   -0.8442  -54.3574  -24.5431 N   0  0  0  0  0  0  0  0  0  0  0  0
   -0.2105  -53.2811  -24.0059 C   0  0  0  0  0  0  0  0  0  0  0  0
   -0.1589  -53.1946  -22.6330 C   0  0  0  0  0  0  0  0  0  0  0  0
    0.4626  -52.1435  -22.0187 C   0  0  0  0  0  0  0  0  0  0  0  0
    3.0566  -49.6965  -18.9305 N   0  0  0  0  0  0  0  0  0  0  0  0
    2.4877  -50.9021  -19.4752 C   0  0  0  0  0  0  0  0  0  0  0  0
    3.2156  -51.9295  -19.4021 O   0  0  0  0  0  0  0  0  0  0  0  0
    1.2070  -50.9213  -20.0480 N   0  0  0  0  0  0  0  0  0  0  0  0
    0.6990  -49.9642  -20.0506 H   0  0  0  0  0  0  0  0  0  0  0  0
    4.3284  -49.7003  -18.3862 N   0  0  0  0  0  0  0  0  0  0  0  0
    5.3382  -49.2595  -18.9780 O   0  0  0  0  0  0  0  0  0  0  0  0
    2.2915  -48.4881  -18.9594 C   0  0  0  0  0  0  0  0  0  0  0  0
    1.5769  -48.0173  -21.4864 Cl  0  0  0  0  0  0  0  0  0  0  0  0
    2.6702  -47.5987  -20.1275 C   0  0  0  0  0  0  0  0  0  0  0  0
    0.3404  -52.2685  -24.8230 N   0  0  0  0  0  0  0  0  0  0  0  0
   -0.2494  -51.7221  -25.5109 H   0  0  0  0  0  0  0  0  0  0  0  0
    1.6980  -51.9056  -24.7949 C   0  0  0  0  0  0  0  0  0  0  0  0
    2.6565  -52.8917  -24.8961 C   0  0  0  0  0  0  0  0  0  0  0  0
    4.0111  -52.5906  -24.9100 C   0  0  0  0  0  0  0  0  0  0  0  0
    4.4238  -51.2865  -24.8219 C   0  0  0  0  0  0  0  0  0  0  0  0
    3.4816  -50.2942  -24.7211 C   0  0  0  0  0  0  0  0  0  0  0  0
    4.0759  -48.4949  -24.6001 Br  0  0  0  0  0  0  0  0  0  0  0  0
    2.1128  -50.6161  -24.7088 C   0  0  0  0  0  0  0  0  0  0  0  0
 19 20  1  0  0  0
 20 18  1  0  0  0
 18 11  1  0  0  0
 11 16  1  0  0  0
 16 17  2  0  0  0
 11 12  1  0  0  0
 12 13  2  0  0  0
 12 14  1  0  0  0
 14  1  1  0  0  0
  1  2  2  0  0  0
  2  3  1  0  0  0
  3  4  2  0  0  0
  4  5  1  0  0  0
  5  6  2  0  0  0
  6  7  1  0  0  0
  7  8  2  0  0  0
  8 21  1  0  0  0
 21 23  1  0  0  0
 23 24  2  0  0  0
 24 25  1  0  0  0
 25 26  2  0  0  0
 26 27  1  0  0  0
 27 28  1  0  0  0
 27 29  2  0  0  0
  8  9  1  0  0  0
  9 10  2  0  0  0
 10  1  1  0  0  0
  9  4  1  0  0  0
 29 23  1  0  0  0
 14 15  1  0  0  0
 21 22  1  0  0  0
M  END
> <minimizedAffinity>
-7.18517

> <CNNscore>
0.7247585058

> <CNNaffinity>
6.8654441833

> <CNN_VS>
4.9757890701

> <CNNaffinity_variance>
0.1264697462

$$$$
[H]c1nc(N([H])c2c([H])c([H])c([H])c(Br)c2[H])c2c([H])c(N([H])C(=O)N(N=O)C([H])([H])C([H])([H])Cl)c([H])c([H])c2n1


 29 31  0  0  0  0  0  0  0  0999 V2000
   -0.5932  -53.8891  -23.9952 C   0  0  0  0  0  0  0  0  0  0  0  0
   -1.3139  -54.8292  -23.3295 C   0  0  0  0  0  0  0  0  0  0  0  0
   -1.4698  -54.7640  -21.9337 C   0  0  0  0  0  0  0  0  0  0  0  0
   -0.9073  -53.7630  -21.2015 C   0  0  0  0  0  0  0  0  0  0  0  0
   -1.0375  -53.6694  -19.8673 N   0  0  0  0  0  0  0  0  0  0  0  0
   -0.4800  -52.6767  -19.1529 C   0  0  0  0  0  0  0  0  0  0  0  0
    0.2329  -51.7466  -19.8021 N   0  0  0  0  0  0  0  0  0  0  0  0
    0.4232  -51.7527  -21.1483 C   0  0  0  0  0  0  0  0  0  0  0  0
   -0.1542  -52.7754  -21.8665 C   0  0  0  0  0  0  0  0  0  0  0  0
   -0.0097  -52.8487  -23.2238 C   0  0  0  0  0  0  0  0  0  0  0  0
    0.8383  -53.7957  -27.5338 N   0  0  0  0  0  0  0  0  0  0  0  0
    0.7970  -53.7954  -26.0943 C   0  0  0  0  0  0  0  0  0  0  0  0
    1.9152  -53.7093  -25.5171 O   0  0  0  0  0  0  0  0  0  0  0  0
   -0.4131  -53.8862  -25.3900 N   0  0  0  0  0  0  0  0  0  0  0  0
   -1.2948  -53.9633  -26.0152 H   0  0  0  0  0  0  0  0  0  0  0  0
    2.0460  -53.7220  -28.2046 N   0  0  0  0  0  0  0  0  0  0  0  0
    2.4910  -54.6342  -28.9354 O   0  0  0  0  0  0  0  0  0  0  0  0
   -0.3871  -53.8753  -28.2677 C   0  0  0  0  0  0  0  0  0  0  0  0
   -2.6659  -52.4882  -28.3000 Cl  0  0  0  0  0  0  0  0  0  0  0  0
   -0.9090  -52.5070  -28.6604 C   0  0  0  0  0  0  0  0  0  0  0  0
    1.2158  -50.7705  -21.7836 N   0  0  0  0  0  0  0  0  0  0  0  0
    0.7873  -49.9326  -22.2671 H   0  0  0  0  0  0  0  0  0  0  0  0
    2.6198  -50.8208  -21.8291 C   0  0  0  0  0  0  0  0  0  0  0  0
    3.3432  -50.2611  -20.7973 C   0  0  0  0  0  0  0  0  0  0  0  0
    4.7298  -50.3118  -20.7701 C   0  0  0  0  0  0  0  0  0  0  0  0
    5.4126  -50.9294  -21.7855 C   0  0  0  0  0  0  0  0  0  0  0  0
    4.7064  -51.4914  -22.8190 C   0  0  0  0  0  0  0  0  0  0  0  0
    5.6728  -52.3416  -24.2148 Br  0  0  0  0  0  0  0  0  0  0  0  0
    3.3015  -51.4317  -22.8313 C   0  0  0  0  0  0  0  0  0  0  0  0
 19 20  1  0  0  0
 20 18  1  0  0  0
 18 11  1  0  0  0
 11 16  1  0  0  0
 16 17  2  0  0  0
 11 12  1  0  0  0
 12 13  2  0  0  0
 12 14  1  0  0  0
 14  1  1  0  0  0
  1  2  2  0  0  0
  2  3  1  0  0  0
  3  4  2  0  0  0
  4  5  1  0  0  0
  5  6  2  0  0  0
  6  7  1  0  0  0
  7  8  2  0  0  0
  8 21  1  0  0  0
 21 23  1  0  0  0
 23 24  2  0  0  0
 24 25  1  0  0  0
 25 26  2  0  0  0
 26 27  1  0  0  0
 27 28  1  0  0  0
 27 29  2  0  0  0
  8  9  1  0  0  0
  9 10  2  0  0  0
 10  1  1  0  0  0
  9  4  1  0  0  0
 29 23  1  0  0  0
 14 15  1  0  0  0
 21 22  1  0  0  0
M  END
> <minimizedAffinity>
-8.44640

> <CNNscore>
0.7184895873

> <CNNaffinity>
7.3863463402

> <CNN_VS>
5.3070130348

> <CNNaffinity_variance>
0.1118773967

$$$$
[H]c1nc(N([H])c2c([H])c([H])c([H])c(Br)c2[H])c2c([H])c(N([H])C(=O)N(N=O)C([H])([H])C([H])([H])Cl)c([H])c([H])c2n1


 29 31  0  0  0  0  0  0  0  0999 V2000
    1.4175  -51.1595  -23.9102 C   0  0  0  0  0  0  0  0  0  0  0  0
    0.7299  -51.4479  -25.0461 C   0  0  0  0  0  0  0  0  0  0  0  0
   -0.1884  -52.5119  -25.0831 C   0  0  0  0  0  0  0  0  0  0  0  0
   -0.4209  -53.2887  -23.9889 C   0  0  0  0  0  0  0  0  0  0  0  0
   -1.2922  -54.3118  -23.9888 N   0  0  0  0  0  0  0  0  0  0  0  0
   -1.5165  -55.0721  -22.9034 C   0  0  0  0  0  0  0  0  0  0  0  0
   -0.8416  -54.7945  -21.7800 N   0  0  0  0  0  0  0  0  0  0  0  0
    0.0604  -53.7822  -21.6783 C   0  0  0  0  0  0  0  0  0  0  0  0
    0.2791  -53.0120  -22.7981 C   0  0  0  0  0  0  0  0  0  0  0  0
    1.1691  -51.9747  -22.7737 C   0  0  0  0  0  0  0  0  0  0  0  0
    4.3445  -48.7487  -24.3580 N   0  0  0  0  0  0  0  0  0  0  0  0
    3.4794  -49.8777  -24.5835 C   0  0  0  0  0  0  0  0  0  0  0  0
    3.8187  -50.6446  -25.5256 O   0  0  0  0  0  0  0  0  0  0  0  0
    2.3361  -50.1002  -23.8011 N   0  0  0  0  0  0  0  0  0  0  0  0
    2.1626  -49.3558  -23.0331 H   0  0  0  0  0  0  0  0  0  0  0  0
    5.4568  -48.5425  -25.1544 N   0  0  0  0  0  0  0  0  0  0  0  0
    6.6203  -48.8516  -24.8153 O   0  0  0  0  0  0  0  0  0  0  0  0
    4.0406  -47.8364  -23.2988 C   0  0  0  0  0  0  0  0  0  0  0  0
    3.5430  -45.3596  -22.4412 Cl  0  0  0  0  0  0  0  0  0  0  0  0
    3.5223  -46.5093  -23.8176 C   0  0  0  0  0  0  0  0  0  0  0  0
    0.7763  -53.5523  -20.4821 N   0  0  0  0  0  0  0  0  0  0  0  0
    1.7532  -53.9306  -20.3332 H   0  0  0  0  0  0  0  0  0  0  0  0
    0.2611  -52.8144  -19.4024 C   0  0  0  0  0  0  0  0  0  0  0  0
   -0.8226  -53.3107  -18.7091 C   0  0  0  0  0  0  0  0  0  0  0  0
   -1.3519  -52.6443  -17.6129 C   0  0  0  0  0  0  0  0  0  0  0  0
   -0.7962  -51.4628  -17.1958 C   0  0  0  0  0  0  0  0  0  0  0  0
    0.2828  -50.9566  -17.8754 C   0  0  0  0  0  0  0  0  0  0  0  0
    1.0365  -49.3187  -17.2801 Br  0  0  0  0  0  0  0  0  0  0  0  0
    0.8075  -51.6445  -18.9840 C   0  0  0  0  0  0  0  0  0  0  0  0
 19 20  1  0  0  0
 20 18  1  0  0  0
 18 11  1  0  0  0
 11 16  1  0  0  0
 16 17  2  0  0  0
 11 12  1  0  0  0
 12 13  2  0  0  0
 12 14  1  0  0  0
 14  1  1  0  0  0
  1  2  2  0  0  0
  2  3  1  0  0  0
  3  4  2  0  0  0
  4  5  1  0  0  0
  5  6  2  0  0  0
  6  7  1  0  0  0
  7  8  2  0  0  0
  8 21  1  0  0  0
 21 23  1  0  0  0
 23 24  2  0  0  0
 24 25  1  0  0  0
 25 26  2  0  0  0
 26 27  1  0  0  0
 27 28  1  0  0  0
 27 29  2  0  0  0
  8  9  1  0  0  0
  9 10  2  0  0  0
 10  1  1  0  0  0
  9  4  1  0  0  0
 29 23  1  0  0  0
 14 15  1  0  0  0
 21 22  1  0  0  0
M  END
> <minimizedAffinity>
-6.47962

> <CNNscore>
0.5361981392

> <CNNaffinity>
6.8007860184

> <CNN_VS>
3.6465687752

> <CNNaffinity_variance>
0.2946164012

$$$$
[H]c1nc(N([H])c2c([H])c([H])c([H])c(Br)c2[H])c2c([H])c(N([H])C(=O)N(N=O)C([H])([H])C([H])([H])Cl)c([H])c([H])c2n1


 29 31  0  0  0  0  0  0  0  0999 V2000
   -0.1921  -53.9596  -24.3855 C   0  0  0  0  0  0  0  0  0  0  0  0
   -0.9500  -54.9970  -23.9430 C   0  0  0  0  0  0  0  0  0  0  0  0
   -1.3767  -55.0594  -22.6048 C   0  0  0  0  0  0  0  0  0  0  0  0
   -1.0477  -54.0891  -21.7076 C   0  0  0  0  0  0  0  0  0  0  0  0
   -1.4397  -54.1165  -20.4226 N   0  0  0  0  0  0  0  0  0  0  0  0
   -1.1115  -53.1532  -19.5445 C   0  0  0  0  0  0  0  0  0  0  0  0
   -0.3636  -52.1277  -19.9730 N   0  0  0  0  0  0  0  0  0  0  0  0
    0.0824  -52.0085  -21.2518 C   0  0  0  0  0  0  0  0  0  0  0  0
   -0.2621  -53.0025  -22.1397 C   0  0  0  0  0  0  0  0  0  0  0  0
    0.1467  -52.9520  -23.4431 C   0  0  0  0  0  0  0  0  0  0  0  0
    0.1341  -53.1946  -28.1121 N   0  0  0  0  0  0  0  0  0  0  0  0
   -0.4394  -53.2585  -26.7927 C   0  0  0  0  0  0  0  0  0  0  0  0
   -1.5967  -52.7703  -26.6773 O   0  0  0  0  0  0  0  0  0  0  0  0
    0.2526  -53.8279  -25.7131 N   0  0  0  0  0  0  0  0  0  0  0  0
    1.2409  -54.2000  -25.9560 H   0  0  0  0  0  0  0  0  0  0  0  0
   -0.5623  -52.6128  -29.1563 N   0  0  0  0  0  0  0  0  0  0  0  0
   -1.3426  -53.2406  -29.9055 O   0  0  0  0  0  0  0  0  0  0  0  0
    1.4382  -53.7392  -28.3339 C   0  0  0  0  0  0  0  0  0  0  0  0
    3.3081  -52.9725  -26.5922 Cl  0  0  0  0  0  0  0  0  0  0  0  0
    2.5276  -52.6954  -28.1831 C   0  0  0  0  0  0  0  0  0  0  0  0
    0.9014  -50.9271  -21.6473 N   0  0  0  0  0  0  0  0  0  0  0  0
    0.4957  -50.0322  -22.0396 H   0  0  0  0  0  0  0  0  0  0  0  0
    2.3040  -50.9463  -21.5569 C   0  0  0  0  0  0  0  0  0  0  0  0
    2.9007  -50.6569  -20.3479 C   0  0  0  0  0  0  0  0  0  0  0  0
    4.2788  -50.6951  -20.1894 C   0  0  0  0  0  0  0  0  0  0  0  0
    5.0813  -51.0265  -21.2500 C   0  0  0  0  0  0  0  0  0  0  0  0
    4.5021  -51.3174  -22.4593 C   0  0  0  0  0  0  0  0  0  0  0  0
    5.6328  -51.7739  -23.9147 Br  0  0  0  0  0  0  0  0  0  0  0  0
    3.1039  -51.2746  -22.6032 C   0  0  0  0  0  0  0  0  0  0  0  0
 19 20  1  0  0  0
 20 18  1  0  0  0
 18 11  1  0  0  0
 11 16  1  0  0  0
 16 17  2  0  0  0
 11 12  1  0  0  0
 12 13  2  0  0  0
 12 14  1  0  0  0
 14  1  1  0  0  0
  1  2  2  0  0  0
  2  3  1  0  0  0
  3  4  2  0  0  0
  4  5  1  0  0  0
  5  6  2  0  0  0
  6  7  1  0  0  0
  7  8  2  0  0  0
  8 21  1  0  0  0
 21 23  1  0  0  0
 23 24  2  0  0  0
 24 25  1  0  0  0
 25 26  2  0  0  0
 26 27  1  0  0  0
 27 28  1  0  0  0
 27 29  2  0  0  0
  8  9  1  0  0  0
  9 10  2  0  0  0
 10  1  1  0  0  0
  9  4  1  0  0  0
 29 23  1  0  0  0
 14 15  1  0  0  0
 21 22  1  0  0  0
M  END
> <minimizedAffinity>
-7.84061

> <CNNscore>
0.4923184514

> <CNNaffinity>
7.0062355995

> <CNN_VS>
3.4492990971

> <CNNaffinity_variance>
0.0516645126

$$$$
[H]c1nc(N([H])c2c([H])c([H])c([H])c(Br)c2[H])c2c([H])c(N([H])C(=O)N(N=O)C([H])([H])C([H])([H])Cl)c([H])c([H])c2n1


 29 31  0  0  0  0  0  0  0  0999 V2000
   -0.8220  -53.5533  -21.0892 C   0  0  0  0  0  0  0  0  0  0  0  0
   -1.5035  -54.6370  -21.5448 C   0  0  0  0  0  0  0  0  0  0  0  0
   -1.4454  -55.0086  -22.8995 C   0  0  0  0  0  0  0  0  0  0  0  0
   -0.7091  -54.3004  -23.8000 C   0  0  0  0  0  0  0  0  0  0  0  0
   -0.6301  -54.6283  -25.1008 N   0  0  0  0  0  0  0  0  0  0  0  0
    0.1006  -53.9242  -25.9822 C   0  0  0  0  0  0  0  0  0  0  0  0
    0.7746  -52.8539  -25.5407 N   0  0  0  0  0  0  0  0  0  0  0  0
    0.7593  -52.4405  -24.2456 C   0  0  0  0  0  0  0  0  0  0  0  0
    0.0068  -53.1718  -23.3546 C   0  0  0  0  0  0  0  0  0  0  0  0
   -0.0568  -52.8202  -22.0351 C   0  0  0  0  0  0  0  0  0  0  0  0
   -0.2277  -51.7328  -17.7858 N   0  0  0  0  0  0  0  0  0  0  0  0
   -0.1453  -52.0428  -19.1897 C   0  0  0  0  0  0  0  0  0  0  0  0
    0.5726  -51.2668  -19.8779 O   0  0  0  0  0  0  0  0  0  0  0  0
   -0.8236  -53.1380  -19.7455 N   0  0  0  0  0  0  0  0  0  0  0  0
   -1.4097  -53.7125  -19.0381 H   0  0  0  0  0  0  0  0  0  0  0  0
    0.4375  -50.6371  -17.2654 N   0  0  0  0  0  0  0  0  0  0  0  0
    1.1052  -50.6681  -16.2083 O   0  0  0  0  0  0  0  0  0  0  0  0
   -1.0094  -52.5714  -16.9301 C   0  0  0  0  0  0  0  0  0  0  0  0
   -3.6391  -52.6803  -16.4932 Cl  0  0  0  0  0  0  0  0  0  0  0  0
   -2.1014  -51.8000  -16.2149 C   0  0  0  0  0  0  0  0  0  0  0  0
    1.4562  -51.2820  -23.8351 N   0  0  0  0  0  0  0  0  0  0  0  0
    1.0493  -50.3126  -23.9543 H   0  0  0  0  0  0  0  0  0  0  0  0
    2.7308  -51.3155  -23.2435 C   0  0  0  0  0  0  0  0  0  0  0  0
    3.6854  -52.1668  -23.7586 C   0  0  0  0  0  0  0  0  0  0  0  0
    4.9712  -52.2173  -23.2390 C   0  0  0  0  0  0  0  0  0  0  0  0
    5.3176  -51.4083  -22.1882 C   0  0  0  0  0  0  0  0  0  0  0  0
    4.3785  -50.5556  -21.6652 C   0  0  0  0  0  0  0  0  0  0  0  0
    4.8802  -49.4440  -20.2099 Br  0  0  0  0  0  0  0  0  0  0  0  0
    3.0800  -50.5162  -22.2035 C   0  0  0  0  0  0  0  0  0  0  0  0
 19 20  1  0  0  0
 20 18  1  0  0  0
 18 11  1  0  0  0
 11 16  1  0  0  0
 16 17  2  0  0  0
 11 12  1  0  0  0
 12 13  2  0  0  0
 12 14  1  0  0  0
 14  1  1  0  0  0
  1  2  2  0  0  0
  2  3  1  0  0  0
  3  4  2  0  0  0
  4  5  1  0  0  0
  5  6  2  0  0  0
  6  7  1  0  0  0
  7  8  2  0  0  0
  8 21  1  0  0  0
 21 23  1  0  0  0
 23 24  2  0  0  0
 24 25  1  0  0  0
 25 26  2  0  0  0
 26 27  1  0  0  0
 27 28  1  0  0  0
 27 29  2  0  0  0
  8  9  1  0  0  0
  9 10  2  0  0  0
 10  1  1  0  0  0
  9  4  1  0  0  0
 29 23  1  0  0  0
 14 15  1  0  0  0
 21 22  1  0  0  0
M  END
> <minimizedAffinity>
-7.48653

> <CNNscore>
0.3977174759

> <CNNaffinity>
6.7342591286

> <CNN_VS>
2.6783325672

> <CNNaffinity_variance>
0.0857245848

$$$$
[H]c1nc(N([H])c2c([H])c([H])c([H])c(Br)c2[H])c2c([H])c(N([H])C(=O)N(N=O)C([H])([H])C([H])([H])Cl)c([H])c([H])c2n1


 29 31  0  0  0  0  0  0  0  0999 V2000
   -0.0721  -53.4020  -23.0571 C   0  0  0  0  0  0  0  0  0  0  0  0
   -0.5235  -54.3938  -22.2453 C   0  0  0  0  0  0  0  0  0  0  0  0
   -0.6325  -54.1966  -20.8575 C   0  0  0  0  0  0  0  0  0  0  0  0
   -0.2913  -53.0120  -20.2787 C   0  0  0  0  0  0  0  0  0  0  0  0
   -0.3846  -52.7891  -18.9568 N   0  0  0  0  0  0  0  0  0  0  0  0
   -0.0470  -51.6159  -18.3945 C   0  0  0  0  0  0  0  0  0  0  0  0
    0.3997  -50.6336  -19.1883 N   0  0  0  0  0  0  0  0  0  0  0  0
    0.5303  -50.7597  -20.5357 C   0  0  0  0  0  0  0  0  0  0  0  0
    0.1803  -51.9669  -21.0972 C   0  0  0  0  0  0  0  0  0  0  0  0
    0.2817  -52.1698  -22.4452 C   0  0  0  0  0  0  0  0  0  0  0  0
    1.1756  -53.5053  -26.6643 N   0  0  0  0  0  0  0  0  0  0  0  0
    1.1978  -53.3530  -25.2325 C   0  0  0  0  0  0  0  0  0  0  0  0
    2.3172  -53.0548  -24.7336 O   0  0  0  0  0  0  0  0  0  0  0  0
    0.0444  -53.5277  -24.4530 N   0  0  0  0  0  0  0  0  0  0  0  0
   -0.8445  -53.7905  -25.0143 H   0  0  0  0  0  0  0  0  0  0  0  0
    2.3305  -53.3441  -27.4087 N   0  0  0  0  0  0  0  0  0  0  0  0
    2.6385  -52.2808  -27.9908 O   0  0  0  0  0  0  0  0  0  0  0  0
   -0.0577  -53.8287  -27.3133 C   0  0  0  0  0  0  0  0  0  0  0  0
   -0.5980  -52.6617  -29.6508 Cl  0  0  0  0  0  0  0  0  0  0  0  0
   -0.7534  -52.5997  -27.8651 C   0  0  0  0  0  0  0  0  0  0  0  0
    1.0428  -49.7071  -21.3268 N   0  0  0  0  0  0  0  0  0  0  0  0
    0.4706  -49.2525  -22.0919 H   0  0  0  0  0  0  0  0  0  0  0  0
    2.3371  -49.1816  -21.1699 C   0  0  0  0  0  0  0  0  0  0  0  0
    2.4832  -47.8823  -20.7322 C   0  0  0  0  0  0  0  0  0  0  0  0
    3.7354  -47.3212  -20.5246 C   0  0  0  0  0  0  0  0  0  0  0  0
    4.8649  -48.0626  -20.7554 C   0  0  0  0  0  0  0  0  0  0  0  0
    4.7354  -49.3573  -21.1908 C   0  0  0  0  0  0  0  0  0  0  0  0
    6.3134  -50.3658  -21.5041 Br  0  0  0  0  0  0  0  0  0  0  0  0
    3.4592  -49.9111  -21.3959 C   0  0  0  0  0  0  0  0  0  0  0  0
 19 20  1  0  0  0
 20 18  1  0  0  0
 18 11  1  0  0  0
 11 16  1  0  0  0
 16 17  2  0  0  0
 11 12  1  0  0  0
 12 13  2  0  0  0
 12 14  1  0  0  0
 14  1  1  0  0  0
  1  2  2  0  0  0
  2  3  1  0  0  0
  3  4  2  0  0  0
  4  5  1  0  0  0
  5  6  2  0  0  0
  6  7  1  0  0  0
  7  8  2  0  0  0
  8 21  1  0  0  0
 21 23  1  0  0  0
 23 24  2  0  0  0
 24 25  1  0  0  0
 25 26  2  0  0  0
 26 27  1  0  0  0
 27 28  1  0  0  0
 27 29  2  0  0  0
  8  9  1  0  0  0
  9 10  2  0  0  0
 10  1  1  0  0  0
  9  4  1  0  0  0
 29 23  1  0  0  0
 14 15  1  0  0  0
 21 22  1  0  0  0
M  END
> <minimizedAffinity>
-7.68682

> <CNNscore>
0.2737085223

> <CNNaffinity>
6.6692938805

> <CNN_VS>
1.8254425526

> <CNNaffinity_variance>
0.0547172539

$$$$
[H]/C(=C(/F)C(=O)N([H])c1c(OC([H])([H])C([H])([H])[H])c([H])c2nc([H])nc(N([H])c3c([H])c([H])c(OC([H])([H])C4([H])C([H])([H])C4([H])[H])c(Cl)c3[H])c2c1[H])C([H])([H])N(C([H])([H])[H])C([H])([H])[H]


 38 41  0  0  0  0  0  0  0  0999 V2000
    0.5523  -52.5325  -26.1705 C   0  0  0  0  0  0  0  0  0  0  0  0
   -0.2058  -53.6011  -25.7717 C   0  0  0  0  0  0  0  0  0  0  0  0
   -0.4012  -53.8778  -24.4293 C   0  0  0  0  0  0  0  0  0  0  0  0
   -1.1569  -54.9465  -24.0547 N   0  0  0  0  0  0  0  0  0  0  0  0
   -1.3350  -55.2025  -22.7423 C   0  0  0  0  0  0  0  0  0  0  0  0
   -0.7993  -54.4490  -21.7858 N   0  0  0  0  0  0  0  0  0  0  0  0
   -0.0466  -53.3847  -22.0863 C   0  0  0  0  0  0  0  0  0  0  0  0
    0.1452  -53.1088  -23.4286 C   0  0  0  0  0  0  0  0  0  0  0  0
    0.9117  -52.0271  -23.8723 C   0  0  0  0  0  0  0  0  0  0  0  0
    1.1349  -51.7113  -25.1837 C   0  0  0  0  0  0  0  0  0  0  0  0
    1.9216  -50.6225  -25.6230 N   0  0  0  0  0  0  0  0  0  0  0  0
    3.2966  -50.5195  -25.6255 C   0  0  0  0  0  0  0  0  0  0  0  0
    4.0429  -51.4346  -25.2087 O   0  0  0  0  0  0  0  0  0  0  0  0
    1.3930  -49.7649  -26.0049 H   0  0  0  0  0  0  0  0  0  0  0  0
    3.9766  -49.3196  -26.1226 C   0  0  0  0  0  0  0  0  0  0  0  0
    3.4420  -48.6221  -27.1903 F   0  0  0  0  0  0  0  0  0  0  0  0
    5.0920  -48.8430  -25.6141 C   0  0  0  0  0  0  0  0  0  0  0  0
    5.6867  -47.5974  -26.2224 C   0  0  0  0  0  0  0  0  0  0  0  0
    7.0454  -47.5273  -25.7100 N   0  0  0  0  0  0  0  0  0  0  0  0
    7.0687  -47.3983  -24.2603 C   0  0  0  0  0  0  0  0  0  0  0  0
    7.7353  -48.7522  -26.1269 C   0  0  0  0  0  0  0  0  0  0  0  0
    0.5598  -52.5795  -21.0882 N   0  0  0  0  0  0  0  0  0  0  0  0
    1.4764  -52.1023  -21.2946 H   0  0  0  0  0  0  0  0  0  0  0  0
    0.0554  -52.3244  -19.7946 C   0  0  0  0  0  0  0  0  0  0  0  0
   -0.7857  -53.1490  -19.0968 C   0  0  0  0  0  0  0  0  0  0  0  0
   -1.1858  -52.8050  -17.8149 C   0  0  0  0  0  0  0  0  0  0  0  0
   -0.7791  -51.6439  -17.1727 C   0  0  0  0  0  0  0  0  0  0  0  0
    0.0932  -50.7923  -17.9028 C   0  0  0  0  0  0  0  0  0  0  0  0
    0.6366  -49.3126  -17.1359 Cl  0  0  0  0  0  0  0  0  0  0  0  0
    0.4676  -51.1583  -19.1569 C   0  0  0  0  0  0  0  0  0  0  0  0
   -1.1755  -51.3605  -15.9719 O   0  0  0  0  0  0  0  0  0  0  0  0
   -1.8816  -50.8004  -15.0200 C   0  0  0  0  0  0  0  0  0  0  0  0
   -3.3038  -51.2244  -14.7722 C   0  0  0  0  0  0  0  0  0  0  0  0
   -4.1978  -51.7761  -15.8303 C   0  0  0  0  0  0  0  0  0  0  0  0
   -4.4182  -50.3597  -15.2886 C   0  0  0  0  0  0  0  0  0  0  0  0
    0.7524  -52.2474  -27.4978 O   0  0  0  0  0  0  0  0  0  0  0  0
   -0.8096  -52.5754  -29.2727 C   0  0  0  0  0  0  0  0  0  0  0  0
    0.4424  -53.0329  -28.5843 C   0  0  0  0  0  0  0  0  0  0  0  0
 37 38  1  0  0  0
 38 36  1  0  0  0
 36  1  1  0  0  0
  1  2  2  0  0  0
  2  3  1  0  0  0
  3  4  2  0  0  0
  4  5  1  0  0  0
  5  6  2  0  0  0
  6  7  1  0  0  0
  7 22  1  0  0  0
 22 24  1  0  0  0
 24 25  2  0  0  0
 25 26  1  0  0  0
 26 27  2  0  0  0
 27 31  1  0  0  0
 31 32  1  0  0  0
 32 33  1  0  0  0
 33 34  1  0  0  0
 34 35  1  0  0  0
 27 28  1  0  0  0
 28 29  1  0  0  0
 28 30  2  0  0  0
  7  8  2  0  0  0
  8  9  1  0  0  0
  9 10  2  0  0  0
 10 11  1  0  0  0
 11 12  1  0  0  0
 12 13  2  0  0  0
 12 15  1  0  0  0
 15 16  1  0  0  0
 15 17  2  0  0  0
 17 18  1  0  0  0
 18 19  1  0  0  0
 19 20  1  0  0  0
 19 21  1  0  0  0
 10  1  1  0  0  0
  8  3  1  0  0  0
 30 24  1  0  0  0
 35 33  1  0  0  0
 22 23  1  0  0  0
 11 14  1  0  0  0
M  END
> <minimizedAffinity>
-7.84511

> <CNNscore>
0.6886981726

> <CNNaffinity>
7.5688276291

> <CNN_VS>
5.2126379013

> <CNNaffinity_variance>
0.1307934970

$$$$
[H]/C(=C(/F)C(=O)N([H])c1c(OC([H])([H])C([H])([H])[H])c([H])c2nc([H])nc(N([H])c3c([H])c([H])c(OC([H])([H])C4([H])C([H])([H])C4([H])[H])c(Cl)c3[H])c2c1[H])C([H])([H])N(C([H])([H])[H])C([H])([H])[H]


 38 41  0  0  0  0  0  0  0  0999 V2000
    0.5614  -52.5031  -26.2076 C   0  0  0  0  0  0  0  0  0  0  0  0
   -0.1663  -53.5906  -25.8035 C   0  0  0  0  0  0  0  0  0  0  0  0
   -0.3673  -53.8572  -24.4597 C   0  0  0  0  0  0  0  0  0  0  0  0
   -1.0923  -54.9450  -24.0797 N   0  0  0  0  0  0  0  0  0  0  0  0
   -1.2763  -55.1906  -22.7662 C   0  0  0  0  0  0  0  0  0  0  0  0
   -0.7755  -54.4087  -21.8136 N   0  0  0  0  0  0  0  0  0  0  0  0
   -0.0541  -53.3244  -22.1195 C   0  0  0  0  0  0  0  0  0  0  0  0
    0.1433  -53.0588  -23.4631 C   0  0  0  0  0  0  0  0  0  0  0  0
    0.8795  -51.9585  -23.9123 C   0  0  0  0  0  0  0  0  0  0  0  0
    1.1066  -51.6516  -25.2251 C   0  0  0  0  0  0  0  0  0  0  0  0
    1.8627  -50.5435  -25.6698 N   0  0  0  0  0  0  0  0  0  0  0  0
    3.2333  -50.3938  -25.6536 C   0  0  0  0  0  0  0  0  0  0  0  0
    4.0036  -51.2765  -25.2114 O   0  0  0  0  0  0  0  0  0  0  0  0
    1.3113  -49.7103  -26.0729 H   0  0  0  0  0  0  0  0  0  0  0  0
    3.8799  -49.1792  -26.1593 C   0  0  0  0  0  0  0  0  0  0  0  0
    5.2497  -49.0319  -26.0399 F   0  0  0  0  0  0  0  0  0  0  0  0
    3.2345  -48.1880  -26.7345 C   0  0  0  0  0  0  0  0  0  0  0  0
    4.0240  -46.9941  -27.2107 C   0  0  0  0  0  0  0  0  0  0  0  0
    3.0761  -45.8925  -27.2460 N   0  0  0  0  0  0  0  0  0  0  0  0
    3.6782  -44.6485  -26.7893 C   0  0  0  0  0  0  0  0  0  0  0  0
    2.6100  -45.7589  -28.6299 C   0  0  0  0  0  0  0  0  0  0  0  0
    0.5153  -52.4880  -21.1253 N   0  0  0  0  0  0  0  0  0  0  0  0
    1.3875  -51.9399  -21.3476 H   0  0  0  0  0  0  0  0  0  0  0  0
    0.0268  -52.2883  -19.8159 C   0  0  0  0  0  0  0  0  0  0  0  0
   -0.7753  -53.1599  -19.1295 C   0  0  0  0  0  0  0  0  0  0  0  0
   -1.1626  -52.8677  -17.8310 C   0  0  0  0  0  0  0  0  0  0  0  0
   -0.7808  -51.7142  -17.1604 C   0  0  0  0  0  0  0  0  0  0  0  0
    0.0512  -50.8136  -17.8789 C   0  0  0  0  0  0  0  0  0  0  0  0
    0.5619  -49.3413  -17.0762 Cl  0  0  0  0  0  0  0  0  0  0  0  0
    0.4139  -51.1295  -19.1499 C   0  0  0  0  0  0  0  0  0  0  0  0
   -1.1639  -51.4800  -15.9448 O   0  0  0  0  0  0  0  0  0  0  0  0
   -1.9663  -51.1644  -14.9574 C   0  0  0  0  0  0  0  0  0  0  0  0
   -3.3996  -51.6221  -14.9605 C   0  0  0  0  0  0  0  0  0  0  0  0
   -4.1698  -51.9179  -16.2026 C   0  0  0  0  0  0  0  0  0  0  0  0
   -4.4679  -50.6557  -15.3864 C   0  0  0  0  0  0  0  0  0  0  0  0
    0.7667  -52.2279  -27.5362 O   0  0  0  0  0  0  0  0  0  0  0  0
   -0.8830  -52.5890  -29.2233 C   0  0  0  0  0  0  0  0  0  0  0  0
    0.4263  -53.0046  -28.6198 C   0  0  0  0  0  0  0  0  0  0  0  0
 37 38  1  0  0  0
 38 36  1  0  0  0
 36  1  1  0  0  0
  1  2  2  0  0  0
  2  3  1  0  0  0
  3  4  2  0  0  0
  4  5  1  0  0  0
  5  6  2  0  0  0
  6  7  1  0  0  0
  7 22  1  0  0  0
 22 24  1  0  0  0
 24 25  2  0  0  0
 25 26  1  0  0  0
 26 27  2  0  0  0
 27 31  1  0  0  0
 31 32  1  0  0  0
 32 33  1  0  0  0
 33 34  1  0  0  0
 34 35  1  0  0  0
 27 28  1  0  0  0
 28 29  1  0  0  0
 28 30  2  0  0  0
  7  8  2  0  0  0
  8  9  1  0  0  0
  9 10  2  0  0  0
 10 11  1  0  0  0
 11 12  1  0  0  0
 12 13  2  0  0  0
 12 15  1  0  0  0
 15 16  1  0  0  0
 15 17  2  0  0  0
 17 18  1  0  0  0
 18 19  1  0  0  0
 19 20  1  0  0  0
 19 21  1  0  0  0
 10  1  1  0  0  0
  8  3  1  0  0  0
 30 24  1  0  0  0
 35 33  1  0  0  0
 22 23  1  0  0  0
 11 14  1  0  0  0
M  END
> <minimizedAffinity>
-8.22073

> <CNNscore>
0.6587600112

> <CNNaffinity>
7.5402364731

> <CNN_VS>
4.9672064781

> <CNNaffinity_variance>
0.1614918858

$$$$
[H]/C(=C(/F)C(=O)N([H])c1c(OC([H])([H])C([H])([H])[H])c([H])c2nc([H])nc(N([H])c3c([H])c([H])c(OC([H])([H])C4([H])C([H])([H])C4([H])[H])c(Cl)c3[H])c2c1[H])C([H])([H])N(C([H])([H])[H])C([H])([H])[H]


 38 41  0  0  0  0  0  0  0  0999 V2000
    0.1229  -52.4242  -26.0686 C   0  0  0  0  0  0  0  0  0  0  0  0
   -0.5396  -53.5383  -25.6265 C   0  0  0  0  0  0  0  0  0  0  0  0
   -0.5902  -53.8524  -24.2790 C   0  0  0  0  0  0  0  0  0  0  0  0
   -1.2527  -54.9661  -23.8612 N   0  0  0  0  0  0  0  0  0  0  0  0
   -1.2900  -55.2579  -22.5448 C   0  0  0  0  0  0  0  0  0  0  0  0
   -0.7018  -54.4978  -21.6250 N   0  0  0  0  0  0  0  0  0  0  0  0
   -0.0349  -53.3903  -21.9689 C   0  0  0  0  0  0  0  0  0  0  0  0
    0.0122  -53.0772  -23.3159 C   0  0  0  0  0  0  0  0  0  0  0  0
    0.6780  -51.9487  -23.8032 C   0  0  0  0  0  0  0  0  0  0  0  0
    0.7574  -51.5948  -25.1215 C   0  0  0  0  0  0  0  0  0  0  0  0
    1.4434  -50.4582  -25.6061 N   0  0  0  0  0  0  0  0  0  0  0  0
    2.7575  -50.3744  -26.0150 C   0  0  0  0  0  0  0  0  0  0  0  0
    3.5345  -51.3562  -25.9955 O   0  0  0  0  0  0  0  0  0  0  0  0
    0.8804  -49.5417  -25.6687 H   0  0  0  0  0  0  0  0  0  0  0  0
    3.3317  -49.1172  -26.5037 C   0  0  0  0  0  0  0  0  0  0  0  0
    3.0792  -47.9392  -25.8249 F   0  0  0  0  0  0  0  0  0  0  0  0
    4.0915  -49.0229  -27.5731 C   0  0  0  0  0  0  0  0  0  0  0  0
    4.6181  -47.6649  -27.9654 C   0  0  0  0  0  0  0  0  0  0  0  0
    3.9131  -47.3148  -29.1877 N   0  0  0  0  0  0  0  0  0  0  0  0
    2.9643  -46.2323  -28.9715 C   0  0  0  0  0  0  0  0  0  0  0  0
    4.9206  -46.9234  -30.1787 C   0  0  0  0  0  0  0  0  0  0  0  0
    0.6250  -52.5759  -21.0132 N   0  0  0  0  0  0  0  0  0  0  0  0
    1.5526  -52.1394  -21.2576 H   0  0  0  0  0  0  0  0  0  0  0  0
    0.1631  -52.2607  -19.7169 C   0  0  0  0  0  0  0  0  0  0  0  0
   -0.6637  -53.0459  -18.9593 C   0  0  0  0  0  0  0  0  0  0  0  0
   -1.0210  -52.6435  -17.6817 C   0  0  0  0  0  0  0  0  0  0  0  0
   -0.5839  -51.4605  -17.1025 C   0  0  0  0  0  0  0  0  0  0  0  0
    0.2734  -50.6500  -17.8946 C   0  0  0  0  0  0  0  0  0  0  0  0
    0.8538  -49.1449  -17.2086 Cl  0  0  0  0  0  0  0  0  0  0  0  0
    0.6055  -51.0730  -19.1426 C   0  0  0  0  0  0  0  0  0  0  0  0
   -0.9404  -51.1222  -15.9035 O   0  0  0  0  0  0  0  0  0  0  0  0
   -0.8206  -50.8306  -14.6310 C   0  0  0  0  0  0  0  0  0  0  0  0
    0.4842  -51.0521  -13.9153 C   0  0  0  0  0  0  0  0  0  0  0  0
    1.6916  -51.6416  -14.5618 C   0  0  0  0  0  0  0  0  0  0  0  0
    0.8799  -52.4537  -13.5470 C   0  0  0  0  0  0  0  0  0  0  0  0
    0.1793  -52.1019  -27.4012 O   0  0  0  0  0  0  0  0  0  0  0  0
   -0.7311  -52.8381  -29.4814 C   0  0  0  0  0  0  0  0  0  0  0  0
    0.3679  -52.9523  -28.4665 C   0  0  0  0  0  0  0  0  0  0  0  0
 37 38  1  0  0  0
 38 36  1  0  0  0
 36  1  1  0  0  0
  1  2  2  0  0  0
  2  3  1  0  0  0
  3  4  2  0  0  0
  4  5  1  0  0  0
  5  6  2  0  0  0
  6  7  1  0  0  0
  7 22  1  0  0  0
 22 24  1  0  0  0
 24 25  2  0  0  0
 25 26  1  0  0  0
 26 27  2  0  0  0
 27 31  1  0  0  0
 31 32  1  0  0  0
 32 33  1  0  0  0
 33 34  1  0  0  0
 34 35  1  0  0  0
 27 28  1  0  0  0
 28 29  1  0  0  0
 28 30  2  0  0  0
  7  8  2  0  0  0
  8  9  1  0  0  0
  9 10  2  0  0  0
 10 11  1  0  0  0
 11 12  1  0  0  0
 12 13  2  0  0  0
 12 15  1  0  0  0
 15 16  1  0  0  0
 15 17  2  0  0  0
 17 18  1  0  0  0
 18 19  1  0  0  0
 19 20  1  0  0  0
 19 21  1  0  0  0
 10  1  1  0  0  0
  8  3  1  0  0  0
 30 24  1  0  0  0
 35 33  1  0  0  0
 22 23  1  0  0  0
 11 14  1  0  0  0
M  END
> <minimizedAffinity>
-7.52579

> <CNNscore>
0.6014236808

> <CNNaffinity>
7.4385123253

> <CNN_VS>
4.4736976624

> <CNNaffinity_variance>
0.0936980322

$$$$
[H]/C(=C(/F)C(=O)N([H])c1c(OC([H])([H])C([H])([H])[H])c([H])c2nc([H])nc(N([H])c3c([H])c([H])c(OC([H])([H])C4([H])C([H])([H])C4([H])[H])c(Cl)c3[H])c2c1[H])C([H])([H])N(C([H])([H])[H])C([H])([H])[H]


 38 41  0  0  0  0  0  0  0  0999 V2000
    0.9282  -53.0131  -25.9503 C   0  0  0  0  0  0  0  0  0  0  0  0
   -0.1169  -53.8188  -25.5840 C   0  0  0  0  0  0  0  0  0  0  0  0
   -0.4153  -54.0409  -24.2504 C   0  0  0  0  0  0  0  0  0  0  0  0
   -1.4576  -54.8471  -23.9082 N   0  0  0  0  0  0  0  0  0  0  0  0
   -1.7327  -55.0540  -22.6040 C   0  0  0  0  0  0  0  0  0  0  0  0
   -1.0231  -54.4994  -21.6249 N   0  0  0  0  0  0  0  0  0  0  0  0
    0.0134  -53.6973  -21.8931 C   0  0  0  0  0  0  0  0  0  0  0  0
    0.3080  -53.4750  -23.2267 C   0  0  0  0  0  0  0  0  0  0  0  0
    1.3660  -52.6588  -23.6375 C   0  0  0  0  0  0  0  0  0  0  0  0
    1.7016  -52.4077  -24.9389 C   0  0  0  0  0  0  0  0  0  0  0  0
    2.7809  -51.5906  -25.3448 N   0  0  0  0  0  0  0  0  0  0  0  0
    3.0974  -50.3247  -24.8990 C   0  0  0  0  0  0  0  0  0  0  0  0
    2.4177  -49.7234  -24.0362 O   0  0  0  0  0  0  0  0  0  0  0  0
    3.4430  -51.9968  -26.0914 H   0  0  0  0  0  0  0  0  0  0  0  0
    4.2620  -49.5977  -25.4128 C   0  0  0  0  0  0  0  0  0  0  0  0
    5.5212  -49.8836  -24.9176 F   0  0  0  0  0  0  0  0  0  0  0  0
    4.1968  -48.6643  -26.3370 C   0  0  0  0  0  0  0  0  0  0  0  0
    5.4751  -47.9944  -26.7762 C   0  0  0  0  0  0  0  0  0  0  0  0
    5.2114  -47.4994  -28.1174 N   0  0  0  0  0  0  0  0  0  0  0  0
    5.6584  -48.4382  -29.1360 C   0  0  0  0  0  0  0  0  0  0  0  0
    3.7665  -47.2743  -28.2260 C   0  0  0  0  0  0  0  0  0  0  0  0
    0.8046  -53.1142  -20.8703 N   0  0  0  0  0  0  0  0  0  0  0  0
    1.1175  -53.7067  -20.0569 H   0  0  0  0  0  0  0  0  0  0  0  0
    1.2485  -51.7753  -20.8128 C   0  0  0  0  0  0  0  0  0  0  0  0
    0.4398  -50.6715  -20.8547 C   0  0  0  0  0  0  0  0  0  0  0  0
    0.9928  -49.4043  -20.7540 C   0  0  0  0  0  0  0  0  0  0  0  0
    2.3537  -49.1732  -20.6105 C   0  0  0  0  0  0  0  0  0  0  0  0
    3.1874  -50.3233  -20.5684 C   0  0  0  0  0  0  0  0  0  0  0  0
    4.9147  -50.0855  -20.3879 Cl  0  0  0  0  0  0  0  0  0  0  0  0
    2.6143  -51.5514  -20.6689 C   0  0  0  0  0  0  0  0  0  0  0  0
    2.8299  -47.9715  -20.5180 O   0  0  0  0  0  0  0  0  0  0  0  0
    3.2129  -46.7776  -20.9006 C   0  0  0  0  0  0  0  0  0  0  0  0
    3.6632  -46.5358  -22.3157 C   0  0  0  0  0  0  0  0  0  0  0  0
    3.7454  -45.1828  -22.9369 C   0  0  0  0  0  0  0  0  0  0  0  0
    2.6386  -46.1597  -23.3479 C   0  0  0  0  0  0  0  0  0  0  0  0
    1.2332  -52.7846  -27.2686 O   0  0  0  0  0  0  0  0  0  0  0  0
   -0.2201  -52.7724  -29.1622 C   0  0  0  0  0  0  0  0  0  0  0  0
    0.8197  -53.5045  -28.3660 C   0  0  0  0  0  0  0  0  0  0  0  0
 37 38  1  0  0  0
 38 36  1  0  0  0
 36  1  1  0  0  0
  1  2  2  0  0  0
  2  3  1  0  0  0
  3  4  2  0  0  0
  4  5  1  0  0  0
  5  6  2  0  0  0
  6  7  1  0  0  0
  7 22  1  0  0  0
 22 24  1  0  0  0
 24 25  2  0  0  0
 25 26  1  0  0  0
 26 27  2  0  0  0
 27 31  1  0  0  0
 31 32  1  0  0  0
 32 33  1  0  0  0
 33 34  1  0  0  0
 34 35  1  0  0  0
 27 28  1  0  0  0
 28 29  1  0  0  0
 28 30  2  0  0  0
  7  8  2  0  0  0
  8  9  1  0  0  0
  9 10  2  0  0  0
 10 11  1  0  0  0
 11 12  1  0  0  0
 12 13  2  0  0  0
 12 15  1  0  0  0
 15 16  1  0  0  0
 15 17  2  0  0  0
 17 18  1  0  0  0
 18 19  1  0  0  0
 19 20  1  0  0  0
 19 21  1  0  0  0
 10  1  1  0  0  0
  8  3  1  0  0  0
 30 24  1  0  0  0
 35 33  1  0  0  0
 22 23  1  0  0  0
 11 14  1  0  0  0
M  END
> <minimizedAffinity>
-6.86156

> <CNNscore>
0.5991902351

> <CNNaffinity>
7.4422330856

> <CNN_VS>
4.4593133926

> <CNNaffinity_variance>
0.2063827217

$$$$
[H]/C(=C(/F)C(=O)N([H])c1c(OC([H])([H])C([H])([H])[H])c([H])c2nc([H])nc(N([H])c3c([H])c([H])c(OC([H])([H])C4([H])C([H])([H])C4([H])[H])c(Cl)c3[H])c2c1[H])C([H])([H])N(C([H])([H])[H])C([H])([H])[H]


 38 41  0  0  0  0  0  0  0  0999 V2000
   -0.4865  -52.9286  -19.5408 C   0  0  0  0  0  0  0  0  0  0  0  0
   -1.0553  -53.9541  -20.2481 C   0  0  0  0  0  0  0  0  0  0  0  0
   -0.9439  -54.0200  -21.6266 C   0  0  0  0  0  0  0  0  0  0  0  0
   -1.5190  -55.0473  -22.3104 N   0  0  0  0  0  0  0  0  0  0  0  0
   -1.4022  -55.0945  -23.6534 C   0  0  0  0  0  0  0  0  0  0  0  0
   -0.7428  -54.1717  -24.3486 N   0  0  0  0  0  0  0  0  0  0  0  0
   -0.1550  -53.1369  -23.7376 C   0  0  0  0  0  0  0  0  0  0  0  0
   -0.2657  -53.0746  -22.3597 C   0  0  0  0  0  0  0  0  0  0  0  0
    0.3021  -52.0437  -21.6052 C   0  0  0  0  0  0  0  0  0  0  0  0
    0.2211  -51.9329  -20.2448 C   0  0  0  0  0  0  0  0  0  0  0  0
    0.7882  -50.8802  -19.4914 N   0  0  0  0  0  0  0  0  0  0  0  0
    2.0642  -50.8022  -18.9747 C   0  0  0  0  0  0  0  0  0  0  0  0
    2.9092  -51.7145  -19.1226 O   0  0  0  0  0  0  0  0  0  0  0  0
    0.1560  -50.0308  -19.2922 H   0  0  0  0  0  0  0  0  0  0  0  0
    2.5149  -49.6336  -18.2131 C   0  0  0  0  0  0  0  0  0  0  0  0
    2.6063  -49.7075  -16.8352 F   0  0  0  0  0  0  0  0  0  0  0  0
    2.8480  -48.4843  -18.7589 C   0  0  0  0  0  0  0  0  0  0  0  0
    3.2961  -47.3612  -17.8571 C   0  0  0  0  0  0  0  0  0  0  0  0
    3.9669  -46.4099  -18.7280 N   0  0  0  0  0  0  0  0  0  0  0  0
    3.7116  -46.6924  -20.1329 C   0  0  0  0  0  0  0  0  0  0  0  0
    3.4780  -45.0728  -18.3767 C   0  0  0  0  0  0  0  0  0  0  0  0
    0.5311  -52.1236  -24.4550 N   0  0  0  0  0  0  0  0  0  0  0  0
   -0.0123  -51.4781  -25.0863 H   0  0  0  0  0  0  0  0  0  0  0  0
    1.9177  -51.8608  -24.4173 C   0  0  0  0  0  0  0  0  0  0  0  0
    2.9044  -52.8064  -24.4970 C   0  0  0  0  0  0  0  0  0  0  0  0
    4.2357  -52.4201  -24.4845 C   0  0  0  0  0  0  0  0  0  0  0  0
    4.6474  -51.0979  -24.3922 C   0  0  0  0  0  0  0  0  0  0  0  0
    3.6181  -50.1216  -24.3092 C   0  0  0  0  0  0  0  0  0  0  0  0
    4.0854  -48.4363  -24.1914 Cl  0  0  0  0  0  0  0  0  0  0  0  0
    2.3229  -50.5328  -24.3248 C   0  0  0  0  0  0  0  0  0  0  0  0
    5.9034  -50.7793  -24.3856 O   0  0  0  0  0  0  0  0  0  0  0  0
    7.0473  -50.3342  -23.9253 C   0  0  0  0  0  0  0  0  0  0  0  0
    7.2795  -50.2108  -22.4438 C   0  0  0  0  0  0  0  0  0  0  0  0
    6.2499  -50.5379  -21.4160 C   0  0  0  0  0  0  0  0  0  0  0  0
    6.6278  -49.0802  -21.6998 C   0  0  0  0  0  0  0  0  0  0  0  0
   -0.5891  -52.8528  -18.1746 O   0  0  0  0  0  0  0  0  0  0  0  0
   -1.7090  -51.7845  -16.3573 C   0  0  0  0  0  0  0  0  0  0  0  0
   -1.7364  -52.8483  -17.4149 C   0  0  0  0  0  0  0  0  0  0  0  0
 37 38  1  0  0  0
 38 36  1  0  0  0
 36  1  1  0  0  0
  1  2  2  0  0  0
  2  3  1  0  0  0
  3  4  2  0  0  0
  4  5  1  0  0  0
  5  6  2  0  0  0
  6  7  1  0  0  0
  7 22  1  0  0  0
 22 24  1  0  0  0
 24 25  2  0  0  0
 25 26  1  0  0  0
 26 27  2  0  0  0
 27 31  1  0  0  0
 31 32  1  0  0  0
 32 33  1  0  0  0
 33 34  1  0  0  0
 34 35  1  0  0  0
 27 28  1  0  0  0
 28 29  1  0  0  0
 28 30  2  0  0  0
  7  8  2  0  0  0
  8  9  1  0  0  0
  9 10  2  0  0  0
 10 11  1  0  0  0
 11 12  1  0  0  0
 12 13  2  0  0  0
 12 15  1  0  0  0
 15 16  1  0  0  0
 15 17  2  0  0  0
 17 18  1  0  0  0
 18 19  1  0  0  0
 19 20  1  0  0  0
 19 21  1  0  0  0
 10  1  1  0  0  0
  8  3  1  0  0  0
 30 24  1  0  0  0
 35 33  1  0  0  0
 22 23  1  0  0  0
 11 14  1  0  0  0
M  END
> <minimizedAffinity>
-7.19563

> <CNNscore>
0.5289148688

> <CNNaffinity>
7.1668992043

> <CNN_VS>
3.7906794548

> <CNNaffinity_variance>
0.1147893518

$$$$
[H]/C(=C(/F)C(=O)N([H])c1c(OC([H])([H])C([H])([H])[H])c([H])c2nc([H])nc(N([H])c3c([H])c([H])c(OC([H])([H])C4([H])C([H])([H])C4([H])[H])c(Cl)c3[H])c2c1[H])C([H])([H])N(C([H])([H])[H])C([H])([H])[H]


 38 41  0  0  0  0  0  0  0  0999 V2000
    1.2521  -51.6634  -24.4151 C   0  0  0  0  0  0  0  0  0  0  0  0
    0.2340  -52.5685  -24.5558 C   0  0  0  0  0  0  0  0  0  0  0  0
   -0.2320  -53.2946  -23.4729 C   0  0  0  0  0  0  0  0  0  0  0  0
   -1.2439  -54.1909  -23.6354 N   0  0  0  0  0  0  0  0  0  0  0  0
   -1.6840  -54.8910  -22.5698 C   0  0  0  0  0  0  0  0  0  0  0  0
   -1.1680  -54.7439  -21.3525 N   0  0  0  0  0  0  0  0  0  0  0  0
   -0.1722  -53.8800  -21.1251 C   0  0  0  0  0  0  0  0  0  0  0  0
    0.2902  -53.1539  -22.2084 C   0  0  0  0  0  0  0  0  0  0  0  0
    1.3264  -52.2216  -22.1022 C   0  0  0  0  0  0  0  0  0  0  0  0
    1.8223  -51.4806  -23.1387 C   0  0  0  0  0  0  0  0  0  0  0  0
    2.8788  -50.5489  -23.0242 N   0  0  0  0  0  0  0  0  0  0  0  0
    4.2302  -50.8091  -22.9392 C   0  0  0  0  0  0  0  0  0  0  0  0
    4.6958  -51.9716  -22.9504 O   0  0  0  0  0  0  0  0  0  0  0  0
    2.6063  -49.5068  -23.0008 H   0  0  0  0  0  0  0  0  0  0  0  0
    5.2156  -49.7292  -22.8302 C   0  0  0  0  0  0  0  0  0  0  0  0
    6.5470  -50.0358  -22.6167 F   0  0  0  0  0  0  0  0  0  0  0  0
    4.9187  -48.4512  -22.9220 C   0  0  0  0  0  0  0  0  0  0  0  0
    6.0318  -47.4417  -22.7915 C   0  0  0  0  0  0  0  0  0  0  0  0
    5.4119  -46.2528  -22.2297 N   0  0  0  0  0  0  0  0  0  0  0  0
    3.9944  -46.1804  -22.5522 C   0  0  0  0  0  0  0  0  0  0  0  0
    5.6055  -46.3018  -20.7769 C   0  0  0  0  0  0  0  0  0  0  0  0
    0.4158  -53.7219  -19.8439 N   0  0  0  0  0  0  0  0  0  0  0  0
    1.2708  -54.2850  -19.5938 H   0  0  0  0  0  0  0  0  0  0  0  0
   -0.0241  -52.8558  -18.8196 C   0  0  0  0  0  0  0  0  0  0  0  0
    0.6058  -51.7033  -18.4335 C   0  0  0  0  0  0  0  0  0  0  0  0
    0.0554  -50.9151  -17.4348 C   0  0  0  0  0  0  0  0  0  0  0  0
   -1.1273  -51.2270  -16.7791 C   0  0  0  0  0  0  0  0  0  0  0  0
   -1.7756  -52.4249  -17.1843 C   0  0  0  0  0  0  0  0  0  0  0  0
   -3.2738  -52.8639  -16.3871 Cl  0  0  0  0  0  0  0  0  0  0  0  0
   -1.2108  -53.1750  -18.1667 C   0  0  0  0  0  0  0  0  0  0  0  0
   -1.6089  -50.4611  -15.8513 O   0  0  0  0  0  0  0  0  0  0  0  0
   -1.6189  -49.6081  -14.8560 C   0  0  0  0  0  0  0  0  0  0  0  0
   -0.5414  -49.6446  -13.8065 C   0  0  0  0  0  0  0  0  0  0  0  0
   -0.3977  -48.6191  -12.7337 C   0  0  0  0  0  0  0  0  0  0  0  0
    0.5948  -48.6664  -13.9002 C   0  0  0  0  0  0  0  0  0  0  0  0
    1.7219  -50.9373  -25.4804 O   0  0  0  0  0  0  0  0  0  0  0  0
    3.3113  -52.5022  -26.3306 C   0  0  0  0  0  0  0  0  0  0  0  0
    2.3235  -51.4116  -26.6235 C   0  0  0  0  0  0  0  0  0  0  0  0
 37 38  1  0  0  0
 38 36  1  0  0  0
 36  1  1  0  0  0
  1  2  2  0  0  0
  2  3  1  0  0  0
  3  4  2  0  0  0
  4  5  1  0  0  0
  5  6  2  0  0  0
  6  7  1  0  0  0
  7 22  1  0  0  0
 22 24  1  0  0  0
 24 25  2  0  0  0
 25 26  1  0  0  0
 26 27  2  0  0  0
 27 31  1  0  0  0
 31 32  1  0  0  0
 32 33  1  0  0  0
 33 34  1  0  0  0
 34 35  1  0  0  0
 27 28  1  0  0  0
 28 29  1  0  0  0
 28 30  2  0  0  0
  7  8  2  0  0  0
  8  9  1  0  0  0
  9 10  2  0  0  0
 10 11  1  0  0  0
 11 12  1  0  0  0
 12 13  2  0  0  0
 12 15  1  0  0  0
 15 16  1  0  0  0
 15 17  2  0  0  0
 17 18  1  0  0  0
 18 19  1  0  0  0
 19 20  1  0  0  0
 19 21  1  0  0  0
 10  1  1  0  0  0
  8  3  1  0  0  0
 30 24  1  0  0  0
 35 33  1  0  0  0
 22 23  1  0  0  0
 11 14  1  0  0  0
M  END
> <minimizedAffinity>
-6.04204

> <CNNscore>
0.5120128989

> <CNNaffinity>
7.2057890892

> <CNN_VS>
3.6894569397

> <CNNaffinity_variance>
0.0884973854

$$$$
[H]/C(=C(/F)C(=O)N([H])c1c(OC([H])([H])C([H])([H])[H])c([H])c2nc([H])nc(N([H])c3c([H])c([H])c(OC([H])([H])C4([H])C([H])([H])C4([H])[H])c(Cl)c3[H])c2c1[H])C([H])([H])N(C([H])([H])[H])C([H])([H])[H]


 38 41  0  0  0  0  0  0  0  0999 V2000
    0.9980  -51.6803  -24.6729 C   0  0  0  0  0  0  0  0  0  0  0  0
    0.0888  -52.7021  -24.6032 C   0  0  0  0  0  0  0  0  0  0  0  0
   -0.2311  -53.2931  -23.3926 C   0  0  0  0  0  0  0  0  0  0  0  0
   -1.1363  -54.3090  -23.3461 N   0  0  0  0  0  0  0  0  0  0  0  0
   -1.4344  -54.8746  -22.1584 C   0  0  0  0  0  0  0  0  0  0  0  0
   -0.8773  -54.4802  -21.0166 N   0  0  0  0  0  0  0  0  0  0  0  0
    0.0192  -53.4876  -20.9931 C   0  0  0  0  0  0  0  0  0  0  0  0
    0.3354  -52.8970  -22.2037 C   0  0  0  0  0  0  0  0  0  0  0  0
    1.2577  -51.8520  -22.3129 C   0  0  0  0  0  0  0  0  0  0  0  0
    1.6077  -51.2356  -23.4821 C   0  0  0  0  0  0  0  0  0  0  0  0
    2.5505  -50.1877  -23.5844 N   0  0  0  0  0  0  0  0  0  0  0  0
    3.9259  -50.2824  -23.5593 C   0  0  0  0  0  0  0  0  0  0  0  0
    4.5251  -51.3743  -23.4305 O   0  0  0  0  0  0  0  0  0  0  0  0
    2.1576  -49.1908  -23.6970 H   0  0  0  0  0  0  0  0  0  0  0  0
    4.7802  -49.0976  -23.6841 C   0  0  0  0  0  0  0  0  0  0  0  0
    6.1422  -49.2515  -23.8678 F   0  0  0  0  0  0  0  0  0  0  0  0
    4.3347  -47.8613  -23.6314 C   0  0  0  0  0  0  0  0  0  0  0  0
    5.3245  -46.7320  -23.7747 C   0  0  0  0  0  0  0  0  0  0  0  0
    4.5267  -45.5539  -24.0732 N   0  0  0  0  0  0  0  0  0  0  0  0
    3.5714  -45.8066  -25.1420 C   0  0  0  0  0  0  0  0  0  0  0  0
    3.8288  -45.1728  -22.8412 C   0  0  0  0  0  0  0  0  0  0  0  0
    0.6497  -53.0645  -19.7949 N   0  0  0  0  0  0  0  0  0  0  0  0
    1.6860  -53.2138  -19.6748 H   0  0  0  0  0  0  0  0  0  0  0  0
    0.0271  -52.4324  -18.6968 C   0  0  0  0  0  0  0  0  0  0  0  0
   -1.0149  -52.9481  -17.9739 C   0  0  0  0  0  0  0  0  0  0  0  0
   -1.5201  -52.2460  -16.8907 C   0  0  0  0  0  0  0  0  0  0  0  0
   -1.0255  -51.0165  -16.4784 C   0  0  0  0  0  0  0  0  0  0  0  0
    0.0556  -50.4867  -17.2335 C   0  0  0  0  0  0  0  0  0  0  0  0
    0.7171  -48.9361  -16.7534 Cl  0  0  0  0  0  0  0  0  0  0  0  0
    0.5284  -51.2000  -18.2892 C   0  0  0  0  0  0  0  0  0  0  0  0
   -1.5258  -50.3936  -15.4582 O   0  0  0  0  0  0  0  0  0  0  0  0
   -2.3529  -50.1257  -14.4771 C   0  0  0  0  0  0  0  0  0  0  0  0
   -3.7808  -50.5972  -14.5304 C   0  0  0  0  0  0  0  0  0  0  0  0
   -4.5220  -50.8460  -15.8000 C   0  0  0  0  0  0  0  0  0  0  0  0
   -4.8507  -49.6238  -14.9360 C   0  0  0  0  0  0  0  0  0  0  0  0
    1.3226  -51.0859  -25.8664 O   0  0  0  0  0  0  0  0  0  0  0  0
    3.0913  -52.5609  -26.4939 C   0  0  0  0  0  0  0  0  0  0  0  0
    1.9863  -51.6462  -26.9336 C   0  0  0  0  0  0  0  0  0  0  0  0
 37 38  1  0  0  0
 38 36  1  0  0  0
 36  1  1  0  0  0
  1  2  2  0  0  0
  2  3  1  0  0  0
  3  4  2  0  0  0
  4  5  1  0  0  0
  5  6  2  0  0  0
  6  7  1  0  0  0
  7 22  1  0  0  0
 22 24  1  0  0  0
 24 25  2  0  0  0
 25 26  1  0  0  0
 26 27  2  0  0  0
 27 31  1  0  0  0
 31 32  1  0  0  0
 32 33  1  0  0  0
 33 34  1  0  0  0
 34 35  1  0  0  0
 27 28  1  0  0  0
 28 29  1  0  0  0
 28 30  2  0  0  0
  7  8  2  0  0  0
  8  9  1  0  0  0
  9 10  2  0  0  0
 10 11  1  0  0  0
 11 12  1  0  0  0
 12 13  2  0  0  0
 12 15  1  0  0  0
 15 16  1  0  0  0
 15 17  2  0  0  0
 17 18  1  0  0  0
 18 19  1  0  0  0
 19 20  1  0  0  0
 19 21  1  0  0  0
 10  1  1  0  0  0
  8  3  1  0  0  0
 30 24  1  0  0  0
 35 33  1  0  0  0
 22 23  1  0  0  0
 11 14  1  0  0  0
M  END
> <minimizedAffinity>
-6.98221

> <CNNscore>
0.4450494647

> <CNNaffinity>
7.1495714188

> <CNN_VS>
3.1819128990

> <CNNaffinity_variance>
0.1513644010

$$$$
[H]/C(=C(/F)C(=O)N([H])c1c(OC([H])([H])C([H])([H])[H])c([H])c2nc([H])nc(N([H])c3c([H])c([H])c(OC([H])([H])C4([H])C([H])([H])C4([H])[H])c(Cl)c3[H])c2c1[H])C([H])([H])N(C([H])([H])[H])C([H])([H])[H]


 38 41  0  0  0  0  0  0  0  0999 V2000
    0.7266  -52.9214  -26.3555 C   0  0  0  0  0  0  0  0  0  0  0  0
    0.1186  -54.0357  -25.8415 C   0  0  0  0  0  0  0  0  0  0  0  0
   -0.3812  -54.0462  -24.5504 C   0  0  0  0  0  0  0  0  0  0  0  0
   -0.9803  -55.1655  -24.0585 N   0  0  0  0  0  0  0  0  0  0  0  0
   -1.4597  -55.1586  -22.7977 C   0  0  0  0  0  0  0  0  0  0  0  0
   -1.3726  -54.0951  -22.0033 N   0  0  0  0  0  0  0  0  0  0  0  0
   -0.7960  -52.9641  -22.4254 C   0  0  0  0  0  0  0  0  0  0  0  0
   -0.2995  -52.9553  -23.7169 C   0  0  0  0  0  0  0  0  0  0  0  0
    0.3263  -51.8366  -24.2748 C   0  0  0  0  0  0  0  0  0  0  0  0
    0.8358  -51.7750  -25.5421 C   0  0  0  0  0  0  0  0  0  0  0  0
    1.4778  -50.6432  -26.0935 N   0  0  0  0  0  0  0  0  0  0  0  0
    2.7154  -50.1303  -25.7669 C   0  0  0  0  0  0  0  0  0  0  0  0
    3.4474  -50.6411  -24.8886 O   0  0  0  0  0  0  0  0  0  0  0  0
    0.9451  -50.1103  -26.8636 H   0  0  0  0  0  0  0  0  0  0  0  0
    3.2563  -48.9432  -26.4356 C   0  0  0  0  0  0  0  0  0  0  0  0
    2.9602  -47.6852  -25.9435 F   0  0  0  0  0  0  0  0  0  0  0  0
    4.0247  -48.9865  -27.5021 C   0  0  0  0  0  0  0  0  0  0  0  0
    4.5139  -47.6867  -28.0910 C   0  0  0  0  0  0  0  0  0  0  0  0
    3.6814  -47.4540  -29.2598 N   0  0  0  0  0  0  0  0  0  0  0  0
    2.9051  -46.2291  -29.1334 C   0  0  0  0  0  0  0  0  0  0  0  0
    4.5700  -47.3801  -30.4239 C   0  0  0  0  0  0  0  0  0  0  0  0
   -0.6645  -51.8240  -21.5918 N   0  0  0  0  0  0  0  0  0  0  0  0
   -1.3322  -51.0172  -21.7093 H   0  0  0  0  0  0  0  0  0  0  0  0
    0.2941  -51.6354  -20.5726 C   0  0  0  0  0  0  0  0  0  0  0  0
    0.0249  -51.5979  -19.2309 C   0  0  0  0  0  0  0  0  0  0  0  0
    1.0596  -51.4414  -18.3217 C   0  0  0  0  0  0  0  0  0  0  0  0
    2.3910  -51.3149  -18.6927 C   0  0  0  0  0  0  0  0  0  0  0  0
    2.6632  -51.3540  -20.0869 C   0  0  0  0  0  0  0  0  0  0  0  0
    4.3296  -51.1988  -20.6081 Cl  0  0  0  0  0  0  0  0  0  0  0  0
    1.6268  -51.5093  -20.9523 C   0  0  0  0  0  0  0  0  0  0  0  0
    3.3288  -51.1721  -17.8099 O   0  0  0  0  0  0  0  0  0  0  0  0
    3.9346  -50.7353  -16.7326 C   0  0  0  0  0  0  0  0  0  0  0  0
    3.7550  -51.4399  -15.4153 C   0  0  0  0  0  0  0  0  0  0  0  0
    2.4752  -51.4477  -14.6501 C   0  0  0  0  0  0  0  0  0  0  0  0
    3.6675  -50.6189  -14.1604 C   0  0  0  0  0  0  0  0  0  0  0  0
    1.2250  -52.8984  -27.6338 O   0  0  0  0  0  0  0  0  0  0  0  0
   -0.5434  -52.6367  -29.2157 C   0  0  0  0  0  0  0  0  0  0  0  0
    0.6539  -53.4235  -28.7703 C   0  0  0  0  0  0  0  0  0  0  0  0
 37 38  1  0  0  0
 38 36  1  0  0  0
 36  1  1  0  0  0
  1  2  2  0  0  0
  2  3  1  0  0  0
  3  4  2  0  0  0
  4  5  1  0  0  0
  5  6  2  0  0  0
  6  7  1  0  0  0
  7 22  1  0  0  0
 22 24  1  0  0  0
 24 25  2  0  0  0
 25 26  1  0  0  0
 26 27  2  0  0  0
 27 31  1  0  0  0
 31 32  1  0  0  0
 32 33  1  0  0  0
 33 34  1  0  0  0
 34 35  1  0  0  0
 27 28  1  0  0  0
 28 29  1  0  0  0
 28 30  2  0  0  0
  7  8  2  0  0  0
  8  9  1  0  0  0
  9 10  2  0  0  0
 10 11  1  0  0  0
 11 12  1  0  0  0
 12 13  2  0  0  0
 12 15  1  0  0  0
 15 16  1  0  0  0
 15 17  2  0  0  0
 17 18  1  0  0  0
 18 19  1  0  0  0
 19 20  1  0  0  0
 19 21  1  0  0  0
 10  1  1  0  0  0
  8  3  1  0  0  0
 30 24  1  0  0  0
 35 33  1  0  0  0
 22 23  1  0  0  0
 11 14  1  0  0  0
M  END
> <minimizedAffinity>
-7.55082

> <CNNscore>
0.4256508052

> <CNNaffinity>
7.3434095383

> <CNN_VS>
3.1257281303

> <CNNaffinity_variance>
0.0518003777

$$$$
[H]/C(=C(/F)C(=O)N([H])c1c(OC([H])([H])C([H])([H])[H])c([H])c2nc([H])nc(N([H])c3c([H])c([H])c(OC([H])([H])C4([H])C([H])([H])C4([H])[H])c(Cl)c3[H])c2c1[H])C([H])([H])N(C([H])([H])[H])C([H])([H])[H]


 38 41  0  0  0  0  0  0  0  0999 V2000
   -0.5285  -52.8883  -19.1526 C   0  0  0  0  0  0  0  0  0  0  0  0
   -1.0777  -53.8535  -19.9540 C   0  0  0  0  0  0  0  0  0  0  0  0
   -0.8639  -53.8539  -21.3219 C   0  0  0  0  0  0  0  0  0  0  0  0
   -1.4211  -54.8218  -22.1005 N   0  0  0  0  0  0  0  0  0  0  0  0
   -1.2040  -54.8055  -23.4317 C   0  0  0  0  0  0  0  0  0  0  0  0
   -0.4614  -53.8752  -24.0256 N   0  0  0  0  0  0  0  0  0  0  0  0
    0.1143  -52.8965  -23.3182 C   0  0  0  0  0  0  0  0  0  0  0  0
   -0.0988  -52.8998  -21.9510 C   0  0  0  0  0  0  0  0  0  0  0  0
    0.4458  -51.9316  -21.1024 C   0  0  0  0  0  0  0  0  0  0  0  0
    0.2653  -51.8867  -19.7478 C   0  0  0  0  0  0  0  0  0  0  0  0
    0.8101  -50.8966  -18.8992 N   0  0  0  0  0  0  0  0  0  0  0  0
    2.1059  -50.7977  -18.4383 C   0  0  0  0  0  0  0  0  0  0  0  0
    2.9938  -51.6288  -18.7369 O   0  0  0  0  0  0  0  0  0  0  0  0
    0.1409  -50.1201  -18.5675 H   0  0  0  0  0  0  0  0  0  0  0  0
    2.5284  -49.7013  -17.5618 C   0  0  0  0  0  0  0  0  0  0  0  0
    3.8715  -49.3906  -17.4522 F   0  0  0  0  0  0  0  0  0  0  0  0
    1.7002  -48.9693  -16.8490 C   0  0  0  0  0  0  0  0  0  0  0  0
    2.2694  -47.8698  -15.9872 C   0  0  0  0  0  0  0  0  0  0  0  0
    1.4299  -47.8343  -14.8008 N   0  0  0  0  0  0  0  0  0  0  0  0
    1.5909  -49.0329  -13.9907 C   0  0  0  0  0  0  0  0  0  0  0  0
    1.8049  -46.6424  -14.0334 C   0  0  0  0  0  0  0  0  0  0  0  0
    0.8884  -51.8759  -23.9275 N   0  0  0  0  0  0  0  0  0  0  0  0
    0.4045  -51.1164  -24.4748 H   0  0  0  0  0  0  0  0  0  0  0  0
    2.2934  -51.7469  -23.8804 C   0  0  0  0  0  0  0  0  0  0  0  0
    3.1893  -52.7263  -24.2155 C   0  0  0  0  0  0  0  0  0  0  0  0
    4.5501  -52.4673  -24.1619 C   0  0  0  0  0  0  0  0  0  0  0  0
    5.0809  -51.2438  -23.7779 C   0  0  0  0  0  0  0  0  0  0  0  0
    4.1455  -50.2319  -23.4308 C   0  0  0  0  0  0  0  0  0  0  0  0
    4.7650  -48.6676  -22.9389 Cl  0  0  0  0  0  0  0  0  0  0  0  0
    2.8184  -50.5173  -23.4945 C   0  0  0  0  0  0  0  0  0  0  0  0
    6.3606  -51.0424  -23.7431 O   0  0  0  0  0  0  0  0  0  0  0  0
    7.4939  -50.4337  -23.4911 C   0  0  0  0  0  0  0  0  0  0  0  0
    8.1391  -49.5578  -24.5305 C   0  0  0  0  0  0  0  0  0  0  0  0
    8.0258  -48.0711  -24.5441 C   0  0  0  0  0  0  0  0  0  0  0  0
    7.2728  -48.9165  -25.5768 C   0  0  0  0  0  0  0  0  0  0  0  0
   -0.7323  -52.8778  -17.7956 O   0  0  0  0  0  0  0  0  0  0  0  0
   -2.9539  -52.9564  -16.9260 C   0  0  0  0  0  0  0  0  0  0  0  0
   -1.6836  -52.1755  -17.0919 C   0  0  0  0  0  0  0  0  0  0  0  0
 37 38  1  0  0  0
 38 36  1  0  0  0
 36  1  1  0  0  0
  1  2  2  0  0  0
  2  3  1  0  0  0
  3  4  2  0  0  0
  4  5  1  0  0  0
  5  6  2  0  0  0
  6  7  1  0  0  0
  7 22  1  0  0  0
 22 24  1  0  0  0
 24 25  2  0  0  0
 25 26  1  0  0  0
 26 27  2  0  0  0
 27 31  1  0  0  0
 31 32  1  0  0  0
 32 33  1  0  0  0
 33 34  1  0  0  0
 34 35  1  0  0  0
 27 28  1  0  0  0
 28 29  1  0  0  0
 28 30  2  0  0  0
  7  8  2  0  0  0
  8  9  1  0  0  0
  9 10  2  0  0  0
 10 11  1  0  0  0
 11 12  1  0  0  0
 12 13  2  0  0  0
 12 15  1  0  0  0
 15 16  1  0  0  0
 15 17  2  0  0  0
 17 18  1  0  0  0
 18 19  1  0  0  0
 19 20  1  0  0  0
 19 21  1  0  0  0
 10  1  1  0  0  0
  8  3  1  0  0  0
 30 24  1  0  0  0
 35 33  1  0  0  0
 22 23  1  0  0  0
 11 14  1  0  0  0
M  END
> <minimizedAffinity>
-6.70907

> <CNNscore>
0.3750537038

> <CNNaffinity>
6.9367675781

> <CNN_VS>
2.6016604900

> <CNNaffinity_variance>
0.0959604979

$$$$
[H]c1nc(N([H])c2c([H])c([H])c(F)c(Cl)c2[H])c2sc(N([H])c3c([H])c([H])c(C([H])([H])n4c(C([H])([H])C([H])([H])[H])nc([H])c4[H])c([H])c3[H])nc2n1


 35 39  0  0  0  0  0  0  0  0999 V2000
    0.7725  -51.8341  -20.0083 C   0  0  0  0  0  0  0  0  0  0  0  0
   -0.0471  -52.8531  -20.0654 N   0  0  0  0  0  0  0  0  0  0  0  0
   -0.3457  -53.4314  -21.1908 C   0  0  0  0  0  0  0  0  0  0  0  0
   -1.1905  -54.5034  -21.3665 N   0  0  0  0  0  0  0  0  0  0  0  0
   -1.4020  -54.9924  -22.5882 C   0  0  0  0  0  0  0  0  0  0  0  0
   -0.8491  -54.5237  -23.7187 N   0  0  0  0  0  0  0  0  0  0  0  0
   -0.0075  -53.4671  -23.6050 C   0  0  0  0  0  0  0  0  0  0  0  0
    0.2309  -52.9337  -22.3218 C   0  0  0  0  0  0  0  0  0  0  0  0
    1.1756  -51.6535  -21.6916 S   0  0  0  0  0  0  0  0  0  0  0  0
    1.2531  -51.0403  -18.9267 N   0  0  0  0  0  0  0  0  0  0  0  0
    2.2348  -50.6690  -19.0421 H   0  0  0  0  0  0  0  0  0  0  0  0
   -0.8432  -50.1502  -15.3488 C   0  0  0  0  0  0  0  0  0  0  0  0
   -0.1313  -49.2026  -16.0325 C   0  0  0  0  0  0  0  0  0  0  0  0
    0.5612  -49.4653  -17.2011 C   0  0  0  0  0  0  0  0  0  0  0  0
    0.5709  -50.7046  -17.7424 C   0  0  0  0  0  0  0  0  0  0  0  0
   -0.1546  -51.7032  -17.0593 C   0  0  0  0  0  0  0  0  0  0  0  0
   -0.8336  -51.4181  -15.9020 C   0  0  0  0  0  0  0  0  0  0  0  0
   -1.5866  -49.8641  -14.1021 C   0  0  0  0  0  0  0  0  0  0  0  0
   -3.7712  -50.9859  -13.7140 C   0  0  0  0  0  0  0  0  0  0  0  0
   -5.0777  -50.7113  -14.0094 N   0  0  0  0  0  0  0  0  0  0  0  0
   -5.1053  -49.5449  -14.6709 C   0  0  0  0  0  0  0  0  0  0  0  0
   -3.8146  -49.1166  -14.7738 C   0  0  0  0  0  0  0  0  0  0  0  0
   -2.9978  -50.0048  -14.1842 N   0  0  0  0  0  0  0  0  0  0  0  0
   -4.5373  -53.2580  -13.0827 C   0  0  0  0  0  0  0  0  0  0  0  0
   -3.4110  -52.2214  -12.9885 C   0  0  0  0  0  0  0  0  0  0  0  0
    0.6731  -52.8500  -24.6580 N   0  0  0  0  0  0  0  0  0  0  0  0
    1.5582  -52.2895  -24.3875 H   0  0  0  0  0  0  0  0  0  0  0  0
    0.3347  -52.8698  -26.0296 C   0  0  0  0  0  0  0  0  0  0  0  0
    1.3616  -53.0347  -26.9678 C   0  0  0  0  0  0  0  0  0  0  0  0
    1.1290  -53.0484  -28.3185 C   0  0  0  0  0  0  0  0  0  0  0  0
   -0.1301  -52.9000  -28.8111 C   0  0  0  0  0  0  0  0  0  0  0  0
   -0.3931  -52.9092  -30.1399 F   0  0  0  0  0  0  0  0  0  0  0  0
   -1.1596  -52.7364  -27.9337 C   0  0  0  0  0  0  0  0  0  0  0  0
   -2.7902  -52.5428  -28.5291 Cl  0  0  0  0  0  0  0  0  0  0  0  0
   -0.9112  -52.7235  -26.5538 C   0  0  0  0  0  0  0  0  0  0  0  0
 24 25  1  0  0  0
 25 19  1  0  0  0
 19 20  2  0  0  0
 20 21  1  0  0  0
 21 22  2  0  0  0
 22 23  1  0  0  0
 23 18  1  0  0  0
 18 12  1  0  0  0
 12 13  2  0  0  0
 13 14  1  0  0  0
 14 15  2  0  0  0
 15 10  1  0  0  0
 10  1  1  0  0  0
  1  2  2  0  0  0
  2  3  1  0  0  0
  3  4  2  0  0  0
  4  5  1  0  0  0
  5  6  2  0  0  0
  6  7  1  0  0  0
  7 26  1  0  0  0
 26 28  1  0  0  0
 28 29  2  0  0  0
 29 30  1  0  0  0
 30 31  2  0  0  0
 31 32  1  0  0  0
 31 33  1  0  0  0
 33 34  1  0  0  0
 33 35  2  0  0  0
  7  8  2  0  0  0
  8  9  1  0  0  0
 15 16  1  0  0  0
 16 17  2  0  0  0
 23 19  1  0  0  0
 17 12  1  0  0  0
  9  1  1  0  0  0
  8  3  1  0  0  0
 35 28  1  0  0  0
 10 11  1  0  0  0
 26 27  1  0  0  0
M  END
> <minimizedAffinity>
-8.53102

> <CNNscore>
0.7319051623

> <CNNaffinity>
7.4614610672

> <CNN_VS>
5.4610819817

> <CNNaffinity_variance>
0.1402703375

$$$$
[H]c1nc(N([H])c2c([H])c([H])c(F)c(Cl)c2[H])c2sc(N([H])c3c([H])c([H])c(C([H])([H])n4c(C([H])([H])C([H])([H])[H])nc([H])c4[H])c([H])c3[H])nc2n1


 35 39  0  0  0  0  0  0  0  0999 V2000
    0.2121  -52.2370  -19.9335 C   0  0  0  0  0  0  0  0  0  0  0  0
   -0.5998  -53.2480  -20.1120 N   0  0  0  0  0  0  0  0  0  0  0  0
   -0.7972  -53.7706  -21.2859 C   0  0  0  0  0  0  0  0  0  0  0  0
   -1.6237  -54.8289  -21.5873 N   0  0  0  0  0  0  0  0  0  0  0  0
   -1.7256  -55.2582  -22.8448 C   0  0  0  0  0  0  0  0  0  0  0  0
   -1.0736  -54.7391  -23.8979 N   0  0  0  0  0  0  0  0  0  0  0  0
   -0.2447  -53.6933  -23.6593 C   0  0  0  0  0  0  0  0  0  0  0  0
   -0.1215  -53.2227  -22.3359 C   0  0  0  0  0  0  0  0  0  0  0  0
    0.7640  -51.9786  -21.5636 S   0  0  0  0  0  0  0  0  0  0  0  0
    0.5949  -51.4979  -18.7766 N   0  0  0  0  0  0  0  0  0  0  0  0
    0.0145  -51.6800  -17.9135 H   0  0  0  0  0  0  0  0  0  0  0  0
    3.8441  -48.7923  -18.4442 C   0  0  0  0  0  0  0  0  0  0  0  0
    2.5415  -48.3735  -18.4324 C   0  0  0  0  0  0  0  0  0  0  0  0
    1.4631  -49.2337  -18.5390 C   0  0  0  0  0  0  0  0  0  0  0  0
    1.6452  -50.5680  -18.6640 C   0  0  0  0  0  0  0  0  0  0  0  0
    2.9781  -51.0298  -18.6795 C   0  0  0  0  0  0  0  0  0  0  0  0
    4.0309  -50.1571  -18.5721 C   0  0  0  0  0  0  0  0  0  0  0  0
    4.9944  -47.8697  -18.3249 C   0  0  0  0  0  0  0  0  0  0  0  0
    5.1053  -45.6497  -19.4389 C   0  0  0  0  0  0  0  0  0  0  0  0
    5.3707  -45.2022  -20.7033 N   0  0  0  0  0  0  0  0  0  0  0  0
    5.6151  -46.2763  -21.4685 C   0  0  0  0  0  0  0  0  0  0  0  0
    5.4970  -47.3714  -20.6643 C   0  0  0  0  0  0  0  0  0  0  0  0
    5.1839  -46.9820  -19.4177 N   0  0  0  0  0  0  0  0  0  0  0  0
    3.2682  -44.5370  -18.2000 C   0  0  0  0  0  0  0  0  0  0  0  0
    4.7855  -44.6948  -18.3580 C   0  0  0  0  0  0  0  0  0  0  0  0
    0.5275  -53.0303  -24.6167 N   0  0  0  0  0  0  0  0  0  0  0  0
    1.3845  -52.4863  -24.2417 H   0  0  0  0  0  0  0  0  0  0  0  0
    0.3142  -52.9849  -26.0126 C   0  0  0  0  0  0  0  0  0  0  0  0
    1.4175  -53.1388  -26.8616 C   0  0  0  0  0  0  0  0  0  0  0  0
    1.3077  -53.0910  -28.2270 C   0  0  0  0  0  0  0  0  0  0  0  0
    0.1020  -52.8887  -28.8233 C   0  0  0  0  0  0  0  0  0  0  0  0
   -0.0400  -52.8365  -30.1693 F   0  0  0  0  0  0  0  0  0  0  0  0
   -0.9986  -52.7335  -28.0350 C   0  0  0  0  0  0  0  0  0  0  0  0
   -2.5637  -52.4719  -28.7648 Cl  0  0  0  0  0  0  0  0  0  0  0  0
   -0.8755  -52.7838  -26.6392 C   0  0  0  0  0  0  0  0  0  0  0  0
 24 25  1  0  0  0
 25 19  1  0  0  0
 19 20  2  0  0  0
 20 21  1  0  0  0
 21 22  2  0  0  0
 22 23  1  0  0  0
 23 18  1  0  0  0
 18 12  1  0  0  0
 12 13  2  0  0  0
 13 14  1  0  0  0
 14 15  2  0  0  0
 15 10  1  0  0  0
 10  1  1  0  0  0
  1  2  2  0  0  0
  2  3  1  0  0  0
  3  4  2  0  0  0
  4  5  1  0  0  0
  5  6  2  0  0  0
  6  7  1  0  0  0
  7 26  1  0  0  0
 26 28  1  0  0  0
 28 29  2  0  0  0
 29 30  1  0  0  0
 30 31  2  0  0  0
 31 32  1  0  0  0
 31 33  1  0  0  0
 33 34  1  0  0  0
 33 35  2  0  0  0
  7  8  2  0  0  0
  8  9  1  0  0  0
 15 16  1  0  0  0
 16 17  2  0  0  0
 23 19  1  0  0  0
 17 12  1  0  0  0
  9  1  1  0  0  0
  8  3  1  0  0  0
 35 28  1  0  0  0
 10 11  1  0  0  0
 26 27  1  0  0  0
M  END
> <minimizedAffinity>
-7.47419

> <CNNscore>
0.7094507813

> <CNNaffinity>
7.5650343895

> <CNN_VS>
5.3670196533

> <CNNaffinity_variance>
0.1575746834

$$$$
[H]c1nc(N([H])c2c([H])c([H])c(F)c(Cl)c2[H])c2sc(N([H])c3c([H])c([H])c(C([H])([H])n4c(C([H])([H])C([H])([H])[H])nc([H])c4[H])c([H])c3[H])nc2n1


 35 39  0  0  0  0  0  0  0  0999 V2000
   -1.3593  -53.7605  -20.7413 C   0  0  0  0  0  0  0  0  0  0  0  0
   -1.4654  -54.6286  -21.7153 N   0  0  0  0  0  0  0  0  0  0  0  0
   -1.0022  -54.3846  -22.9053 C   0  0  0  0  0  0  0  0  0  0  0  0
   -1.0585  -55.2199  -23.9975 N   0  0  0  0  0  0  0  0  0  0  0  0
   -0.5377  -54.8318  -25.1613 C   0  0  0  0  0  0  0  0  0  0  0  0
    0.0648  -53.6532  -25.3879 N   0  0  0  0  0  0  0  0  0  0  0  0
    0.1488  -52.7899  -24.3462 C   0  0  0  0  0  0  0  0  0  0  0  0
   -0.3956  -53.1800  -23.1054 C   0  0  0  0  0  0  0  0  0  0  0  0
   -0.5297  -52.4657  -21.5561 S   0  0  0  0  0  0  0  0  0  0  0  0
   -1.7731  -53.7832  -19.3778 N   0  0  0  0  0  0  0  0  0  0  0  0
   -2.4642  -54.5419  -19.1295 H   0  0  0  0  0  0  0  0  0  0  0  0
   -0.6484  -51.2117  -16.1981 C   0  0  0  0  0  0  0  0  0  0  0  0
    0.0804  -51.3072  -17.3521 C   0  0  0  0  0  0  0  0  0  0  0  0
   -0.2632  -52.1371  -18.4044 C   0  0  0  0  0  0  0  0  0  0  0  0
   -1.3661  -52.9177  -18.3454 C   0  0  0  0  0  0  0  0  0  0  0  0
   -2.1379  -52.8409  -17.1671 C   0  0  0  0  0  0  0  0  0  0  0  0
   -1.7766  -52.0100  -16.1372 C   0  0  0  0  0  0  0  0  0  0  0  0
   -0.2803  -50.3192  -15.0771 C   0  0  0  0  0  0  0  0  0  0  0  0
   -0.3059  -47.8331  -15.0958 C   0  0  0  0  0  0  0  0  0  0  0  0
   -1.2714  -46.8652  -15.1209 N   0  0  0  0  0  0  0  0  0  0  0  0
   -2.4618  -47.4829  -15.1321 C   0  0  0  0  0  0  0  0  0  0  0  0
   -2.2132  -48.8237  -15.1138 C   0  0  0  0  0  0  0  0  0  0  0  0
   -0.8871  -49.0348  -15.0918 N   0  0  0  0  0  0  0  0  0  0  0  0
    1.6508  -47.4232  -13.6291 C   0  0  0  0  0  0  0  0  0  0  0  0
    1.1243  -47.4640  -15.0690 C   0  0  0  0  0  0  0  0  0  0  0  0
    0.7483  -51.5280  -24.3794 N   0  0  0  0  0  0  0  0  0  0  0  0
    0.1321  -50.7192  -24.7493 H   0  0  0  0  0  0  0  0  0  0  0  0
    2.0644  -51.1907  -23.9917 C   0  0  0  0  0  0  0  0  0  0  0  0
    2.2618  -50.0195  -23.2493 C   0  0  0  0  0  0  0  0  0  0  0  0
    3.5043  -49.6048  -22.8455 C   0  0  0  0  0  0  0  0  0  0  0  0
    4.6151  -50.3264  -23.1546 C   0  0  0  0  0  0  0  0  0  0  0  0
    5.8565  -49.9440  -22.7705 F   0  0  0  0  0  0  0  0  0  0  0  0
    4.4693  -51.4730  -23.8761 C   0  0  0  0  0  0  0  0  0  0  0  0
    5.8728  -52.4259  -24.2919 Cl  0  0  0  0  0  0  0  0  0  0  0  0
    3.1939  -51.8884  -24.2846 C   0  0  0  0  0  0  0  0  0  0  0  0
 24 25  1  0  0  0
 25 19  1  0  0  0
 19 20  2  0  0  0
 20 21  1  0  0  0
 21 22  2  0  0  0
 22 23  1  0  0  0
 23 18  1  0  0  0
 18 12  1  0  0  0
 12 13  2  0  0  0
 13 14  1  0  0  0
 14 15  2  0  0  0
 15 10  1  0  0  0
 10  1  1  0  0  0
  1  2  2  0  0  0
  2  3  1  0  0  0
  3  4  2  0  0  0
  4  5  1  0  0  0
  5  6  2  0  0  0
  6  7  1  0  0  0
  7 26  1  0  0  0
 26 28  1  0  0  0
 28 29  2  0  0  0
 29 30  1  0  0  0
 30 31  2  0  0  0
 31 32  1  0  0  0
 31 33  1  0  0  0
 33 34  1  0  0  0
 33 35  2  0  0  0
  7  8  2  0  0  0
  8  9  1  0  0  0
 15 16  1  0  0  0
 16 17  2  0  0  0
 23 19  1  0  0  0
 17 12  1  0  0  0
  9  1  1  0  0  0
  8  3  1  0  0  0
 35 28  1  0  0  0
 10 11  1  0  0  0
 26 27  1  0  0  0
M  END
> <minimizedAffinity>
-7.56039

> <CNNscore>
0.6307653189

> <CNNaffinity>
7.4984865189

> <CNN_VS>
4.7297854424

> <CNNaffinity_variance>
0.0950194821

$$$$
[H]c1nc(N([H])c2c([H])c([H])c(F)c(Cl)c2[H])c2sc(N([H])c3c([H])c([H])c(C([H])([H])n4c(C([H])([H])C([H])([H])[H])nc([H])c4[H])c([H])c3[H])nc2n1


 35 39  0  0  0  0  0  0  0  0999 V2000
    2.0984  -51.1274  -22.0261 C   0  0  0  0  0  0  0  0  0  0  0  0
    1.2623  -51.4100  -21.0595 N   0  0  0  0  0  0  0  0  0  0  0  0
    0.3610  -52.3391  -21.1816 C   0  0  0  0  0  0  0  0  0  0  0  0
   -0.5640  -52.7176  -20.2357 N   0  0  0  0  0  0  0  0  0  0  0  0
   -1.4316  -53.6930  -20.5044 C   0  0  0  0  0  0  0  0  0  0  0  0
   -1.4987  -54.3763  -21.6585 N   0  0  0  0  0  0  0  0  0  0  0  0
   -0.6104  -54.0450  -22.6273 C   0  0  0  0  0  0  0  0  0  0  0  0
    0.3169  -53.0159  -22.3645 C   0  0  0  0  0  0  0  0  0  0  0  0
    1.5855  -52.2681  -23.2363 S   0  0  0  0  0  0  0  0  0  0  0  0
    3.1549  -50.1780  -22.1429 N   0  0  0  0  0  0  0  0  0  0  0  0
    4.0744  -50.4728  -21.7158 H   0  0  0  0  0  0  0  0  0  0  0  0
    2.9409  -46.3176  -23.8865 C   0  0  0  0  0  0  0  0  0  0  0  0
    3.5182  -47.3782  -24.5301 C   0  0  0  0  0  0  0  0  0  0  0  0
    3.6016  -48.6472  -23.9852 C   0  0  0  0  0  0  0  0  0  0  0  0
    3.1040  -48.9122  -22.7558 C   0  0  0  0  0  0  0  0  0  0  0  0
    2.5025  -47.8377  -22.0674 C   0  0  0  0  0  0  0  0  0  0  0  0
    2.4319  -46.5882  -22.6289 C   0  0  0  0  0  0  0  0  0  0  0  0
    2.8493  -44.9633  -24.4747 C   0  0  0  0  0  0  0  0  0  0  0  0
    3.8152  -44.8055  -26.7603 C   0  0  0  0  0  0  0  0  0  0  0  0
    4.9883  -44.3524  -27.2972 N   0  0  0  0  0  0  0  0  0  0  0  0
    5.7492  -43.9071  -26.2864 C   0  0  0  0  0  0  0  0  0  0  0  0
    5.0338  -44.0920  -25.1400 C   0  0  0  0  0  0  0  0  0  0  0  0
    3.8458  -44.6440  -25.4356 N   0  0  0  0  0  0  0  0  0  0  0  0
    3.1803  -46.7476  -28.1649 C   0  0  0  0  0  0  0  0  0  0  0  0
    2.7635  -45.3724  -27.6292 C   0  0  0  0  0  0  0  0  0  0  0  0
   -0.5128  -54.6473  -23.8845 N   0  0  0  0  0  0  0  0  0  0  0  0
   -0.4631  -55.7282  -23.8906 H   0  0  0  0  0  0  0  0  0  0  0  0
   -0.4660  -54.0075  -25.1433 C   0  0  0  0  0  0  0  0  0  0  0  0
   -1.3710  -52.9692  -25.3981 C   0  0  0  0  0  0  0  0  0  0  0  0
   -1.4098  -52.3043  -26.5961 C   0  0  0  0  0  0  0  0  0  0  0  0
   -0.5562  -52.6314  -27.6034 C   0  0  0  0  0  0  0  0  0  0  0  0
   -0.5690  -51.9937  -28.7984 F   0  0  0  0  0  0  0  0  0  0  0  0
    0.3411  -53.6361  -27.3988 C   0  0  0  0  0  0  0  0  0  0  0  0
    1.4530  -54.0841  -28.6692 Cl  0  0  0  0  0  0  0  0  0  0  0  0
    0.3725  -54.3104  -26.1698 C   0  0  0  0  0  0  0  0  0  0  0  0
 24 25  1  0  0  0
 25 19  1  0  0  0
 19 20  2  0  0  0
 20 21  1  0  0  0
 21 22  2  0  0  0
 22 23  1  0  0  0
 23 18  1  0  0  0
 18 12  1  0  0  0
 12 13  2  0  0  0
 13 14  1  0  0  0
 14 15  2  0  0  0
 15 10  1  0  0  0
 10  1  1  0  0  0
  1  2  2  0  0  0
  2  3  1  0  0  0
  3  4  2  0  0  0
  4  5  1  0  0  0
  5  6  2  0  0  0
  6  7  1  0  0  0
  7 26  1  0  0  0
 26 28  1  0  0  0
 28 29  2  0  0  0
 29 30  1  0  0  0
 30 31  2  0  0  0
 31 32  1  0  0  0
 31 33  1  0  0  0
 33 34  1  0  0  0
 33 35  2  0  0  0
  7  8  2  0  0  0
  8  9  1  0  0  0
 15 16  1  0  0  0
 16 17  2  0  0  0
 23 19  1  0  0  0
 17 12  1  0  0  0
  9  1  1  0  0  0
  8  3  1  0  0  0
 35 28  1  0  0  0
 10 11  1  0  0  0
 26 27  1  0  0  0
M  END
> <minimizedAffinity>
-7.53067

> <CNNscore>
0.6009310484

> <CNNaffinity>
7.5295639038

> <CNN_VS>
4.5247488022

> <CNNaffinity_variance>
0.1382897794

$$$$
[H]c1nc(N([H])c2c([H])c([H])c(F)c(Cl)c2[H])c2sc(N([H])c3c([H])c([H])c(C([H])([H])n4c(C([H])([H])C([H])([H])[H])nc([H])c4[H])c([H])c3[H])nc2n1


 35 39  0  0  0  0  0  0  0  0999 V2000
    0.7293  -51.8699  -19.8002 C   0  0  0  0  0  0  0  0  0  0  0  0
   -0.0761  -52.8992  -19.8732 N   0  0  0  0  0  0  0  0  0  0  0  0
   -0.4006  -53.4371  -21.0115 C   0  0  0  0  0  0  0  0  0  0  0  0
   -1.2341  -54.5150  -21.2044 N   0  0  0  0  0  0  0  0  0  0  0  0
   -1.4759  -54.9586  -22.4377 C   0  0  0  0  0  0  0  0  0  0  0  0
   -0.9654  -54.4364  -23.5647 N   0  0  0  0  0  0  0  0  0  0  0  0
   -0.1368  -53.3715  -23.4343 C   0  0  0  0  0  0  0  0  0  0  0  0
    0.1331  -52.8856  -22.1385 C   0  0  0  0  0  0  0  0  0  0  0  0
    1.0773  -51.6161  -21.4863 S   0  0  0  0  0  0  0  0  0  0  0  0
    1.2311  -51.1120  -18.7026 N   0  0  0  0  0  0  0  0  0  0  0  0
    0.7796  -51.3166  -17.7702 H   0  0  0  0  0  0  0  0  0  0  0  0
    4.2095  -48.0958  -18.8421 C   0  0  0  0  0  0  0  0  0  0  0  0
    4.4346  -49.3178  -18.2692 C   0  0  0  0  0  0  0  0  0  0  0  0
    3.4818  -50.3192  -18.2099 C   0  0  0  0  0  0  0  0  0  0  0  0
    2.2460  -50.1374  -18.7285 C   0  0  0  0  0  0  0  0  0  0  0  0
    1.9842  -48.8866  -19.3261 C   0  0  0  0  0  0  0  0  0  0  0  0
    2.9456  -47.9093  -19.3727 C   0  0  0  0  0  0  0  0  0  0  0  0
    5.2328  -47.0293  -18.9080 C   0  0  0  0  0  0  0  0  0  0  0  0
    7.1732  -48.1842  -19.9486 C   0  0  0  0  0  0  0  0  0  0  0  0
    8.4847  -48.3841  -19.6177 N   0  0  0  0  0  0  0  0  0  0  0  0
    8.6974  -47.7900  -18.4343 C   0  0  0  0  0  0  0  0  0  0  0  0
    7.5132  -47.2316  -18.0521 C   0  0  0  0  0  0  0  0  0  0  0  0
    6.5791  -47.4760  -18.9856 N   0  0  0  0  0  0  0  0  0  0  0  0
    7.5648  -49.7940  -21.7934 C   0  0  0  0  0  0  0  0  0  0  0  0
    6.6259  -48.7329  -21.2063 C   0  0  0  0  0  0  0  0  0  0  0  0
    0.5014  -52.7020  -24.4818 N   0  0  0  0  0  0  0  0  0  0  0  0
    1.3199  -52.0521  -24.2011 H   0  0  0  0  0  0  0  0  0  0  0  0
    0.1969  -52.7723  -25.8596 C   0  0  0  0  0  0  0  0  0  0  0  0
    1.2406  -53.0134  -26.7621 C   0  0  0  0  0  0  0  0  0  0  0  0
    1.0414  -53.0803  -28.1166 C   0  0  0  0  0  0  0  0  0  0  0  0
   -0.1992  -52.9125  -28.6484 C   0  0  0  0  0  0  0  0  0  0  0  0
   -0.4292  -52.9729  -29.9819 F   0  0  0  0  0  0  0  0  0  0  0  0
   -1.2441  -52.6754  -27.8066 C   0  0  0  0  0  0  0  0  0  0  0  0
   -2.8517  -52.4547  -28.4529 Cl  0  0  0  0  0  0  0  0  0  0  0  0
   -1.0298  -52.6085  -26.4225 C   0  0  0  0  0  0  0  0  0  0  0  0
 24 25  1  0  0  0
 25 19  1  0  0  0
 19 20  2  0  0  0
 20 21  1  0  0  0
 21 22  2  0  0  0
 22 23  1  0  0  0
 23 18  1  0  0  0
 18 12  1  0  0  0
 12 13  2  0  0  0
 13 14  1  0  0  0
 14 15  2  0  0  0
 15 10  1  0  0  0
 10  1  1  0  0  0
  1  2  2  0  0  0
  2  3  1  0  0  0
  3  4  2  0  0  0
  4  5  1  0  0  0
  5  6  2  0  0  0
  6  7  1  0  0  0
  7 26  1  0  0  0
 26 28  1  0  0  0
 28 29  2  0  0  0
 29 30  1  0  0  0
 30 31  2  0  0  0
 31 32  1  0  0  0
 31 33  1  0  0  0
 33 34  1  0  0  0
 33 35  2  0  0  0
  7  8  2  0  0  0
  8  9  1  0  0  0
 15 16  1  0  0  0
 16 17  2  0  0  0
 23 19  1  0  0  0
 17 12  1  0  0  0
  9  1  1  0  0  0
  8  3  1  0  0  0
 35 28  1  0  0  0
 10 11  1  0  0  0
 26 27  1  0  0  0
M  END
> <minimizedAffinity>
-7.63236

> <CNNscore>
0.5897116661

> <CNNaffinity>
7.3599600792

> <CNN_VS>
4.3402543068

> <CNNaffinity_variance>
0.1540319622

$$$$
[H]c1nc(N([H])c2c([H])c([H])c(F)c(Cl)c2[H])c2sc(N([H])c3c([H])c([H])c(C([H])([H])n4c(C([H])([H])C([H])([H])[H])nc([H])c4[H])c([H])c3[H])nc2n1


 35 39  0  0  0  0  0  0  0  0999 V2000
    0.5766  -51.9340  -19.8035 C   0  0  0  0  0  0  0  0  0  0  0  0
   -0.2378  -52.9530  -19.9121 N   0  0  0  0  0  0  0  0  0  0  0  0
   -0.4966  -53.5052  -21.0602 C   0  0  0  0  0  0  0  0  0  0  0  0
   -1.3320  -54.5745  -21.2894 N   0  0  0  0  0  0  0  0  0  0  0  0
   -1.5008  -55.0351  -22.5286 C   0  0  0  0  0  0  0  0  0  0  0  0
   -0.9113  -54.5389  -23.6285 N   0  0  0  0  0  0  0  0  0  0  0  0
   -0.0770  -53.4837  -23.4618 C   0  0  0  0  0  0  0  0  0  0  0  0
    0.1165  -52.9801  -22.1591 C   0  0  0  0  0  0  0  0  0  0  0  0
    1.0358  -51.7131  -21.4676 S   0  0  0  0  0  0  0  0  0  0  0  0
    1.0182  -51.1649  -18.6880 N   0  0  0  0  0  0  0  0  0  0  0  0
    0.5975  -51.4369  -17.7586 H   0  0  0  0  0  0  0  0  0  0  0  0
    3.7130  -47.8910  -18.7785 C   0  0  0  0  0  0  0  0  0  0  0  0
    3.9854  -49.0417  -18.0900 C   0  0  0  0  0  0  0  0  0  0  0  0
    3.1251  -50.1241  -18.0435 C   0  0  0  0  0  0  0  0  0  0  0  0
    1.9391  -50.1006  -18.6931 C   0  0  0  0  0  0  0  0  0  0  0  0
    1.6302  -48.9266  -19.4119 C   0  0  0  0  0  0  0  0  0  0  0  0
    2.4999  -47.8663  -19.4430 C   0  0  0  0  0  0  0  0  0  0  0  0
    4.6380  -46.7375  -18.8297 C   0  0  0  0  0  0  0  0  0  0  0  0
    4.8121  -45.6384  -16.6063 C   0  0  0  0  0  0  0  0  0  0  0  0
    4.3550  -44.4751  -16.0520 N   0  0  0  0  0  0  0  0  0  0  0  0
    3.6487  -43.8303  -16.9924 C   0  0  0  0  0  0  0  0  0  0  0  0
    3.6806  -44.6057  -18.1139 C   0  0  0  0  0  0  0  0  0  0  0  0
    4.3969  -45.7158  -17.8726 N   0  0  0  0  0  0  0  0  0  0  0  0
    4.9174  -46.9304  -14.4927 C   0  0  0  0  0  0  0  0  0  0  0  0
    5.6236  -46.5802  -15.8083 C   0  0  0  0  0  0  0  0  0  0  0  0
    0.6370  -52.8406  -24.4764 N   0  0  0  0  0  0  0  0  0  0  0  0
    1.5002  -52.2695  -24.1609 H   0  0  0  0  0  0  0  0  0  0  0  0
    0.3577  -52.8468  -25.8613 C   0  0  0  0  0  0  0  0  0  0  0  0
    1.4252  -52.9900  -26.7567 C   0  0  0  0  0  0  0  0  0  0  0  0
    1.2506  -52.9893  -28.1162 C   0  0  0  0  0  0  0  0  0  0  0  0
    0.0121  -52.8470  -28.6603 C   0  0  0  0  0  0  0  0  0  0  0  0
   -0.1940  -52.8424  -29.9991 F   0  0  0  0  0  0  0  0  0  0  0  0
   -1.0555  -52.7044  -27.8258 C   0  0  0  0  0  0  0  0  0  0  0  0
   -2.6612  -52.5193  -28.4880 Cl  0  0  0  0  0  0  0  0  0  0  0  0
   -0.8662  -52.7062  -26.4365 C   0  0  0  0  0  0  0  0  0  0  0  0
 24 25  1  0  0  0
 25 19  1  0  0  0
 19 20  2  0  0  0
 20 21  1  0  0  0
 21 22  2  0  0  0
 22 23  1  0  0  0
 23 18  1  0  0  0
 18 12  1  0  0  0
 12 13  2  0  0  0
 13 14  1  0  0  0
 14 15  2  0  0  0
 15 10  1  0  0  0
 10  1  1  0  0  0
  1  2  2  0  0  0
  2  3  1  0  0  0
  3  4  2  0  0  0
  4  5  1  0  0  0
  5  6  2  0  0  0
  6  7  1  0  0  0
  7 26  1  0  0  0
 26 28  1  0  0  0
 28 29  2  0  0  0
 29 30  1  0  0  0
 30 31  2  0  0  0
 31 32  1  0  0  0
 31 33  1  0  0  0
 33 34  1  0  0  0
 33 35  2  0  0  0
  7  8  2  0  0  0
  8  9  1  0  0  0
 15 16  1  0  0  0
 16 17  2  0  0  0
 23 19  1  0  0  0
 17 12  1  0  0  0
  9  1  1  0  0  0
  8  3  1  0  0  0
 35 28  1  0  0  0
 10 11  1  0  0  0
 26 27  1  0  0  0
M  END
> <minimizedAffinity>
-7.24266

> <CNNscore>
0.5758900642

> <CNNaffinity>
7.1763534546

> <CNN_VS>
4.1327905655

> <CNNaffinity_variance>
0.2297309935

$$$$
[H]c1nc(N([H])c2c([H])c([H])c(F)c(Cl)c2[H])c2sc(N([H])c3c([H])c([H])c(C([H])([H])n4c(C([H])([H])C([H])([H])[H])nc([H])c4[H])c([H])c3[H])nc2n1


 35 39  0  0  0  0  0  0  0  0999 V2000
   -1.0906  -53.6940  -21.1159 C   0  0  0  0  0  0  0  0  0  0  0  0
   -1.2397  -54.4189  -22.1956 N   0  0  0  0  0  0  0  0  0  0  0  0
   -0.6671  -54.1024  -23.3190 C   0  0  0  0  0  0  0  0  0  0  0  0
   -0.7546  -54.7880  -24.5090 N   0  0  0  0  0  0  0  0  0  0  0  0
   -0.1082  -54.3407  -25.5853 C   0  0  0  0  0  0  0  0  0  0  0  0
    0.6557  -53.2371  -25.6294 N   0  0  0  0  0  0  0  0  0  0  0  0
    0.7776  -52.5218  -24.4844 C   0  0  0  0  0  0  0  0  0  0  0  0
    0.1023  -52.9768  -23.3334 C   0  0  0  0  0  0  0  0  0  0  0  0
   -0.0461  -52.4380  -21.7160 S   0  0  0  0  0  0  0  0  0  0  0  0
   -1.5979  -53.8199  -19.7901 N   0  0  0  0  0  0  0  0  0  0  0  0
   -2.2766  -54.6150  -19.6413 H   0  0  0  0  0  0  0  0  0  0  0  0
   -0.7929  -51.4304  -16.3797 C   0  0  0  0  0  0  0  0  0  0  0  0
    0.0140  -51.4205  -17.4848 C   0  0  0  0  0  0  0  0  0  0  0  0
   -0.2248  -52.1892  -18.6100 C   0  0  0  0  0  0  0  0  0  0  0  0
   -1.2960  -53.0120  -18.6780 C   0  0  0  0  0  0  0  0  0  0  0  0
   -2.1466  -53.0437  -17.5529 C   0  0  0  0  0  0  0  0  0  0  0  0
   -1.8887  -52.2720  -16.4487 C   0  0  0  0  0  0  0  0  0  0  0  0
   -0.5368  -50.6031  -15.1803 C   0  0  0  0  0  0  0  0  0  0  0  0
   -2.4741  -49.1051  -14.7510 C   0  0  0  0  0  0  0  0  0  0  0  0
   -2.7165  -47.7639  -14.8609 N   0  0  0  0  0  0  0  0  0  0  0  0
   -1.5961  -47.1877  -15.3208 C   0  0  0  0  0  0  0  0  0  0  0  0
   -0.6782  -48.1825  -15.4879 C   0  0  0  0  0  0  0  0  0  0  0  0
   -1.2216  -49.3592  -15.1363 N   0  0  0  0  0  0  0  0  0  0  0  0
   -4.6830  -50.0978  -15.2832 C   0  0  0  0  0  0  0  0  0  0  0  0
   -3.5308  -50.0207  -14.2740 C   0  0  0  0  0  0  0  0  0  0  0  0
    1.5359  -51.3586  -24.3267 N   0  0  0  0  0  0  0  0  0  0  0  0
    1.1740  -50.4817  -24.8473 H   0  0  0  0  0  0  0  0  0  0  0  0
    2.7198  -51.1995  -23.5723 C   0  0  0  0  0  0  0  0  0  0  0  0
    3.7414  -52.1453  -23.7266 C   0  0  0  0  0  0  0  0  0  0  0  0
    4.9162  -52.0808  -23.0234 C   0  0  0  0  0  0  0  0  0  0  0  0
    5.1415  -51.0784  -22.1320 C   0  0  0  0  0  0  0  0  0  0  0  0
    6.2914  -50.9863  -21.4219 F   0  0  0  0  0  0  0  0  0  0  0  0
    4.1740  -50.1364  -21.9501 C   0  0  0  0  0  0  0  0  0  0  0  0
    4.4276  -48.8342  -20.8139 Cl  0  0  0  0  0  0  0  0  0  0  0  0
    2.9756  -50.2114  -22.6741 C   0  0  0  0  0  0  0  0  0  0  0  0
 24 25  1  0  0  0
 25 19  1  0  0  0
 19 20  2  0  0  0
 20 21  1  0  0  0
 21 22  2  0  0  0
 22 23  1  0  0  0
 23 18  1  0  0  0
 18 12  1  0  0  0
 12 13  2  0  0  0
 13 14  1  0  0  0
 14 15  2  0  0  0
 15 10  1  0  0  0
 10  1  1  0  0  0
  1  2  2  0  0  0
  2  3  1  0  0  0
  3  4  2  0  0  0
  4  5  1  0  0  0
  5  6  2  0  0  0
  6  7  1  0  0  0
  7 26  1  0  0  0
 26 28  1  0  0  0
 28 29  2  0  0  0
 29 30  1  0  0  0
 30 31  2  0  0  0
 31 32  1  0  0  0
 31 33  1  0  0  0
 33 34  1  0  0  0
 33 35  2  0  0  0
  7  8  2  0  0  0
  8  9  1  0  0  0
 15 16  1  0  0  0
 16 17  2  0  0  0
 23 19  1  0  0  0
 17 12  1  0  0  0
  9  1  1  0  0  0
  8  3  1  0  0  0
 35 28  1  0  0  0
 10 11  1  0  0  0
 26 27  1  0  0  0
M  END
> <minimizedAffinity>
-7.87837

> <CNNscore>
0.5494211912

> <CNNaffinity>
7.4482908249

> <CNN_VS>
4.0922489166

> <CNNaffinity_variance>
0.0945963487

$$$$
[H]c1nc(N([H])c2c([H])c([H])c(F)c(Cl)c2[H])c2sc(N([H])c3c([H])c([H])c(C([H])([H])n4c(C([H])([H])C([H])([H])[H])nc([H])c4[H])c([H])c3[H])nc2n1


 35 39  0  0  0  0  0  0  0  0999 V2000
    0.5749  -50.8707  -20.9699 C   0  0  0  0  0  0  0  0  0  0  0  0
   -0.2355  -51.8730  -20.7419 N   0  0  0  0  0  0  0  0  0  0  0  0
   -0.4286  -52.8126  -21.6194 C   0  0  0  0  0  0  0  0  0  0  0  0
   -1.2532  -53.9062  -21.4861 N   0  0  0  0  0  0  0  0  0  0  0  0
   -1.3506  -54.7925  -22.4767 C   0  0  0  0  0  0  0  0  0  0  0  0
   -0.6956  -54.7241  -23.6471 N   0  0  0  0  0  0  0  0  0  0  0  0
    0.1316  -53.6664  -23.8332 C   0  0  0  0  0  0  0  0  0  0  0  0
    0.2501  -52.7164  -22.7981 C   0  0  0  0  0  0  0  0  0  0  0  0
    1.1320  -51.2677  -22.5701 S   0  0  0  0  0  0  0  0  0  0  0  0
    0.9532  -49.7380  -20.1920 N   0  0  0  0  0  0  0  0  0  0  0  0
    0.9797  -48.8211  -20.7150 H   0  0  0  0  0  0  0  0  0  0  0  0
    1.8445  -49.6921  -16.0457 C   0  0  0  0  0  0  0  0  0  0  0  0
    2.7825  -49.3971  -16.9972 C   0  0  0  0  0  0  0  0  0  0  0  0
    2.5193  -49.4044  -18.3554 C   0  0  0  0  0  0  0  0  0  0  0  0
    1.2891  -49.7118  -18.8256 C   0  0  0  0  0  0  0  0  0  0  0  0
    0.3005  -50.0209  -17.8678 C   0  0  0  0  0  0  0  0  0  0  0  0
    0.5859  -50.0068  -16.5262 C   0  0  0  0  0  0  0  0  0  0  0  0
    2.1287  -49.6783  -14.5940 C   0  0  0  0  0  0  0  0  0  0  0  0
    2.4237  -51.9256  -13.5719 C   0  0  0  0  0  0  0  0  0  0  0  0
    1.6348  -52.7888  -12.8633 N   0  0  0  0  0  0  0  0  0  0  0  0
    0.4278  -52.2187  -12.7339 C   0  0  0  0  0  0  0  0  0  0  0  0
    0.4897  -51.0111  -13.3647 C   0  0  0  0  0  0  0  0  0  0  0  0
    1.7181  -50.8347  -13.8781 N   0  0  0  0  0  0  0  0  0  0  0  0
    4.4493  -53.0993  -12.7552 C   0  0  0  0  0  0  0  0  0  0  0  0
    3.8229  -52.2778  -13.8887 C   0  0  0  0  0  0  0  0  0  0  0  0
    0.9065  -53.4279  -24.9714 N   0  0  0  0  0  0  0  0  0  0  0  0
    1.9738  -53.3501  -24.8114 H   0  0  0  0  0  0  0  0  0  0  0  0
    0.4559  -53.2715  -26.3013 C   0  0  0  0  0  0  0  0  0  0  0  0
    1.3908  -53.3753  -27.3391 C   0  0  0  0  0  0  0  0  0  0  0  0
    1.0475  -53.2205  -28.6570 C   0  0  0  0  0  0  0  0  0  0  0  0
   -0.2372  -52.9553  -29.0167 C   0  0  0  0  0  0  0  0  0  0  0  0
   -0.6087  -52.7971  -30.3097 F   0  0  0  0  0  0  0  0  0  0  0  0
   -1.1798  -52.8455  -28.0390 C   0  0  0  0  0  0  0  0  0  0  0  0
   -2.8399  -52.5056  -28.4626 Cl  0  0  0  0  0  0  0  0  0  0  0  0
   -0.8183  -53.0054  -26.6937 C   0  0  0  0  0  0  0  0  0  0  0  0
 24 25  1  0  0  0
 25 19  1  0  0  0
 19 20  2  0  0  0
 20 21  1  0  0  0
 21 22  2  0  0  0
 22 23  1  0  0  0
 23 18  1  0  0  0
 18 12  1  0  0  0
 12 13  2  0  0  0
 13 14  1  0  0  0
 14 15  2  0  0  0
 15 10  1  0  0  0
 10  1  1  0  0  0
  1  2  2  0  0  0
  2  3  1  0  0  0
  3  4  2  0  0  0
  4  5  1  0  0  0
  5  6  2  0  0  0
  6  7  1  0  0  0
  7 26  1  0  0  0
 26 28  1  0  0  0
 28 29  2  0  0  0
 29 30  1  0  0  0
 30 31  2  0  0  0
 31 32  1  0  0  0
 31 33  1  0  0  0
 33 34  1  0  0  0
 33 35  2  0  0  0
  7  8  2  0  0  0
  8  9  1  0  0  0
 15 16  1  0  0  0
 16 17  2  0  0  0
 23 19  1  0  0  0
 17 12  1  0  0  0
  9  1  1  0  0  0
  8  3  1  0  0  0
 35 28  1  0  0  0
 10 11  1  0  0  0
 26 27  1  0  0  0
M  END
> <minimizedAffinity>
-7.98067

> <CNNscore>
0.5339550972

> <CNNaffinity>
7.2436041832

> <CNN_VS>
3.8677594662

> <CNNaffinity_variance>
0.2031510770

$$$$
[H]c1nc(N([H])c2c([H])c([H])c(F)c(Cl)c2[H])c2sc(N([H])c3c([H])c([H])c(C([H])([H])n4c(C([H])([H])C([H])([H])[H])nc([H])c4[H])c([H])c3[H])nc2n1


 35 39  0  0  0  0  0  0  0  0999 V2000
   -1.2808  -53.9700  -21.1657 C   0  0  0  0  0  0  0  0  0  0  0  0
   -1.3657  -54.9651  -22.0119 N   0  0  0  0  0  0  0  0  0  0  0  0
   -0.9734  -54.8515  -23.2461 C   0  0  0  0  0  0  0  0  0  0  0  0
   -1.0163  -55.8266  -24.2163 N   0  0  0  0  0  0  0  0  0  0  0  0
   -0.5759  -55.5632  -25.4463 C   0  0  0  0  0  0  0  0  0  0  0  0
   -0.0709  -54.3879  -25.8552 N   0  0  0  0  0  0  0  0  0  0  0  0
   -0.0048  -53.3900  -24.9401 C   0  0  0  0  0  0  0  0  0  0  0  0
   -0.4651  -53.6467  -23.6324 C   0  0  0  0  0  0  0  0  0  0  0  0
   -0.5835  -52.7430  -22.1839 S   0  0  0  0  0  0  0  0  0  0  0  0
   -1.6325  -53.8384  -19.7909 N   0  0  0  0  0  0  0  0  0  0  0  0
   -2.4037  -54.4792  -19.4600 H   0  0  0  0  0  0  0  0  0  0  0  0
   -0.0303  -51.2321  -16.8534 C   0  0  0  0  0  0  0  0  0  0  0  0
    0.5011  -51.3296  -18.1105 C   0  0  0  0  0  0  0  0  0  0  0  0
   -0.0011  -52.1708  -19.0874 C   0  0  0  0  0  0  0  0  0  0  0  0
   -1.0713  -52.9612  -18.8442 C   0  0  0  0  0  0  0  0  0  0  0  0
   -1.6410  -52.8825  -17.5560 C   0  0  0  0  0  0  0  0  0  0  0  0
   -1.1249  -52.0405  -16.6041 C   0  0  0  0  0  0  0  0  0  0  0  0
    0.5067  -50.3276  -15.8132 C   0  0  0  0  0  0  0  0  0  0  0  0
    2.9513  -50.1916  -15.3802 C   0  0  0  0  0  0  0  0  0  0  0  0
    3.8509  -50.8907  -14.6243 N   0  0  0  0  0  0  0  0  0  0  0  0
    3.1795  -51.8704  -14.0013 C   0  0  0  0  0  0  0  0  0  0  0  0
    1.8744  -51.7612  -14.3821 C   0  0  0  0  0  0  0  0  0  0  0  0
    1.7383  -50.7281  -15.2293 N   0  0  0  0  0  0  0  0  0  0  0  0
    3.6652  -49.4786  -17.6451 C   0  0  0  0  0  0  0  0  0  0  0  0
    3.3927  -49.0444  -16.1997 C   0  0  0  0  0  0  0  0  0  0  0  0
    0.4996  -52.1068  -25.1682 N   0  0  0  0  0  0  0  0  0  0  0  0
   -0.2217  -51.3608  -25.4747 H   0  0  0  0  0  0  0  0  0  0  0  0
    1.8399  -51.6761  -25.0500 C   0  0  0  0  0  0  0  0  0  0  0  0
    2.7681  -52.5393  -24.4541 C   0  0  0  0  0  0  0  0  0  0  0  0
    4.0846  -52.1988  -24.2817 C   0  0  0  0  0  0  0  0  0  0  0  0
    4.5511  -50.9878  -24.6894 C   0  0  0  0  0  0  0  0  0  0  0  0
    5.8458  -50.6213  -24.5338 F   0  0  0  0  0  0  0  0  0  0  0  0
    3.6821  -50.1163  -25.2742 C   0  0  0  0  0  0  0  0  0  0  0  0
    4.2447  -48.5522  -25.8105 Cl  0  0  0  0  0  0  0  0  0  0  0  0
    2.3373  -50.4742  -25.4457 C   0  0  0  0  0  0  0  0  0  0  0  0
 24 25  1  0  0  0
 25 19  1  0  0  0
 19 20  2  0  0  0
 20 21  1  0  0  0
 21 22  2  0  0  0
 22 23  1  0  0  0
 23 18  1  0  0  0
 18 12  1  0  0  0
 12 13  2  0  0  0
 13 14  1  0  0  0
 14 15  2  0  0  0
 15 10  1  0  0  0
 10  1  1  0  0  0
  1  2  2  0  0  0
  2  3  1  0  0  0
  3  4  2  0  0  0
  4  5  1  0  0  0
  5  6  2  0  0  0
  6  7  1  0  0  0
  7 26  1  0  0  0
 26 28  1  0  0  0
 28 29  2  0  0  0
 29 30  1  0  0  0
 30 31  2  0  0  0
 31 32  1  0  0  0
 31 33  1  0  0  0
 33 34  1  0  0  0
 33 35  2  0  0  0
  7  8  2  0  0  0
  8  9  1  0  0  0
 15 16  1  0  0  0
 16 17  2  0  0  0
 23 19  1  0  0  0
 17 12  1  0  0  0
  9  1  1  0  0  0
  8  3  1  0  0  0
 35 28  1  0  0  0
 10 11  1  0  0  0
 26 27  1  0  0  0
M  END
> <minimizedAffinity>
-7.97715

> <CNNscore>
0.5250778794

> <CNNaffinity>
7.3055620193

> <CNN_VS>
3.8359889984

> <CNNaffinity_variance>
0.0529747233

$$$$
[H]c1nc(N([H])c2c([H])c([H])c([H])c(C(=O)C([H])([H])[H])c2[H])c2c([H])c3c(oc(=O)n3C([H])([H])C([H])([H])OC([H])([H])[H])c([H])c2n1


 29 32  0  0  0  0  0  0  0  0999 V2000
    1.0547  -49.7448  -19.2988 N   0  0  0  0  0  0  0  0  0  0  0  0
    0.5823  -50.8246  -19.9410 C   0  0  0  0  0  0  0  0  0  0  0  0
    0.5035  -51.1935  -21.2877 C   0  0  0  0  0  0  0  0  0  0  0  0
   -0.0346  -52.3801  -21.7315 C   0  0  0  0  0  0  0  0  0  0  0  0
   -0.0993  -52.7188  -23.0876 C   0  0  0  0  0  0  0  0  0  0  0  0
   -0.6451  -53.8946  -23.3751 N   0  0  0  0  0  0  0  0  0  0  0  0
   -1.1130  -54.7246  -22.4378 C   0  0  0  0  0  0  0  0  0  0  0  0
   -1.0511  -54.3989  -21.1300 N   0  0  0  0  0  0  0  0  0  0  0  0
   -0.5127  -53.2218  -20.7324 C   0  0  0  0  0  0  0  0  0  0  0  0
   -0.4525  -52.8926  -19.3933 C   0  0  0  0  0  0  0  0  0  0  0  0
    0.0965  -51.6917  -19.0015 C   0  0  0  0  0  0  0  0  0  0  0  0
    0.2893  -51.1109  -17.8187 O   0  0  0  0  0  0  0  0  0  0  0  0
    0.8647  -49.9395  -17.9827 C   0  0  0  0  0  0  0  0  0  0  0  0
    1.1715  -49.1581  -17.0393 O   0  0  0  0  0  0  0  0  0  0  0  0
    0.4254  -51.8400  -24.0726 N   0  0  0  0  0  0  0  0  0  0  0  0
    0.4052  -50.8111  -23.9182 H   0  0  0  0  0  0  0  0  0  0  0  0
    0.9906  -52.2549  -25.3009 C   0  0  0  0  0  0  0  0  0  0  0  0
    2.2813  -52.5837  -25.5420 C   0  0  0  0  0  0  0  0  0  0  0  0
    2.6676  -52.9336  -26.8273 C   0  0  0  0  0  0  0  0  0  0  0  0
    1.8166  -52.9741  -27.9058 C   0  0  0  0  0  0  0  0  0  0  0  0
    0.5074  -52.6397  -27.6518 C   0  0  0  0  0  0  0  0  0  0  0  0
    0.1024  -52.2904  -26.3902 C   0  0  0  0  0  0  0  0  0  0  0  0
   -0.4535  -52.6614  -28.7499 C   0  0  0  0  0  0  0  0  0  0  0  0
   -1.9043  -52.6154  -28.4981 C   0  0  0  0  0  0  0  0  0  0  0  0
   -0.0502  -52.7204  -29.9422 O   0  0  0  0  0  0  0  0  0  0  0  0
    1.6491  -48.6138  -19.9883 C   0  0  0  0  0  0  0  0  0  0  0  0
    3.1280  -48.6276  -19.9821 C   0  0  0  0  0  0  0  0  0  0  0  0
    4.3757  -50.4222  -20.6691 C   0  0  0  0  0  0  0  0  0  0  0  0
    3.6234  -49.3397  -21.0521 O   0  0  0  0  0  0  0  0  0  0  0  0
 28 29  1  0  0  0
 29 27  1  0  0  0
 27 26  1  0  0  0
 26  1  1  0  0  0
  1  2  1  0  0  0
  2  3  2  0  0  0
  3  4  1  0  0  0
  4  5  2  0  0  0
  5 15  1  0  0  0
 15 17  1  0  0  0
 17 18  2  0  0  0
 18 19  1  0  0  0
 19 20  2  0  0  0
 20 21  1  0  0  0
 21 22  2  0  0  0
 21 23  1  0  0  0
 23 24  1  0  0  0
 23 25  2  0  0  0
  5  6  1  0  0  0
  6  7  2  0  0  0
  7  8  1  0  0  0
  8  9  2  0  0  0
  9 10  1  0  0  0
 10 11  2  0  0  0
 11 12  1  0  0  0
 12 13  1  0  0  0
 13 14  2  0  0  0
 13  1  1  0  0  0
 11  2  1  0  0  0
  9  4  1  0  0  0
 22 17  1  0  0  0
 15 16  1  0  0  0
M  END
> <minimizedAffinity>
-8.15898

> <CNNscore>
0.7881408334

> <CNNaffinity>
6.7908067703

> <CNN_VS>
5.3521122932

> <CNNaffinity_variance>
0.2150566578

$$$$
[H]c1nc(N([H])c2c([H])c([H])c([H])c(C(=O)C([H])([H])[H])c2[H])c2c([H])c3c(oc(=O)n3C([H])([H])C([H])([H])OC([H])([H])[H])c([H])c2n1


 29 32  0  0  0  0  0  0  0  0999 V2000
    1.3092  -53.4948  -25.6268 N   0  0  0  0  0  0  0  0  0  0  0  0
    0.6972  -53.5742  -24.4348 C   0  0  0  0  0  0  0  0  0  0  0  0
    1.0035  -53.1009  -23.1551 C   0  0  0  0  0  0  0  0  0  0  0  0
    0.2111  -53.3042  -22.0481 C   0  0  0  0  0  0  0  0  0  0  0  0
    0.5471  -52.8175  -20.7799 C   0  0  0  0  0  0  0  0  0  0  0  0
   -0.3075  -53.0878  -19.8004 N   0  0  0  0  0  0  0  0  0  0  0  0
   -1.4321  -53.7843  -19.9919 C   0  0  0  0  0  0  0  0  0  0  0  0
   -1.7569  -54.2540  -21.2142 N   0  0  0  0  0  0  0  0  0  0  0  0
   -0.9516  -54.0320  -22.2798 C   0  0  0  0  0  0  0  0  0  0  0  0
   -1.2877  -54.5155  -23.5283 C   0  0  0  0  0  0  0  0  0  0  0  0
   -0.4596  -54.2839  -24.6042 C   0  0  0  0  0  0  0  0  0  0  0  0
   -0.5132  -54.6130  -25.8936 O   0  0  0  0  0  0  0  0  0  0  0  0
    0.5443  -54.1448  -26.5203 C   0  0  0  0  0  0  0  0  0  0  0  0
    0.7684  -54.2999  -27.7534 O   0  0  0  0  0  0  0  0  0  0  0  0
    1.7318  -52.0560  -20.5943 N   0  0  0  0  0  0  0  0  0  0  0  0
    2.6314  -52.5338  -20.3816 H   0  0  0  0  0  0  0  0  0  0  0  0
    1.8005  -50.6453  -20.6683 C   0  0  0  0  0  0  0  0  0  0  0  0
    0.8341  -49.7966  -21.0902 C   0  0  0  0  0  0  0  0  0  0  0  0
    1.0927  -48.4346  -21.1318 C   0  0  0  0  0  0  0  0  0  0  0  0
    2.2883  -47.8637  -20.7666 C   0  0  0  0  0  0  0  0  0  0  0  0
    3.2639  -48.7327  -20.3384 C   0  0  0  0  0  0  0  0  0  0  0  0
    3.0318  -50.0823  -20.2891 C   0  0  0  0  0  0  0  0  0  0  0  0
    4.5597  -48.1971  -19.9338 C   0  0  0  0  0  0  0  0  0  0  0  0
    5.7725  -49.0332  -19.9515 C   0  0  0  0  0  0  0  0  0  0  0  0
    4.6595  -46.9981  -19.5595 O   0  0  0  0  0  0  0  0  0  0  0  0
    2.5731  -52.8070  -25.8207 C   0  0  0  0  0  0  0  0  0  0  0  0
    2.4312  -51.4721  -26.4414 C   0  0  0  0  0  0  0  0  0  0  0  0
    2.9069  -50.2356  -24.5721 C   0  0  0  0  0  0  0  0  0  0  0  0
    1.9739  -50.5458  -25.5302 O   0  0  0  0  0  0  0  0  0  0  0  0
 28 29  1  0  0  0
 29 27  1  0  0  0
 27 26  1  0  0  0
 26  1  1  0  0  0
  1  2  1  0  0  0
  2  3  2  0  0  0
  3  4  1  0  0  0
  4  5  2  0  0  0
  5 15  1  0  0  0
 15 17  1  0  0  0
 17 18  2  0  0  0
 18 19  1  0  0  0
 19 20  2  0  0  0
 20 21  1  0  0  0
 21 22  2  0  0  0
 21 23  1  0  0  0
 23 24  1  0  0  0
 23 25  2  0  0  0
  5  6  1  0  0  0
  6  7  2  0  0  0
  7  8  1  0  0  0
  8  9  2  0  0  0
  9 10  1  0  0  0
 10 11  2  0  0  0
 11 12  1  0  0  0
 12 13  1  0  0  0
 13 14  2  0  0  0
 13  1  1  0  0  0
 11  2  1  0  0  0
  9  4  1  0  0  0
 22 17  1  0  0  0
 15 16  1  0  0  0
M  END
> <minimizedAffinity>
-7.10622

> <CNNscore>
0.5915844440

> <CNNaffinity>
6.4881019592

> <CNN_VS>
3.8382601738

> <CNNaffinity_variance>
0.2525054514

$$$$
[H]c1nc(N([H])c2c([H])c([H])c([H])c(C(=O)C([H])([H])[H])c2[H])c2c([H])c3c(oc(=O)n3C([H])([H])C([H])([H])OC([H])([H])[H])c([H])c2n1


 29 32  0  0  0  0  0  0  0  0999 V2000
    0.6318  -53.2730  -26.0387 N   0  0  0  0  0  0  0  0  0  0  0  0
    0.1734  -53.4003  -24.7835 C   0  0  0  0  0  0  0  0  0  0  0  0
    0.2526  -52.6025  -23.6376 C   0  0  0  0  0  0  0  0  0  0  0  0
   -0.3061  -52.9377  -22.4252 C   0  0  0  0  0  0  0  0  0  0  0  0
   -0.2078  -52.1167  -21.2963 C   0  0  0  0  0  0  0  0  0  0  0  0
   -0.7924  -52.5634  -20.1910 N   0  0  0  0  0  0  0  0  0  0  0  0
   -1.4439  -53.7292  -20.1366 C   0  0  0  0  0  0  0  0  0  0  0  0
   -1.5392  -54.5215  -21.2245 N   0  0  0  0  0  0  0  0  0  0  0  0
   -0.9769  -54.1562  -22.4008 C   0  0  0  0  0  0  0  0  0  0  0  0
   -1.0762  -54.9707  -23.5108 C   0  0  0  0  0  0  0  0  0  0  0  0
   -0.4990  -54.5884  -24.7015 C   0  0  0  0  0  0  0  0  0  0  0  0
   -0.4275  -55.1449  -25.9094 O   0  0  0  0  0  0  0  0  0  0  0  0
    0.2498  -54.3645  -26.7233 C   0  0  0  0  0  0  0  0  0  0  0  0
    0.4814  -54.6296  -27.9360 O   0  0  0  0  0  0  0  0  0  0  0  0
    0.4645  -50.8678  -21.3737 N   0  0  0  0  0  0  0  0  0  0  0  0
   -0.0212  -50.0372  -21.7701 H   0  0  0  0  0  0  0  0  0  0  0  0
    1.7947  -50.6433  -20.9487 C   0  0  0  0  0  0  0  0  0  0  0  0
    2.9194  -50.7114  -21.6987 C   0  0  0  0  0  0  0  0  0  0  0  0
    4.1522  -50.4964  -21.1007 C   0  0  0  0  0  0  0  0  0  0  0  0
    4.3250  -50.2107  -19.7675 C   0  0  0  0  0  0  0  0  0  0  0  0
    3.1774  -50.1425  -19.0134 C   0  0  0  0  0  0  0  0  0  0  0  0
    1.9484  -50.3515  -19.5819 C   0  0  0  0  0  0  0  0  0  0  0  0
    3.2843  -49.8424  -17.5892 C   0  0  0  0  0  0  0  0  0  0  0  0
    3.5487  -50.9032  -16.6017 C   0  0  0  0  0  0  0  0  0  0  0  0
    3.1502  -48.6581  -17.1805 O   0  0  0  0  0  0  0  0  0  0  0  0
    1.3969  -52.1232  -26.4866 C   0  0  0  0  0  0  0  0  0  0  0  0
    2.6932  -52.4787  -27.1033 C   0  0  0  0  0  0  0  0  0  0  0  0
    3.9034  -52.3635  -25.1612 C   0  0  0  0  0  0  0  0  0  0  0  0
    3.5008  -53.1500  -26.2118 O   0  0  0  0  0  0  0  0  0  0  0  0
 28 29  1  0  0  0
 29 27  1  0  0  0
 27 26  1  0  0  0
 26  1  1  0  0  0
  1  2  1  0  0  0
  2  3  2  0  0  0
  3  4  1  0  0  0
  4  5  2  0  0  0
  5 15  1  0  0  0
 15 17  1  0  0  0
 17 18  2  0  0  0
 18 19  1  0  0  0
 19 20  2  0  0  0
 20 21  1  0  0  0
 21 22  2  0  0  0
 21 23  1  0  0  0
 23 24  1  0  0  0
 23 25  2  0  0  0
  5  6  1  0  0  0
  6  7  2  0  0  0
  7  8  1  0  0  0
  8  9  2  0  0  0
  9 10  1  0  0  0
 10 11  2  0  0  0
 11 12  1  0  0  0
 12 13  1  0  0  0
 13 14  2  0  0  0
 13  1  1  0  0  0
 11  2  1  0  0  0
  9  4  1  0  0  0
 22 17  1  0  0  0
 15 16  1  0  0  0
M  END
> <minimizedAffinity>
-7.59625

> <CNNscore>
0.4931159616

> <CNNaffinity>
6.4628157616

> <CNN_VS>
3.1869175434

> <CNNaffinity_variance>
0.2514921427

$$$$
[H]c1nc(N([H])c2c([H])c([H])c([H])c(C(=O)C([H])([H])[H])c2[H])c2c([H])c3c(oc(=O)n3C([H])([H])C([H])([H])OC([H])([H])[H])c([H])c2n1


 29 32  0  0  0  0  0  0  0  0999 V2000
    2.1518  -51.7023  -26.3110 N   0  0  0  0  0  0  0  0  0  0  0  0
    1.3263  -52.4190  -25.5322 C   0  0  0  0  0  0  0  0  0  0  0  0
    0.7649  -52.2130  -24.2680 C   0  0  0  0  0  0  0  0  0  0  0  0
   -0.0774  -53.1051  -23.6441 C   0  0  0  0  0  0  0  0  0  0  0  0
   -0.6220  -52.8690  -22.3771 C   0  0  0  0  0  0  0  0  0  0  0  0
   -1.4182  -53.8150  -21.8931 N   0  0  0  0  0  0  0  0  0  0  0  0
   -1.6978  -54.9382  -22.5614 C   0  0  0  0  0  0  0  0  0  0  0  0
   -1.1732  -55.1668  -23.7832 N   0  0  0  0  0  0  0  0  0  0  0  0
   -0.3490  -54.2636  -24.3648 C   0  0  0  0  0  0  0  0  0  0  0  0
    0.1862  -54.5024  -25.6146 C   0  0  0  0  0  0  0  0  0  0  0  0
    1.0242  -53.5764  -26.1953 C   0  0  0  0  0  0  0  0  0  0  0  0
    1.6759  -53.5258  -27.3556 O   0  0  0  0  0  0  0  0  0  0  0  0
    2.3580  -52.4041  -27.4384 C   0  0  0  0  0  0  0  0  0  0  0  0
    3.0740  -52.0769  -28.4258 O   0  0  0  0  0  0  0  0  0  0  0  0
   -0.3385  -51.6596  -21.6881 N   0  0  0  0  0  0  0  0  0  0  0  0
   -0.8828  -50.7983  -21.8996 H   0  0  0  0  0  0  0  0  0  0  0  0
    0.6655  -51.5122  -20.7028 C   0  0  0  0  0  0  0  0  0  0  0  0
    1.9807  -51.8105  -20.8188 C   0  0  0  0  0  0  0  0  0  0  0  0
    2.8187  -51.6359  -19.7275 C   0  0  0  0  0  0  0  0  0  0  0  0
    2.4053  -51.1693  -18.5027 C   0  0  0  0  0  0  0  0  0  0  0  0
    1.0682  -50.8679  -18.3939 C   0  0  0  0  0  0  0  0  0  0  0  0
    0.2210  -51.0326  -19.4581 C   0  0  0  0  0  0  0  0  0  0  0  0
    0.5578  -50.3666  -17.1220 C   0  0  0  0  0  0  0  0  0  0  0  0
   -0.0689  -51.2686  -16.1401 C   0  0  0  0  0  0  0  0  0  0  0  0
    0.6475  -49.1411  -16.8433 O   0  0  0  0  0  0  0  0  0  0  0  0
    2.6787  -50.4069  -25.9206 C   0  0  0  0  0  0  0  0  0  0  0  0
    3.9681  -50.4852  -25.2006 C   0  0  0  0  0  0  0  0  0  0  0  0
    3.2345  -49.3292  -23.3635 C   0  0  0  0  0  0  0  0  0  0  0  0
    3.7763  -50.4984  -23.8366 O   0  0  0  0  0  0  0  0  0  0  0  0
 28 29  1  0  0  0
 29 27  1  0  0  0
 27 26  1  0  0  0
 26  1  1  0  0  0
  1  2  1  0  0  0
  2  3  2  0  0  0
  3  4  1  0  0  0
  4  5  2  0  0  0
  5 15  1  0  0  0
 15 17  1  0  0  0
 17 18  2  0  0  0
 18 19  1  0  0  0
 19 20  2  0  0  0
 20 21  1  0  0  0
 21 22  2  0  0  0
 21 23  1  0  0  0
 23 24  1  0  0  0
 23 25  2  0  0  0
  5  6  1  0  0  0
  6  7  2  0  0  0
  7  8  1  0  0  0
  8  9  2  0  0  0
  9 10  1  0  0  0
 10 11  2  0  0  0
 11 12  1  0  0  0
 12 13  1  0  0  0
 13 14  2  0  0  0
 13  1  1  0  0  0
 11  2  1  0  0  0
  9  4  1  0  0  0
 22 17  1  0  0  0
 15 16  1  0  0  0
M  END
> <minimizedAffinity>
-7.03759

> <CNNscore>
0.4539293647

> <CNNaffinity>
6.5860428810

> <CNN_VS>
2.9895982742

> <CNNaffinity_variance>
0.2935153842

$$$$
[H]c1nc(N([H])c2c([H])c([H])c([H])c(C(=O)C([H])([H])[H])c2[H])c2c([H])c3c(oc(=O)n3C([H])([H])C([H])([H])OC([H])([H])[H])c([H])c2n1


 29 32  0  0  0  0  0  0  0  0999 V2000
    0.5326  -53.1558  -26.0329 N   0  0  0  0  0  0  0  0  0  0  0  0
    0.1305  -53.2919  -24.7595 C   0  0  0  0  0  0  0  0  0  0  0  0
    0.2683  -52.5061  -23.6108 C   0  0  0  0  0  0  0  0  0  0  0  0
   -0.2376  -52.8488  -22.3775 C   0  0  0  0  0  0  0  0  0  0  0  0
   -0.0813  -52.0398  -21.2465 C   0  0  0  0  0  0  0  0  0  0  0  0
   -0.6189  -52.4927  -20.1201 N   0  0  0  0  0  0  0  0  0  0  0  0
   -1.2772  -53.6537  -20.0472 C   0  0  0  0  0  0  0  0  0  0  0  0
   -1.4284  -54.4344  -21.1371 N   0  0  0  0  0  0  0  0  0  0  0  0
   -0.9170  -54.0619  -22.3342 C   0  0  0  0  0  0  0  0  0  0  0  0
   -1.0734  -54.8646  -23.4463 C   0  0  0  0  0  0  0  0  0  0  0  0
   -0.5476  -54.4753  -24.6583 C   0  0  0  0  0  0  0  0  0  0  0  0
   -0.5357  -55.0203  -25.8734 O   0  0  0  0  0  0  0  0  0  0  0  0
    0.1107  -54.2374  -26.7098 C   0  0  0  0  0  0  0  0  0  0  0  0
    0.2848  -54.4923  -27.9343 O   0  0  0  0  0  0  0  0  0  0  0  0
    0.5974  -50.7956  -21.3424 N   0  0  0  0  0  0  0  0  0  0  0  0
    0.0567  -49.9072  -21.3756 H   0  0  0  0  0  0  0  0  0  0  0  0
    2.0028  -50.6495  -21.4070 C   0  0  0  0  0  0  0  0  0  0  0  0
    2.9276  -51.2405  -20.6148 C   0  0  0  0  0  0  0  0  0  0  0  0
    4.2708  -50.9486  -20.7995 C   0  0  0  0  0  0  0  0  0  0  0  0
    4.7492  -50.0813  -21.7524 C   0  0  0  0  0  0  0  0  0  0  0  0
    3.8032  -49.4863  -22.5533 C   0  0  0  0  0  0  0  0  0  0  0  0
    2.4703  -49.7588  -22.3893 C   0  0  0  0  0  0  0  0  0  0  0  0
    4.2383  -48.5538  -23.5880 C   0  0  0  0  0  0  0  0  0  0  0  0
    3.5066  -48.4269  -24.8604 C   0  0  0  0  0  0  0  0  0  0  0  0
    5.2577  -47.8363  -23.4048 O   0  0  0  0  0  0  0  0  0  0  0  0
    1.2863  -52.0079  -26.5041 C   0  0  0  0  0  0  0  0  0  0  0  0
    2.6379  -52.3495  -26.9979 C   0  0  0  0  0  0  0  0  0  0  0  0
    3.8974  -52.2777  -25.0854 C   0  0  0  0  0  0  0  0  0  0  0  0
    3.3429  -53.0703  -26.0594 O   0  0  0  0  0  0  0  0  0  0  0  0
 28 29  1  0  0  0
 29 27  1  0  0  0
 27 26  1  0  0  0
 26  1  1  0  0  0
  1  2  1  0  0  0
  2  3  2  0  0  0
  3  4  1  0  0  0
  4  5  2  0  0  0
  5 15  1  0  0  0
 15 17  1  0  0  0
 17 18  2  0  0  0
 18 19  1  0  0  0
 19 20  2  0  0  0
 20 21  1  0  0  0
 21 22  2  0  0  0
 21 23  1  0  0  0
 23 24  1  0  0  0
 23 25  2  0  0  0
  5  6  1  0  0  0
  6  7  2  0  0  0
  7  8  1  0  0  0
  8  9  2  0  0  0
  9 10  1  0  0  0
 10 11  2  0  0  0
 11 12  1  0  0  0
 12 13  1  0  0  0
 13 14  2  0  0  0
 13  1  1  0  0  0
 11  2  1  0  0  0
  9  4  1  0  0  0
 22 17  1  0  0  0
 15 16  1  0  0  0
M  END
> <minimizedAffinity>
-7.67372

> <CNNscore>
0.4340155423

> <CNNaffinity>
6.4421463013

> <CNN_VS>
2.7959916592

> <CNNaffinity_variance>
0.2263028324

$$$$
[H]c1nc(N([H])c2c([H])c([H])c([H])c(C(=O)C([H])([H])[H])c2[H])c2c([H])c3c(oc(=O)n3C([H])([H])C([H])([H])OC([H])([H])[H])c([H])c2n1


 29 32  0  0  0  0  0  0  0  0999 V2000
    1.7695  -51.8101  -26.0280 N   0  0  0  0  0  0  0  0  0  0  0  0
    1.0175  -52.4012  -25.0863 C   0  0  0  0  0  0  0  0  0  0  0  0
    0.6314  -52.0450  -23.7903 C   0  0  0  0  0  0  0  0  0  0  0  0
   -0.1651  -52.8240  -22.9820 C   0  0  0  0  0  0  0  0  0  0  0  0
   -0.5329  -52.4387  -21.6881 C   0  0  0  0  0  0  0  0  0  0  0  0
   -1.3039  -53.2870  -21.0181 N   0  0  0  0  0  0  0  0  0  0  0  0
   -1.7177  -54.4498  -21.5312 C   0  0  0  0  0  0  0  0  0  0  0  0
   -1.3637  -54.8222  -22.7786 N   0  0  0  0  0  0  0  0  0  0  0  0
   -0.5793  -54.0272  -23.5441 C   0  0  0  0  0  0  0  0  0  0  0  0
   -0.2188  -54.4131  -24.8195 C   0  0  0  0  0  0  0  0  0  0  0  0
    0.5805  -53.5961  -25.5881 C   0  0  0  0  0  0  0  0  0  0  0  0
    1.0811  -53.6927  -26.8184 O   0  0  0  0  0  0  0  0  0  0  0  0
    1.7982  -52.6254  -27.0959 C   0  0  0  0  0  0  0  0  0  0  0  0
    2.3973  -52.4347  -28.1911 O   0  0  0  0  0  0  0  0  0  0  0  0
   -0.1086  -51.1885  -21.1637 N   0  0  0  0  0  0  0  0  0  0  0  0
   -0.5489  -50.3064  -21.4965 H   0  0  0  0  0  0  0  0  0  0  0  0
    0.9076  -51.0271  -20.1933 C   0  0  0  0  0  0  0  0  0  0  0  0
    0.7614  -50.9938  -18.8481 C   0  0  0  0  0  0  0  0  0  0  0  0
    1.8737  -50.7874  -18.0457 C   0  0  0  0  0  0  0  0  0  0  0  0
    3.1496  -50.6097  -18.5247 C   0  0  0  0  0  0  0  0  0  0  0  0
    3.2893  -50.6459  -19.8920 C   0  0  0  0  0  0  0  0  0  0  0  0
    2.2049  -50.8481  -20.7049 C   0  0  0  0  0  0  0  0  0  0  0  0
    4.6162  -50.4653  -20.4720 C   0  0  0  0  0  0  0  0  0  0  0  0
    5.0363  -51.2142  -21.6691 C   0  0  0  0  0  0  0  0  0  0  0  0
    5.4298  -49.6568  -19.9504 O   0  0  0  0  0  0  0  0  0  0  0  0
    2.4010  -50.5168  -25.8368 C   0  0  0  0  0  0  0  0  0  0  0  0
    3.7606  -50.6014  -25.2610 C   0  0  0  0  0  0  0  0  0  0  0  0
    3.6506  -48.3537  -25.6911 C   0  0  0  0  0  0  0  0  0  0  0  0
    4.4652  -49.4375  -25.4757 O   0  0  0  0  0  0  0  0  0  0  0  0
 28 29  1  0  0  0
 29 27  1  0  0  0
 27 26  1  0  0  0
 26  1  1  0  0  0
  1  2  1  0  0  0
  2  3  2  0  0  0
  3  4  1  0  0  0
  4  5  2  0  0  0
  5 15  1  0  0  0
 15 17  1  0  0  0
 17 18  2  0  0  0
 18 19  1  0  0  0
 19 20  2  0  0  0
 20 21  1  0  0  0
 21 22  2  0  0  0
 21 23  1  0  0  0
 23 24  1  0  0  0
 23 25  2  0  0  0
  5  6  1  0  0  0
  6  7  2  0  0  0
  7  8  1  0  0  0
  8  9  2  0  0  0
  9 10  1  0  0  0
 10 11  2  0  0  0
 11 12  1  0  0  0
 12 13  1  0  0  0
 13 14  2  0  0  0
 13  1  1  0  0  0
 11  2  1  0  0  0
  9  4  1  0  0  0
 22 17  1  0  0  0
 15 16  1  0  0  0
M  END
> <minimizedAffinity>
-6.87348

> <CNNscore>
0.4133800268

> <CNNaffinity>
6.6117630005

> <CNN_VS>
2.7331707478

> <CNNaffinity_variance>
0.4444466233

$$$$
[H]c1nc(N([H])c2c([H])c([H])c([H])c(C(=O)C([H])([H])[H])c2[H])c2c([H])c3c(oc(=O)n3C([H])([H])C([H])([H])OC([H])([H])[H])c([H])c2n1


 29 32  0  0  0  0  0  0  0  0999 V2000
   -0.4821  -52.5906  -20.8656 N   0  0  0  0  0  0  0  0  0  0  0  0
   -0.3610  -53.1037  -22.1000 C   0  0  0  0  0  0  0  0  0  0  0  0
    0.3179  -52.7007  -23.2543 C   0  0  0  0  0  0  0  0  0  0  0  0
    0.3029  -53.3988  -24.4405 C   0  0  0  0  0  0  0  0  0  0  0  0
    0.9930  -52.9674  -25.5787 C   0  0  0  0  0  0  0  0  0  0  0  0
    0.8910  -53.7371  -26.6559 N   0  0  0  0  0  0  0  0  0  0  0  0
    0.1746  -54.8653  -26.6747 C   0  0  0  0  0  0  0  0  0  0  0  0
   -0.4911  -55.2822  -25.5777 N   0  0  0  0  0  0  0  0  0  0  0  0
   -0.4509  -54.5680  -24.4281 C   0  0  0  0  0  0  0  0  0  0  0  0
   -1.1345  -54.9980  -23.3087 C   0  0  0  0  0  0  0  0  0  0  0  0
   -1.0867  -54.2621  -22.1454 C   0  0  0  0  0  0  0  0  0  0  0  0
   -1.6254  -54.4156  -20.9371 O   0  0  0  0  0  0  0  0  0  0  0  0
   -1.2700  -53.4176  -20.1575 C   0  0  0  0  0  0  0  0  0  0  0  0
   -1.6283  -53.2919  -18.9532 O   0  0  0  0  0  0  0  0  0  0  0  0
    1.7724  -51.7804  -25.5385 N   0  0  0  0  0  0  0  0  0  0  0  0
    1.3796  -50.8857  -25.8962 H   0  0  0  0  0  0  0  0  0  0  0  0
    3.0942  -51.7032  -25.0413 C   0  0  0  0  0  0  0  0  0  0  0  0
    3.8620  -52.7212  -24.5869 C   0  0  0  0  0  0  0  0  0  0  0  0
    5.1314  -52.4524  -24.0972 C   0  0  0  0  0  0  0  0  0  0  0  0
    5.6862  -51.1964  -24.0366 C   0  0  0  0  0  0  0  0  0  0  0  0
    4.9000  -50.1685  -24.5010 C   0  0  0  0  0  0  0  0  0  0  0  0
    3.6426  -50.4096  -24.9891 C   0  0  0  0  0  0  0  0  0  0  0  0
    5.4244  -48.8070  -24.4679 C   0  0  0  0  0  0  0  0  0  0  0  0
    5.6310  -48.0365  -25.7064 C   0  0  0  0  0  0  0  0  0  0  0  0
    5.7108  -48.2662  -23.3665 O   0  0  0  0  0  0  0  0  0  0  0  0
    0.1614  -51.3546  -20.4581 C   0  0  0  0  0  0  0  0  0  0  0  0
    1.3637  -51.5611  -19.6220 C   0  0  0  0  0  0  0  0  0  0  0  0
    3.0326  -51.2827  -21.1669 C   0  0  0  0  0  0  0  0  0  0  0  0
    2.4103  -50.7761  -20.0531 O   0  0  0  0  0  0  0  0  0  0  0  0
 28 29  1  0  0  0
 29 27  1  0  0  0
 27 26  1  0  0  0
 26  1  1  0  0  0
  1  2  1  0  0  0
  2  3  2  0  0  0
  3  4  1  0  0  0
  4  5  2  0  0  0
  5 15  1  0  0  0
 15 17  1  0  0  0
 17 18  2  0  0  0
 18 19  1  0  0  0
 19 20  2  0  0  0
 20 21  1  0  0  0
 21 22  2  0  0  0
 21 23  1  0  0  0
 23 24  1  0  0  0
 23 25  2  0  0  0
  5  6  1  0  0  0
  6  7  2  0  0  0
  7  8  1  0  0  0
  8  9  2  0  0  0
  9 10  1  0  0  0
 10 11  2  0  0  0
 11 12  1  0  0  0
 12 13  1  0  0  0
 13 14  2  0  0  0
 13  1  1  0  0  0
 11  2  1  0  0  0
  9  4  1  0  0  0
 22 17  1  0  0  0
 15 16  1  0  0  0
M  END
> <minimizedAffinity>
-7.45270

> <CNNscore>
0.3755019903

> <CNNaffinity>
6.4496459961

> <CNN_VS>
2.4218549728

> <CNNaffinity_variance>
0.2695227861

$$$$
[H]c1nc(N([H])c2c([H])c([H])c([H])c(C(=O)C([H])([H])[H])c2[H])c2c([H])c3c(oc(=O)n3C([H])([H])C([H])([H])OC([H])([H])[H])c([H])c2n1


 29 32  0  0  0  0  0  0  0  0999 V2000
    0.0207  -52.2768  -19.4552 N   0  0  0  0  0  0  0  0  0  0  0  0
    0.6654  -51.4163  -20.2588 C   0  0  0  0  0  0  0  0  0  0  0  0
    1.1225  -51.4804  -21.5789 C   0  0  0  0  0  0  0  0  0  0  0  0
    1.7756  -50.4517  -22.2191 C   0  0  0  0  0  0  0  0  0  0  0  0
    2.2216  -50.5484  -23.5419 C   0  0  0  0  0  0  0  0  0  0  0  0
    2.8381  -49.4807  -24.0346 N   0  0  0  0  0  0  0  0  0  0  0  0
    3.0329  -48.3649  -23.3250 C   0  0  0  0  0  0  0  0  0  0  0  0
    2.6033  -48.2707  -22.0495 N   0  0  0  0  0  0  0  0  0  0  0  0
    1.9630  -49.3048  -21.4545 C   0  0  0  0  0  0  0  0  0  0  0  0
    1.5262  -49.2040  -20.1490 C   0  0  0  0  0  0  0  0  0  0  0  0
    0.8770  -50.2633  -19.5544 C   0  0  0  0  0  0  0  0  0  0  0  0
    0.3543  -50.4602  -18.3454 O   0  0  0  0  0  0  0  0  0  0  0  0
   -0.1640  -51.6670  -18.2721 C   0  0  0  0  0  0  0  0  0  0  0  0
   -0.7311  -52.1376  -17.2466 O   0  0  0  0  0  0  0  0  0  0  0  0
    1.9852  -51.7298  -24.2943 N   0  0  0  0  0  0  0  0  0  0  0  0
    2.6622  -52.5191  -24.2533 H   0  0  0  0  0  0  0  0  0  0  0  0
    0.8680  -51.9363  -25.1366 C   0  0  0  0  0  0  0  0  0  0  0  0
   -0.4368  -51.7424  -24.8332 C   0  0  0  0  0  0  0  0  0  0  0  0
   -1.4081  -52.0356  -25.7788 C   0  0  0  0  0  0  0  0  0  0  0  0
   -1.1405  -52.5211  -27.0364 C   0  0  0  0  0  0  0  0  0  0  0  0
    0.1873  -52.7142  -27.3366 C   0  0  0  0  0  0  0  0  0  0  0  0
    1.1645  -52.4320  -26.4185 C   0  0  0  0  0  0  0  0  0  0  0  0
    0.5466  -53.2271  -28.6547 C   0  0  0  0  0  0  0  0  0  0  0  0
   -0.2443  -52.8863  -29.8500 C   0  0  0  0  0  0  0  0  0  0  0  0
    1.5500  -53.9773  -28.7896 O   0  0  0  0  0  0  0  0  0  0  0  0
   -0.3680  -53.6105  -19.8770 C   0  0  0  0  0  0  0  0  0  0  0  0
   -1.6787  -53.6565  -20.5606 C   0  0  0  0  0  0  0  0  0  0  0  0
   -0.8992  -54.6078  -22.4937 C   0  0  0  0  0  0  0  0  0  0  0  0
   -1.7520  -54.7269  -21.4245 O   0  0  0  0  0  0  0  0  0  0  0  0
 28 29  1  0  0  0
 29 27  1  0  0  0
 27 26  1  0  0  0
 26  1  1  0  0  0
  1  2  1  0  0  0
  2  3  2  0  0  0
  3  4  1  0  0  0
  4  5  2  0  0  0
  5 15  1  0  0  0
 15 17  1  0  0  0
 17 18  2  0  0  0
 18 19  1  0  0  0
 19 20  2  0  0  0
 20 21  1  0  0  0
 21 22  2  0  0  0
 21 23  1  0  0  0
 23 24  1  0  0  0
 23 25  2  0  0  0
  5  6  1  0  0  0
  6  7  2  0  0  0
  7  8  1  0  0  0
  8  9  2  0  0  0
  9 10  1  0  0  0
 10 11  2  0  0  0
 11 12  1  0  0  0
 12 13  1  0  0  0
 13 14  2  0  0  0
 13  1  1  0  0  0
 11  2  1  0  0  0
  9  4  1  0  0  0
 22 17  1  0  0  0
 15 16  1  0  0  0
M  END
> <minimizedAffinity>
-7.83555

> <CNNscore>
0.3676262498

> <CNNaffinity>
6.4095716476

> <CNN_VS>
2.3563268185

> <CNNaffinity_variance>
0.1612749249

$$$$
[H]c1nc(N([H])c2c([H])c([H])c([H])c(C(=O)C([H])([H])[H])c2[H])c2c([H])c3c(oc(=O)n3C([H])([H])C([H])([H])OC([H])([H])[H])c([H])c2n1


 29 32  0  0  0  0  0  0  0  0999 V2000
    0.2234  -53.2286  -22.2441 N   0  0  0  0  0  0  0  0  0  0  0  0
    0.5361  -53.2932  -23.5478 C   0  0  0  0  0  0  0  0  0  0  0  0
    1.5184  -52.6898  -24.3395 C   0  0  0  0  0  0  0  0  0  0  0  0
    1.6589  -52.9061  -25.6915 C   0  0  0  0  0  0  0  0  0  0  0  0
    2.6530  -52.2852  -26.4558 C   0  0  0  0  0  0  0  0  0  0  0  0
    2.6730  -52.5833  -27.7495 N   0  0  0  0  0  0  0  0  0  0  0  0
    1.8020  -53.4268  -28.3120 C   0  0  0  0  0  0  0  0  0  0  0  0
    0.8432  -54.0260  -27.5759 N   0  0  0  0  0  0  0  0  0  0  0  0
    0.7380  -53.7885  -26.2471 C   0  0  0  0  0  0  0  0  0  0  0  0
   -0.2454  -54.4031  -25.4984 C   0  0  0  0  0  0  0  0  0  0  0  0
   -0.3428  -54.1525  -24.1476 C   0  0  0  0  0  0  0  0  0  0  0  0
   -1.1613  -54.5824  -23.1890 O   0  0  0  0  0  0  0  0  0  0  0  0
   -0.8322  -54.0347  -22.0392 C   0  0  0  0  0  0  0  0  0  0  0  0
   -1.4303  -54.2536  -20.9488 O   0  0  0  0  0  0  0  0  0  0  0  0
    3.5893  -51.4111  -25.8417 N   0  0  0  0  0  0  0  0  0  0  0  0
    4.4080  -51.7993  -25.3300 H   0  0  0  0  0  0  0  0  0  0  0  0
    3.5014  -49.9996  -25.8574 C   0  0  0  0  0  0  0  0  0  0  0  0
    3.6024  -49.1819  -26.9313 C   0  0  0  0  0  0  0  0  0  0  0  0
    3.5289  -47.8085  -26.7524 C   0  0  0  0  0  0  0  0  0  0  0  0
    3.3559  -47.1961  -25.5342 C   0  0  0  0  0  0  0  0  0  0  0  0
    3.2533  -48.0340  -24.4490 C   0  0  0  0  0  0  0  0  0  0  0  0
    3.3233  -49.3940  -24.6010 C   0  0  0  0  0  0  0  0  0  0  0  0
    3.0675  -47.4537  -23.1230 C   0  0  0  0  0  0  0  0  0  0  0  0
    3.3381  -46.0284  -22.8669 C   0  0  0  0  0  0  0  0  0  0  0  0
    2.6685  -48.1726  -22.1682 O   0  0  0  0  0  0  0  0  0  0  0  0
    0.9536  -52.4052  -21.2972 C   0  0  0  0  0  0  0  0  0  0  0  0
    0.3871  -51.0490  -21.1324 C   0  0  0  0  0  0  0  0  0  0  0  0
    0.6219  -51.7341  -18.9587 C   0  0  0  0  0  0  0  0  0  0  0  0
    0.1237  -50.7774  -19.8079 O   0  0  0  0  0  0  0  0  0  0  0  0
 28 29  1  0  0  0
 29 27  1  0  0  0
 27 26  1  0  0  0
 26  1  1  0  0  0
  1  2  1  0  0  0
  2  3  2  0  0  0
  3  4  1  0  0  0
  4  5  2  0  0  0
  5 15  1  0  0  0
 15 17  1  0  0  0
 17 18  2  0  0  0
 18 19  1  0  0  0
 19 20  2  0  0  0
 20 21  1  0  0  0
 21 22  2  0  0  0
 21 23  1  0  0  0
 23 24  1  0  0  0
 23 25  2  0  0  0
  5  6  1  0  0  0
  6  7  2  0  0  0
  7  8  1  0  0  0
  8  9  2  0  0  0
  9 10  1  0  0  0
 10 11  2  0  0  0
 11 12  1  0  0  0
 12 13  1  0  0  0
 13 14  2  0  0  0
 13  1  1  0  0  0
 11  2  1  0  0  0
  9  4  1  0  0  0
 22 17  1  0  0  0
 15 16  1  0  0  0
M  END
> <minimizedAffinity>
-7.21095

> <CNNscore>
0.3618303537

> <CNNaffinity>
6.3998150826

> <CNN_VS>
2.3156473637

> <CNNaffinity_variance>
0.2459603548

$$$$
[H]c1nc(N([H])c2c([H])c([H])c(F)c(Cl)c2[H])c2sc(N([H])c3c([H])c([H])c(C([H])([H])N4C([H])([H])C([H])([H])C([H])([H])C4([H])[H])c([H])c3[H])nc2n1


 33 37  0  0  0  0  0  0  0  0999 V2000
   -0.1208  -53.5724  -23.5172 C   0  0  0  0  0  0  0  0  0  0  0  0
   -0.9183  -54.6527  -23.6307 N   0  0  0  0  0  0  0  0  0  0  0  0
   -1.5778  -55.0516  -22.5292 C   0  0  0  0  0  0  0  0  0  0  0  0
   -1.5090  -54.4736  -21.3477 N   0  0  0  0  0  0  0  0  0  0  0  0
   -0.7150  -53.3657  -21.1564 C   0  0  0  0  0  0  0  0  0  0  0  0
   -0.5541  -52.7036  -20.0599 N   0  0  0  0  0  0  0  0  0  0  0  0
    0.2326  -51.6550  -19.9884 C   0  0  0  0  0  0  0  0  0  0  0  0
    0.8089  -51.5902  -21.6370 S   0  0  0  0  0  0  0  0  0  0  0  0
   -0.0312  -52.9371  -22.2624 C   0  0  0  0  0  0  0  0  0  0  0  0
    0.6376  -52.9913  -24.5504 N   0  0  0  0  0  0  0  0  0  0  0  0
    1.5763  -52.5502  -24.2499 H   0  0  0  0  0  0  0  0  0  0  0  0
   -0.2419  -52.8486  -30.0152 F   0  0  0  0  0  0  0  0  0  0  0  0
   -0.0770  -52.8721  -28.6682 C   0  0  0  0  0  0  0  0  0  0  0  0
    1.2167  -53.0461  -28.1917 C   0  0  0  0  0  0  0  0  0  0  0  0
    1.3584  -53.0663  -26.8260 C   0  0  0  0  0  0  0  0  0  0  0  0
    0.3155  -52.9271  -25.9244 C   0  0  0  0  0  0  0  0  0  0  0  0
   -0.9328  -52.7596  -26.4186 C   0  0  0  0  0  0  0  0  0  0  0  0
   -1.1372  -52.7307  -27.8054 C   0  0  0  0  0  0  0  0  0  0  0  0
   -2.7308  -52.5163  -28.4876 Cl  0  0  0  0  0  0  0  0  0  0  0  0
    0.5770  -50.7742  -18.9370 N   0  0  0  0  0  0  0  0  0  0  0  0
   -0.1758  -50.6479  -18.1931 H   0  0  0  0  0  0  0  0  0  0  0  0
    1.7645  -50.0911  -18.8084 C   0  0  0  0  0  0  0  0  0  0  0  0
    2.8882  -50.5541  -18.1693 C   0  0  0  0  0  0  0  0  0  0  0  0
    4.0694  -49.8014  -18.0627 C   0  0  0  0  0  0  0  0  0  0  0  0
    4.1242  -48.5454  -18.6150 C   0  0  0  0  0  0  0  0  0  0  0  0
    3.0130  -48.0309  -19.2732 C   0  0  0  0  0  0  0  0  0  0  0  0
    1.8857  -48.8055  -19.3492 C   0  0  0  0  0  0  0  0  0  0  0  0
    5.3396  -47.7174  -18.5227 C   0  0  0  0  0  0  0  0  0  0  0  0
    6.3622  -48.0026  -19.4525 N   0  0  0  0  0  0  0  0  0  0  0  0
    7.6542  -48.0844  -18.8847 C   0  0  0  0  0  0  0  0  0  0  0  0
    8.4231  -49.1420  -19.6805 C   0  0  0  0  0  0  0  0  0  0  0  0
    7.5756  -49.2463  -20.9308 C   0  0  0  0  0  0  0  0  0  0  0  0
    6.1649  -49.1104  -20.3281 C   0  0  0  0  0  0  0  0  0  0  0  0
 12 13  1  0  0  0
 13 14  2  0  0  0
 14 15  1  0  0  0
 15 16  2  0  0  0
 16 10  1  0  0  0
 10  1  1  0  0  0
  1  2  2  0  0  0
  2  3  1  0  0  0
  3  4  2  0  0  0
  4  5  1  0  0  0
  5  6  1  0  0  0
  6  7  2  0  0  0
  7 20  1  0  0  0
 20 22  1  0  0  0
 22 23  2  0  0  0
 23 24  1  0  0  0
 24 25  2  0  0  0
 25 28  1  0  0  0
 28 29  1  0  0  0
 29 30  1  0  0  0
 30 31  1  0  0  0
 31 32  1  0  0  0
 32 33  1  0  0  0
 25 26  1  0  0  0
 26 27  2  0  0  0
  7  8  1  0  0  0
  8  9  1  0  0  0
 16 17  1  0  0  0
 17 18  2  0  0  0
 18 19  1  0  0  0
 18 13  1  0  0  0
  9  1  1  0  0  0
  9  5  2  0  0  0
 27 22  1  0  0  0
 33 29  1  0  0  0
 10 11  1  0  0  0
 20 21  1  0  0  0
M  END
> <minimizedAffinity>
-8.03845

> <CNNscore>
0.8218453526

> <CNNaffinity>
7.3477659225

> <CNN_VS>
6.0387272835

> <CNNaffinity_variance>
0.0980624259

$$$$
[H]c1nc(N([H])c2c([H])c([H])c(F)c(Cl)c2[H])c2sc(N([H])c3c([H])c([H])c(C([H])([H])N4C([H])([H])C([H])([H])C([H])([H])C4([H])[H])c([H])c3[H])nc2n1


 33 37  0  0  0  0  0  0  0  0999 V2000
   -0.0454  -53.6064  -23.5249 C   0  0  0  0  0  0  0  0  0  0  0  0
   -0.8854  -54.6573  -23.6019 N   0  0  0  0  0  0  0  0  0  0  0  0
   -1.5484  -55.0008  -22.4839 C   0  0  0  0  0  0  0  0  0  0  0  0
   -1.4449  -54.3949  -21.3191 N   0  0  0  0  0  0  0  0  0  0  0  0
   -0.6064  -53.3142  -21.1650 C   0  0  0  0  0  0  0  0  0  0  0  0
   -0.4085  -52.6302  -20.0883 N   0  0  0  0  0  0  0  0  0  0  0  0
    0.4190  -51.6116  -20.0523 C   0  0  0  0  0  0  0  0  0  0  0  0
    0.9802  -51.6130  -21.7074 S   0  0  0  0  0  0  0  0  0  0  0  0
    0.0819  -52.9422  -22.2885 C   0  0  0  0  0  0  0  0  0  0  0  0
    0.7242  -53.0829  -24.5804 N   0  0  0  0  0  0  0  0  0  0  0  0
    1.7122  -52.7390  -24.3126 H   0  0  0  0  0  0  0  0  0  0  0  0
   -0.3378  -52.7186  -30.0023 F   0  0  0  0  0  0  0  0  0  0  0  0
   -0.1280  -52.7975  -28.6637 C   0  0  0  0  0  0  0  0  0  0  0  0
    1.1829  -52.9733  -28.2375 C   0  0  0  0  0  0  0  0  0  0  0  0
    1.3701  -53.0499  -26.8793 C   0  0  0  0  0  0  0  0  0  0  0  0
    0.3559  -52.9645  -25.9391 C   0  0  0  0  0  0  0  0  0  0  0  0
   -0.9101  -52.7938  -26.3846 C   0  0  0  0  0  0  0  0  0  0  0  0
   -1.1608  -52.7084  -27.7615 C   0  0  0  0  0  0  0  0  0  0  0  0
   -2.7787  -52.4877  -28.3814 Cl  0  0  0  0  0  0  0  0  0  0  0  0
    0.8082  -50.7175  -19.0281 N   0  0  0  0  0  0  0  0  0  0  0  0
    1.6113  -50.0651  -19.2838 H   0  0  0  0  0  0  0  0  0  0  0  0
    0.2516  -50.6317  -17.7727 C   0  0  0  0  0  0  0  0  0  0  0  0
   -0.5004  -51.6056  -17.1631 C   0  0  0  0  0  0  0  0  0  0  0  0
   -1.0514  -51.4521  -15.8802 C   0  0  0  0  0  0  0  0  0  0  0  0
   -0.8408  -50.2851  -15.1879 C   0  0  0  0  0  0  0  0  0  0  0  0
   -0.0861  -49.2681  -15.7613 C   0  0  0  0  0  0  0  0  0  0  0  0
    0.4289  -49.4680  -17.0148 C   0  0  0  0  0  0  0  0  0  0  0  0
   -1.4042  -50.0772  -13.8422 C   0  0  0  0  0  0  0  0  0  0  0  0
   -2.7898  -49.8179  -13.7781 N   0  0  0  0  0  0  0  0  0  0  0  0
   -3.2559  -48.9161  -14.7618 C   0  0  0  0  0  0  0  0  0  0  0  0
   -4.6745  -49.3564  -15.1318 C   0  0  0  0  0  0  0  0  0  0  0  0
   -5.0225  -50.2501  -13.9601 C   0  0  0  0  0  0  0  0  0  0  0  0
   -3.6670  -50.9403  -13.7190 C   0  0  0  0  0  0  0  0  0  0  0  0
 12 13  1  0  0  0
 13 14  2  0  0  0
 14 15  1  0  0  0
 15 16  2  0  0  0
 16 10  1  0  0  0
 10  1  1  0  0  0
  1  2  2  0  0  0
  2  3  1  0  0  0
  3  4  2  0  0  0
  4  5  1  0  0  0
  5  6  1  0  0  0
  6  7  2  0  0  0
  7 20  1  0  0  0
 20 22  1  0  0  0
 22 23  2  0  0  0
 23 24  1  0  0  0
 24 25  2  0  0  0
 25 28  1  0  0  0
 28 29  1  0  0  0
 29 30  1  0  0  0
 30 31  1  0  0  0
 31 32  1  0  0  0
 32 33  1  0  0  0
 25 26  1  0  0  0
 26 27  2  0  0  0
  7  8  1  0  0  0
  8  9  1  0  0  0
 16 17  1  0  0  0
 17 18  2  0  0  0
 18 19  1  0  0  0
 18 13  1  0  0  0
  9  1  1  0  0  0
  9  5  2  0  0  0
 27 22  1  0  0  0
 33 29  1  0  0  0
 10 11  1  0  0  0
 20 21  1  0  0  0
M  END
> <minimizedAffinity>
-8.85184

> <CNNscore>
0.7910980582

> <CNNaffinity>
7.3279213905

> <CNN_VS>
5.7971043587

> <CNNaffinity_variance>
0.1709202528

$$$$
[H]c1nc(N([H])c2c([H])c([H])c(F)c(Cl)c2[H])c2sc(N([H])c3c([H])c([H])c(C([H])([H])N4C([H])([H])C([H])([H])C([H])([H])C4([H])[H])c([H])c3[H])nc2n1


 33 37  0  0  0  0  0  0  0  0999 V2000
    0.4920  -53.2182  -24.7927 C   0  0  0  0  0  0  0  0  0  0  0  0
    0.3181  -54.1131  -25.7850 N   0  0  0  0  0  0  0  0  0  0  0  0
   -0.4099  -55.2088  -25.5075 C   0  0  0  0  0  0  0  0  0  0  0  0
   -0.9673  -55.4800  -24.3455 N   0  0  0  0  0  0  0  0  0  0  0  0
   -0.8322  -54.6123  -23.2855 C   0  0  0  0  0  0  0  0  0  0  0  0
   -1.3216  -54.7511  -22.0991 N   0  0  0  0  0  0  0  0  0  0  0  0
   -1.1301  -53.8565  -21.1575 C   0  0  0  0  0  0  0  0  0  0  0  0
   -0.1589  -52.6950  -22.0302 S   0  0  0  0  0  0  0  0  0  0  0  0
   -0.0952  -53.4870  -23.5401 C   0  0  0  0  0  0  0  0  0  0  0  0
    1.2039  -52.0077  -24.8852 N   0  0  0  0  0  0  0  0  0  0  0  0
    0.7299  -51.2300  -25.4653 H   0  0  0  0  0  0  0  0  0  0  0  0
    6.2559  -51.1055  -22.8066 F   0  0  0  0  0  0  0  0  0  0  0  0
    5.0008  -51.2834  -23.2915 C   0  0  0  0  0  0  0  0  0  0  0  0
    4.7605  -52.4449  -24.0155 C   0  0  0  0  0  0  0  0  0  0  0  0
    3.4837  -52.6027  -24.4956 C   0  0  0  0  0  0  0  0  0  0  0  0
    2.4533  -51.6962  -24.3042 C   0  0  0  0  0  0  0  0  0  0  0  0
    2.7180  -50.5746  -23.5956 C   0  0  0  0  0  0  0  0  0  0  0  0
    4.0046  -50.3606  -23.0807 C   0  0  0  0  0  0  0  0  0  0  0  0
    4.3911  -48.9276  -22.1599 Cl  0  0  0  0  0  0  0  0  0  0  0  0
   -1.5445  -53.7685  -19.8082 N   0  0  0  0  0  0  0  0  0  0  0  0
   -2.3436  -54.4212  -19.5412 H   0  0  0  0  0  0  0  0  0  0  0  0
   -1.0160  -52.9330  -18.8512 C   0  0  0  0  0  0  0  0  0  0  0  0
    0.0754  -52.1163  -19.0171 C   0  0  0  0  0  0  0  0  0  0  0  0
    0.5736  -51.2925  -17.9944 C   0  0  0  0  0  0  0  0  0  0  0  0
   -0.0429  -51.2881  -16.7674 C   0  0  0  0  0  0  0  0  0  0  0  0
   -1.1521  -52.0972  -16.5486 C   0  0  0  0  0  0  0  0  0  0  0  0
   -1.5981  -52.8819  -17.5790 C   0  0  0  0  0  0  0  0  0  0  0  0
    0.4482  -50.4449  -15.6633 C   0  0  0  0  0  0  0  0  0  0  0  0
    1.8359  -50.4914  -15.4110 N   0  0  0  0  0  0  0  0  0  0  0  0
    2.4179  -49.2311  -15.1439 C   0  0  0  0  0  0  0  0  0  0  0  0
    3.5436  -49.4668  -14.1336 C   0  0  0  0  0  0  0  0  0  0  0  0
    3.7522  -50.9607  -14.2655 C   0  0  0  0  0  0  0  0  0  0  0  0
    2.2978  -51.4341  -14.4464 C   0  0  0  0  0  0  0  0  0  0  0  0
 12 13  1  0  0  0
 13 14  2  0  0  0
 14 15  1  0  0  0
 15 16  2  0  0  0
 16 10  1  0  0  0
 10  1  1  0  0  0
  1  2  2  0  0  0
  2  3  1  0  0  0
  3  4  2  0  0  0
  4  5  1  0  0  0
  5  6  1  0  0  0
  6  7  2  0  0  0
  7 20  1  0  0  0
 20 22  1  0  0  0
 22 23  2  0  0  0
 23 24  1  0  0  0
 24 25  2  0  0  0
 25 28  1  0  0  0
 28 29  1  0  0  0
 29 30  1  0  0  0
 30 31  1  0  0  0
 31 32  1  0  0  0
 32 33  1  0  0  0
 25 26  1  0  0  0
 26 27  2  0  0  0
  7  8  1  0  0  0
  8  9  1  0  0  0
 16 17  1  0  0  0
 17 18  2  0  0  0
 18 19  1  0  0  0
 18 13  1  0  0  0
  9  1  1  0  0  0
  9  5  2  0  0  0
 27 22  1  0  0  0
 33 29  1  0  0  0
 10 11  1  0  0  0
 20 21  1  0  0  0
M  END
> <minimizedAffinity>
-7.97621

> <CNNscore>
0.6715063453

> <CNNaffinity>
7.2037363052

> <CNN_VS>
4.8373546600

> <CNNaffinity_variance>
0.0399877727

$$$$
[H]c1nc(N([H])c2c([H])c([H])c(F)c(Cl)c2[H])c2sc(N([H])c3c([H])c([H])c(C([H])([H])N4C([H])([H])C([H])([H])C([H])([H])C4([H])[H])c([H])c3[H])nc2n1


 33 37  0  0  0  0  0  0  0  0999 V2000
   -0.4721  -53.4678  -20.1358 C   0  0  0  0  0  0  0  0  0  0  0  0
   -1.4722  -54.1709  -20.7027 N   0  0  0  0  0  0  0  0  0  0  0  0
   -1.5310  -54.1875  -22.0457 C   0  0  0  0  0  0  0  0  0  0  0  0
   -0.6918  -53.5731  -22.8536 N   0  0  0  0  0  0  0  0  0  0  0  0
    0.3542  -52.8360  -22.3464 C   0  0  0  0  0  0  0  0  0  0  0  0
    1.2458  -52.1867  -23.0172 N   0  0  0  0  0  0  0  0  0  0  0  0
    2.2061  -51.5123  -22.4285 C   0  0  0  0  0  0  0  0  0  0  0  0
    1.8168  -51.8220  -20.7532 S   0  0  0  0  0  0  0  0  0  0  0  0
    0.4385  -52.8018  -20.9804 C   0  0  0  0  0  0  0  0  0  0  0  0
   -0.2294  -53.3396  -18.7555 N   0  0  0  0  0  0  0  0  0  0  0  0
    0.7159  -53.7300  -18.4090 H   0  0  0  0  0  0  0  0  0  0  0  0
   -3.2648  -50.7512  -14.9157 F   0  0  0  0  0  0  0  0  0  0  0  0
   -2.5582  -51.4222  -15.8605 C   0  0  0  0  0  0  0  0  0  0  0  0
   -1.2865  -50.9469  -16.1566 C   0  0  0  0  0  0  0  0  0  0  0  0
   -0.5911  -51.6422  -17.1151 C   0  0  0  0  0  0  0  0  0  0  0  0
   -1.0720  -52.7569  -17.7829 C   0  0  0  0  0  0  0  0  0  0  0  0
   -2.3138  -53.1957  -17.4733 C   0  0  0  0  0  0  0  0  0  0  0  0
   -3.0699  -52.5248  -16.5016 C   0  0  0  0  0  0  0  0  0  0  0  0
   -4.6767  -53.0563  -16.0698 Cl  0  0  0  0  0  0  0  0  0  0  0  0
    3.2818  -50.7348  -22.9169 N   0  0  0  0  0  0  0  0  0  0  0  0
    4.1588  -51.2878  -23.1637 H   0  0  0  0  0  0  0  0  0  0  0  0
    3.2825  -49.3695  -23.0879 C   0  0  0  0  0  0  0  0  0  0  0  0
    3.0948  -48.4391  -22.0955 C   0  0  0  0  0  0  0  0  0  0  0  0
    3.0960  -47.0555  -22.3375 C   0  0  0  0  0  0  0  0  0  0  0  0
    3.2919  -46.5915  -23.6149 C   0  0  0  0  0  0  0  0  0  0  0  0
    3.4867  -47.4930  -24.6552 C   0  0  0  0  0  0  0  0  0  0  0  0
    3.4766  -48.8320  -24.3659 C   0  0  0  0  0  0  0  0  0  0  0  0
    3.2950  -45.1493  -23.9170 C   0  0  0  0  0  0  0  0  0  0  0  0
    4.4760  -44.4463  -23.5967 N   0  0  0  0  0  0  0  0  0  0  0  0
    4.5610  -44.0436  -22.2444 C   0  0  0  0  0  0  0  0  0  0  0  0
    6.0399  -44.1057  -21.8544 C   0  0  0  0  0  0  0  0  0  0  0  0
    6.7040  -44.1384  -23.2147 C   0  0  0  0  0  0  0  0  0  0  0  0
    5.7160  -45.0298  -23.9900 C   0  0  0  0  0  0  0  0  0  0  0  0
 12 13  1  0  0  0
 13 14  2  0  0  0
 14 15  1  0  0  0
 15 16  2  0  0  0
 16 10  1  0  0  0
 10  1  1  0  0  0
  1  2  2  0  0  0
  2  3  1  0  0  0
  3  4  2  0  0  0
  4  5  1  0  0  0
  5  6  1  0  0  0
  6  7  2  0  0  0
  7 20  1  0  0  0
 20 22  1  0  0  0
 22 23  2  0  0  0
 23 24  1  0  0  0
 24 25  2  0  0  0
 25 28  1  0  0  0
 28 29  1  0  0  0
 29 30  1  0  0  0
 30 31  1  0  0  0
 31 32  1  0  0  0
 32 33  1  0  0  0
 25 26  1  0  0  0
 26 27  2  0  0  0
  7  8  1  0  0  0
  8  9  1  0  0  0
 16 17  1  0  0  0
 17 18  2  0  0  0
 18 19  1  0  0  0
 18 13  1  0  0  0
  9  1  1  0  0  0
  9  5  2  0  0  0
 27 22  1  0  0  0
 33 29  1  0  0  0
 10 11  1  0  0  0
 20 21  1  0  0  0
M  END
> <minimizedAffinity>
-6.78970

> <CNNscore>
0.6388525367

> <CNNaffinity>
6.8267617226

> <CNN_VS>
4.3612942696

> <CNNaffinity_variance>
0.2176951468

$$$$
[H]c1nc(N([H])c2c([H])c([H])c(F)c(Cl)c2[H])c2sc(N([H])c3c([H])c([H])c(C([H])([H])N4C([H])([H])C([H])([H])C([H])([H])C4([H])[H])c([H])c3[H])nc2n1


 33 37  0  0  0  0  0  0  0  0999 V2000
   -0.3788  -53.7525  -20.7138 C   0  0  0  0  0  0  0  0  0  0  0  0
   -1.3228  -54.6447  -21.0725 N   0  0  0  0  0  0  0  0  0  0  0  0
   -1.6065  -54.7502  -22.3824 C   0  0  0  0  0  0  0  0  0  0  0  0
   -1.0380  -54.0534  -23.3445 N   0  0  0  0  0  0  0  0  0  0  0  0
   -0.0656  -53.1235  -23.0538 C   0  0  0  0  0  0  0  0  0  0  0  0
    0.5710  -52.3756  -23.8914 N   0  0  0  0  0  0  0  0  0  0  0  0
    1.4851  -51.5169  -23.5033 C   0  0  0  0  0  0  0  0  0  0  0  0
    1.4480  -51.7876  -21.7772 S   0  0  0  0  0  0  0  0  0  0  0  0
    0.2436  -52.9951  -21.7262 C   0  0  0  0  0  0  0  0  0  0  0  0
    0.0701  -53.5042  -19.4033 N   0  0  0  0  0  0  0  0  0  0  0  0
    1.0620  -53.8636  -19.1731 H   0  0  0  0  0  0  0  0  0  0  0  0
   -2.3664  -50.5937  -15.3722 F   0  0  0  0  0  0  0  0  0  0  0  0
   -1.8074  -51.3428  -16.3563 C   0  0  0  0  0  0  0  0  0  0  0  0
   -0.5801  -50.9214  -16.8533 C   0  0  0  0  0  0  0  0  0  0  0  0
   -0.0345  -51.6952  -17.8477 C   0  0  0  0  0  0  0  0  0  0  0  0
   -0.6214  -52.8377  -18.3673 C   0  0  0  0  0  0  0  0  0  0  0  0
   -1.8166  -53.2227  -17.8636 C   0  0  0  0  0  0  0  0  0  0  0  0
   -2.4210  -52.4707  -16.8462 C   0  0  0  0  0  0  0  0  0  0  0  0
   -3.9626  -52.9306  -16.1660 Cl  0  0  0  0  0  0  0  0  0  0  0  0
    2.3091  -50.6012  -24.1981 N   0  0  0  0  0  0  0  0  0  0  0  0
    1.7898  -49.9334  -24.8463 H   0  0  0  0  0  0  0  0  0  0  0  0
    3.6792  -50.5132  -24.1063 C   0  0  0  0  0  0  0  0  0  0  0  0
    4.5530  -51.5718  -24.1446 C   0  0  0  0  0  0  0  0  0  0  0  0
    5.9446  -51.4160  -24.0344 C   0  0  0  0  0  0  0  0  0  0  0  0
    6.4754  -50.1589  -23.8814 C   0  0  0  0  0  0  0  0  0  0  0  0
    5.6330  -49.0539  -23.8369 C   0  0  0  0  0  0  0  0  0  0  0  0
    4.2833  -49.2601  -23.9488 C   0  0  0  0  0  0  0  0  0  0  0  0
    7.9283  -49.9480  -23.7558 C   0  0  0  0  0  0  0  0  0  0  0  0
    8.4017  -49.6089  -22.4704 N   0  0  0  0  0  0  0  0  0  0  0  0
    8.6664  -48.2313  -22.2960 C   0  0  0  0  0  0  0  0  0  0  0  0
    8.3337  -47.8958  -20.8400 C   0  0  0  0  0  0  0  0  0  0  0  0
    8.3131  -49.2749  -20.2154 C   0  0  0  0  0  0  0  0  0  0  0  0
    7.6630  -50.0891  -21.3495 C   0  0  0  0  0  0  0  0  0  0  0  0
 12 13  1  0  0  0
 13 14  2  0  0  0
 14 15  1  0  0  0
 15 16  2  0  0  0
 16 10  1  0  0  0
 10  1  1  0  0  0
  1  2  2  0  0  0
  2  3  1  0  0  0
  3  4  2  0  0  0
  4  5  1  0  0  0
  5  6  1  0  0  0
  6  7  2  0  0  0
  7 20  1  0  0  0
 20 22  1  0  0  0
 22 23  2  0  0  0
 23 24  1  0  0  0
 24 25  2  0  0  0
 25 28  1  0  0  0
 28 29  1  0  0  0
 29 30  1  0  0  0
 30 31  1  0  0  0
 31 32  1  0  0  0
 32 33  1  0  0  0
 25 26  1  0  0  0
 26 27  2  0  0  0
  7  8  1  0  0  0
  8  9  1  0  0  0
 16 17  1  0  0  0
 17 18  2  0  0  0
 18 19  1  0  0  0
 18 13  1  0  0  0
  9  1  1  0  0  0
  9  5  2  0  0  0
 27 22  1  0  0  0
 33 29  1  0  0  0
 10 11  1  0  0  0
 20 21  1  0  0  0
M  END
> <minimizedAffinity>
-7.12802

> <CNNscore>
0.6004094481

> <CNNaffinity>
6.9482169151

> <CNN_VS>
4.1717748642

> <CNNaffinity_variance>
0.0747360066

$$$$
[H]c1nc(N([H])c2c([H])c([H])c(F)c(Cl)c2[H])c2sc(N([H])c3c([H])c([H])c(C([H])([H])N4C([H])([H])C([H])([H])C([H])([H])C4([H])[H])c([H])c3[H])nc2n1


 33 37  0  0  0  0  0  0  0  0999 V2000
   -0.3458  -53.0412  -20.0860 C   0  0  0  0  0  0  0  0  0  0  0  0
   -1.0110  -53.8311  -20.9517 N   0  0  0  0  0  0  0  0  0  0  0  0
   -0.9589  -53.5008  -22.2539 C   0  0  0  0  0  0  0  0  0  0  0  0
   -0.3115  -52.4686  -22.7537 N   0  0  0  0  0  0  0  0  0  0  0  0
    0.3901  -51.6176  -21.9301 C   0  0  0  0  0  0  0  0  0  0  0  0
    1.0650  -50.5749  -22.2820 N   0  0  0  0  0  0  0  0  0  0  0  0
    1.7005  -49.8291  -21.4082 C   0  0  0  0  0  0  0  0  0  0  0  0
    1.3096  -50.6821  -19.9339 S   0  0  0  0  0  0  0  0  0  0  0  0
    0.3545  -51.9305  -20.5978 C   0  0  0  0  0  0  0  0  0  0  0  0
   -0.2647  -53.2243  -18.6930 N   0  0  0  0  0  0  0  0  0  0  0  0
    0.5350  -53.8646  -18.3516 H   0  0  0  0  0  0  0  0  0  0  0  0
   -3.2603  -50.7342  -14.7581 F   0  0  0  0  0  0  0  0  0  0  0  0
   -2.5644  -51.3799  -15.7281 C   0  0  0  0  0  0  0  0  0  0  0  0
   -1.2777  -50.9268  -15.9927 C   0  0  0  0  0  0  0  0  0  0  0  0
   -0.5936  -51.5957  -16.9776 C   0  0  0  0  0  0  0  0  0  0  0  0
   -1.0992  -52.6643  -17.7003 C   0  0  0  0  0  0  0  0  0  0  0  0
   -2.3551  -53.0824  -17.4204 C   0  0  0  0  0  0  0  0  0  0  0  0
   -3.1007  -52.4368  -16.4238 C   0  0  0  0  0  0  0  0  0  0  0  0
   -4.7251  -52.9430  -16.0288 Cl  0  0  0  0  0  0  0  0  0  0  0  0
    2.4922  -48.6632  -21.5261 N   0  0  0  0  0  0  0  0  0  0  0  0
    2.8063  -48.2390  -20.6002 H   0  0  0  0  0  0  0  0  0  0  0  0
    2.8705  -48.0561  -22.7016 C   0  0  0  0  0  0  0  0  0  0  0  0
    3.5291  -48.6660  -23.7407 C   0  0  0  0  0  0  0  0  0  0  0  0
    3.8981  -47.9863  -24.9133 C   0  0  0  0  0  0  0  0  0  0  0  0
    3.5964  -46.6534  -25.0469 C   0  0  0  0  0  0  0  0  0  0  0  0
    2.9301  -45.9898  -24.0229 C   0  0  0  0  0  0  0  0  0  0  0  0
    2.5927  -46.6984  -22.9002 C   0  0  0  0  0  0  0  0  0  0  0  0
    3.9691  -45.8983  -26.2561 C   0  0  0  0  0  0  0  0  0  0  0  0
    3.4204  -46.3565  -27.4728 N   0  0  0  0  0  0  0  0  0  0  0  0
    2.1084  -45.8952  -27.7260 C   0  0  0  0  0  0  0  0  0  0  0  0
    1.9858  -45.7142  -29.2411 C   0  0  0  0  0  0  0  0  0  0  0  0
    3.1636  -46.5286  -29.7331 C   0  0  0  0  0  0  0  0  0  0  0  0
    4.2079  -46.1975  -28.6507 C   0  0  0  0  0  0  0  0  0  0  0  0
 12 13  1  0  0  0
 13 14  2  0  0  0
 14 15  1  0  0  0
 15 16  2  0  0  0
 16 10  1  0  0  0
 10  1  1  0  0  0
  1  2  2  0  0  0
  2  3  1  0  0  0
  3  4  2  0  0  0
  4  5  1  0  0  0
  5  6  1  0  0  0
  6  7  2  0  0  0
  7 20  1  0  0  0
 20 22  1  0  0  0
 22 23  2  0  0  0
 23 24  1  0  0  0
 24 25  2  0  0  0
 25 28  1  0  0  0
 28 29  1  0  0  0
 29 30  1  0  0  0
 30 31  1  0  0  0
 31 32  1  0  0  0
 32 33  1  0  0  0
 25 26  1  0  0  0
 26 27  2  0  0  0
  7  8  1  0  0  0
  8  9  1  0  0  0
 16 17  1  0  0  0
 17 18  2  0  0  0
 18 19  1  0  0  0
 18 13  1  0  0  0
  9  1  1  0  0  0
  9  5  2  0  0  0
 27 22  1  0  0  0
 33 29  1  0  0  0
 10 11  1  0  0  0
 20 21  1  0  0  0
M  END
> <minimizedAffinity>
-7.25165

> <CNNscore>
0.5857293606

> <CNNaffinity>
6.7549543381

> <CNN_VS>
3.9565751553

> <CNNaffinity_variance>
0.2132283449

$$$$
[H]c1nc(N([H])c2c([H])c([H])c(F)c(Cl)c2[H])c2sc(N([H])c3c([H])c([H])c(C([H])([H])N4C([H])([H])C([H])([H])C([H])([H])C4([H])[H])c([H])c3[H])nc2n1


 33 37  0  0  0  0  0  0  0  0999 V2000
    0.4618  -52.9188  -24.6635 C   0  0  0  0  0  0  0  0  0  0  0  0
    0.2826  -53.7366  -25.7194 N   0  0  0  0  0  0  0  0  0  0  0  0
   -0.4136  -54.8680  -25.5127 C   0  0  0  0  0  0  0  0  0  0  0  0
   -0.9351  -55.2434  -24.3631 N   0  0  0  0  0  0  0  0  0  0  0  0
   -0.7924  -54.4590  -23.2410 C   0  0  0  0  0  0  0  0  0  0  0  0
   -1.2483  -54.7027  -22.0581 N   0  0  0  0  0  0  0  0  0  0  0  0
   -1.0528  -53.8808  -21.0533 C   0  0  0  0  0  0  0  0  0  0  0  0
   -0.1301  -52.6309  -21.8536 S   0  0  0  0  0  0  0  0  0  0  0  0
   -0.0872  -53.2996  -23.4228 C   0  0  0  0  0  0  0  0  0  0  0  0
    1.1440  -51.6879  -24.6764 N   0  0  0  0  0  0  0  0  0  0  0  0
    0.5520  -50.8283  -24.9532 H   0  0  0  0  0  0  0  0  0  0  0  0
    6.5353  -51.1535  -23.5332 F   0  0  0  0  0  0  0  0  0  0  0  0
    5.2079  -51.2331  -23.8050 C   0  0  0  0  0  0  0  0  0  0  0  0
    4.6823  -52.4996  -24.0296 C   0  0  0  0  0  0  0  0  0  0  0  0
    3.3376  -52.5547  -24.3022 C   0  0  0  0  0  0  0  0  0  0  0  0
    2.5013  -51.4517  -24.3640 C   0  0  0  0  0  0  0  0  0  0  0  0
    3.0421  -50.2318  -24.1413 C   0  0  0  0  0  0  0  0  0  0  0  0
    4.4104  -50.1151  -23.8577 C   0  0  0  0  0  0  0  0  0  0  0  0
    5.1509  -48.5609  -23.5632 Cl  0  0  0  0  0  0  0  0  0  0  0  0
   -1.4346  -53.9095  -19.6919 N   0  0  0  0  0  0  0  0  0  0  0  0
   -2.0388  -54.7420  -19.4131 H   0  0  0  0  0  0  0  0  0  0  0  0
   -1.1001  -52.9771  -18.7368 C   0  0  0  0  0  0  0  0  0  0  0  0
   -0.0856  -52.0573  -18.8378 C   0  0  0  0  0  0  0  0  0  0  0  0
    0.2131  -51.1367  -17.8199 C   0  0  0  0  0  0  0  0  0  0  0  0
   -0.5298  -51.1393  -16.6651 C   0  0  0  0  0  0  0  0  0  0  0  0
   -1.5685  -52.0509  -16.5137 C   0  0  0  0  0  0  0  0  0  0  0  0
   -1.8186  -52.9276  -17.5362 C   0  0  0  0  0  0  0  0  0  0  0  0
   -0.2491  -50.1963  -15.5682 C   0  0  0  0  0  0  0  0  0  0  0  0
   -0.9142  -48.9531  -15.6273 N   0  0  0  0  0  0  0  0  0  0  0  0
   -2.2276  -48.9742  -15.1050 C   0  0  0  0  0  0  0  0  0  0  0  0
   -2.4736  -47.6052  -14.4659 C   0  0  0  0  0  0  0  0  0  0  0  0
   -1.3689  -46.7820  -15.0940 C   0  0  0  0  0  0  0  0  0  0  0  0
   -0.2258  -47.8138  -15.1166 C   0  0  0  0  0  0  0  0  0  0  0  0
 12 13  1  0  0  0
 13 14  2  0  0  0
 14 15  1  0  0  0
 15 16  2  0  0  0
 16 10  1  0  0  0
 10  1  1  0  0  0
  1  2  2  0  0  0
  2  3  1  0  0  0
  3  4  2  0  0  0
  4  5  1  0  0  0
  5  6  1  0  0  0
  6  7  2  0  0  0
  7 20  1  0  0  0
 20 22  1  0  0  0
 22 23  2  0  0  0
 23 24  1  0  0  0
 24 25  2  0  0  0
 25 28  1  0  0  0
 28 29  1  0  0  0
 29 30  1  0  0  0
 30 31  1  0  0  0
 31 32  1  0  0  0
 32 33  1  0  0  0
 25 26  1  0  0  0
 26 27  2  0  0  0
  7  8  1  0  0  0
  8  9  1  0  0  0
 16 17  1  0  0  0
 17 18  2  0  0  0
 18 19  1  0  0  0
 18 13  1  0  0  0
  9  1  1  0  0  0
  9  5  2  0  0  0
 27 22  1  0  0  0
 33 29  1  0  0  0
 10 11  1  0  0  0
 20 21  1  0  0  0
M  END
> <minimizedAffinity>
-7.97701

> <CNNscore>
0.5712512732

> <CNNaffinity>
7.1400451660

> <CNN_VS>
4.0787596703

> <CNNaffinity_variance>
0.1220572591

$$$$
[H]c1nc(N([H])c2c([H])c([H])c(F)c(Cl)c2[H])c2sc(N([H])c3c([H])c([H])c(C([H])([H])N4C([H])([H])C([H])([H])C([H])([H])C4([H])[H])c([H])c3[H])nc2n1


 33 37  0  0  0  0  0  0  0  0999 V2000
   -0.6332  -54.0746  -22.4592 C   0  0  0  0  0  0  0  0  0  0  0  0
   -1.5684  -54.3066  -21.5171 N   0  0  0  0  0  0  0  0  0  0  0  0
   -1.4733  -53.6135  -20.3691 C   0  0  0  0  0  0  0  0  0  0  0  0
   -0.5413  -52.7261  -20.0888 N   0  0  0  0  0  0  0  0  0  0  0  0
    0.4467  -52.4372  -21.0026 C   0  0  0  0  0  0  0  0  0  0  0  0
    1.4154  -51.5957  -20.8613 N   0  0  0  0  0  0  0  0  0  0  0  0
    2.3084  -51.3970  -21.8029 C   0  0  0  0  0  0  0  0  0  0  0  0
    1.7269  -52.5105  -23.0179 S   0  0  0  0  0  0  0  0  0  0  0  0
    0.3743  -53.1291  -22.1818 C   0  0  0  0  0  0  0  0  0  0  0  0
   -0.5664  -54.6828  -23.7265 N   0  0  0  0  0  0  0  0  0  0  0  0
   -0.5732  -55.7626  -23.7277 H   0  0  0  0  0  0  0  0  0  0  0  0
   -0.5420  -51.8940  -28.5098 F   0  0  0  0  0  0  0  0  0  0  0  0
   -0.5150  -52.6124  -27.3586 C   0  0  0  0  0  0  0  0  0  0  0  0
   -1.3620  -52.2023  -26.3363 C   0  0  0  0  0  0  0  0  0  0  0  0
   -1.3172  -52.9446  -25.1819 C   0  0  0  0  0  0  0  0  0  0  0  0
   -0.4994  -54.0458  -24.9856 C   0  0  0  0  0  0  0  0  0  0  0  0
    0.3147  -54.4206  -25.9991 C   0  0  0  0  0  0  0  0  0  0  0  0
    0.3108  -53.6996  -27.2017 C   0  0  0  0  0  0  0  0  0  0  0  0
    1.3444  -54.1478  -28.5364 Cl  0  0  0  0  0  0  0  0  0  0  0  0
    3.4405  -50.5550  -21.9000 N   0  0  0  0  0  0  0  0  0  0  0  0
    3.9775  -50.4189  -20.9895 H   0  0  0  0  0  0  0  0  0  0  0  0
    3.8823  -49.9196  -23.0377 C   0  0  0  0  0  0  0  0  0  0  0  0
    5.0722  -50.1626  -23.6786 C   0  0  0  0  0  0  0  0  0  0  0  0
    5.4714  -49.4701  -24.8336 C   0  0  0  0  0  0  0  0  0  0  0  0
    4.6508  -48.5041  -25.3617 C   0  0  0  0  0  0  0  0  0  0  0  0
    3.4350  -48.2204  -24.7501 C   0  0  0  0  0  0  0  0  0  0  0  0
    3.0926  -48.9243  -23.6258 C   0  0  0  0  0  0  0  0  0  0  0  0
    5.0308  -47.7480  -26.5680 C   0  0  0  0  0  0  0  0  0  0  0  0
    4.0656  -46.8509  -27.0730 N   0  0  0  0  0  0  0  0  0  0  0  0
    4.4585  -45.4936  -27.0296 C   0  0  0  0  0  0  0  0  0  0  0  0
    3.8376  -44.8121  -28.2515 C   0  0  0  0  0  0  0  0  0  0  0  0
    2.7717  -45.8147  -28.6404 C   0  0  0  0  0  0  0  0  0  0  0  0
    3.5090  -47.1362  -28.3542 C   0  0  0  0  0  0  0  0  0  0  0  0
 12 13  1  0  0  0
 13 14  2  0  0  0
 14 15  1  0  0  0
 15 16  2  0  0  0
 16 10  1  0  0  0
 10  1  1  0  0  0
  1  2  2  0  0  0
  2  3  1  0  0  0
  3  4  2  0  0  0
  4  5  1  0  0  0
  5  6  1  0  0  0
  6  7  2  0  0  0
  7 20  1  0  0  0
 20 22  1  0  0  0
 22 23  2  0  0  0
 23 24  1  0  0  0
 24 25  2  0  0  0
 25 28  1  0  0  0
 28 29  1  0  0  0
 29 30  1  0  0  0
 30 31  1  0  0  0
 31 32  1  0  0  0
 32 33  1  0  0  0
 25 26  1  0  0  0
 26 27  2  0  0  0
  7  8  1  0  0  0
  8  9  1  0  0  0
 16 17  1  0  0  0
 17 18  2  0  0  0
 18 19  1  0  0  0
 18 13  1  0  0  0
  9  1  1  0  0  0
  9  5  2  0  0  0
 27 22  1  0  0  0
 33 29  1  0  0  0
 10 11  1  0  0  0
 20 21  1  0  0  0
M  END
> <minimizedAffinity>
-7.32728

> <CNNscore>
0.5159432292

> <CNNaffinity>
7.2335915565

> <CNN_VS>
3.7321226597

> <CNNaffinity_variance>
0.3910920620

$$$$
[H]c1nc(N([H])c2c([H])c([H])c(F)c(Cl)c2[H])c2sc(N([H])c3c([H])c([H])c(C([H])([H])N4C([H])([H])C([H])([H])C([H])([H])C4([H])[H])c([H])c3[H])nc2n1


 33 37  0  0  0  0  0  0  0  0999 V2000
    0.1476  -53.2337  -23.3745 C   0  0  0  0  0  0  0  0  0  0  0  0
   -0.7699  -54.2184  -23.4406 N   0  0  0  0  0  0  0  0  0  0  0  0
   -1.1743  -54.7642  -22.2805 C   0  0  0  0  0  0  0  0  0  0  0  0
   -0.7478  -54.4160  -21.0841 N   0  0  0  0  0  0  0  0  0  0  0  0
    0.1890  -53.4180  -20.9386 C   0  0  0  0  0  0  0  0  0  0  0  0
    0.6924  -52.9783  -19.8343 N   0  0  0  0  0  0  0  0  0  0  0  0
    1.5854  -52.0163  -19.8102 C   0  0  0  0  0  0  0  0  0  0  0  0
    1.7354  -51.6933  -21.5211 S   0  0  0  0  0  0  0  0  0  0  0  0
    0.6189  -52.8440  -22.1048 C   0  0  0  0  0  0  0  0  0  0  0  0
    0.6848  -52.5282  -24.4673 N   0  0  0  0  0  0  0  0  0  0  0  0
    1.5032  -51.8624  -24.2370 H   0  0  0  0  0  0  0  0  0  0  0  0
   -0.5122  -52.9101  -29.8598 F   0  0  0  0  0  0  0  0  0  0  0  0
   -0.2692  -52.8052  -28.5286 C   0  0  0  0  0  0  0  0  0  0  0  0
    1.0534  -52.9123  -28.1160 C   0  0  0  0  0  0  0  0  0  0  0  0
    1.2743  -52.8027  -26.7652 C   0  0  0  0  0  0  0  0  0  0  0  0
    0.2824  -52.5977  -25.8196 C   0  0  0  0  0  0  0  0  0  0  0  0
   -0.9958  -52.4980  -26.2518 C   0  0  0  0  0  0  0  0  0  0  0  0
   -1.2807  -52.6019  -27.6208 C   0  0  0  0  0  0  0  0  0  0  0  0
   -2.9154  -52.4788  -28.2234 Cl  0  0  0  0  0  0  0  0  0  0  0  0
    2.2788  -51.3663  -18.7629 N   0  0  0  0  0  0  0  0  0  0  0  0
    3.3407  -51.3783  -18.8531 H   0  0  0  0  0  0  0  0  0  0  0  0
    1.7075  -50.7458  -17.6757 C   0  0  0  0  0  0  0  0  0  0  0  0
    0.5465  -50.0128  -17.6920 C   0  0  0  0  0  0  0  0  0  0  0  0
    0.0198  -49.3934  -16.5466 C   0  0  0  0  0  0  0  0  0  0  0  0
    0.6787  -49.5137  -15.3480 C   0  0  0  0  0  0  0  0  0  0  0  0
    1.8587  -50.2456  -15.2786 C   0  0  0  0  0  0  0  0  0  0  0  0
    2.3299  -50.8299  -16.4245 C   0  0  0  0  0  0  0  0  0  0  0  0
    0.1670  -48.8763  -14.1220 C   0  0  0  0  0  0  0  0  0  0  0  0
    0.3353  -47.4784  -14.0273 N   0  0  0  0  0  0  0  0  0  0  0  0
    1.6396  -47.0304  -14.3379 C   0  0  0  0  0  0  0  0  0  0  0  0
    1.4919  -45.6600  -15.0037 C   0  0  0  0  0  0  0  0  0  0  0  0
    0.0819  -45.2846  -14.5994 C   0  0  0  0  0  0  0  0  0  0  0  0
   -0.6148  -46.6545  -14.6989 C   0  0  0  0  0  0  0  0  0  0  0  0
 12 13  1  0  0  0
 13 14  2  0  0  0
 14 15  1  0  0  0
 15 16  2  0  0  0
 16 10  1  0  0  0
 10  1  1  0  0  0
  1  2  2  0  0  0
  2  3  1  0  0  0
  3  4  2  0  0  0
  4  5  1  0  0  0
  5  6  1  0  0  0
  6  7  2  0  0  0
  7 20  1  0  0  0
 20 22  1  0  0  0
 22 23  2  0  0  0
 23 24  1  0  0  0
 24 25  2  0  0  0
 25 28  1  0  0  0
 28 29  1  0  0  0
 29 30  1  0  0  0
 30 31  1  0  0  0
 31 32  1  0  0  0
 32 33  1  0  0  0
 25 26  1  0  0  0
 26 27  2  0  0  0
  7  8  1  0  0  0
  8  9  1  0  0  0
 16 17  1  0  0  0
 17 18  2  0  0  0
 18 19  1  0  0  0
 18 13  1  0  0  0
  9  1  1  0  0  0
  9  5  2  0  0  0
 27 22  1  0  0  0
 33 29  1  0  0  0
 10 11  1  0  0  0
 20 21  1  0  0  0
M  END
> <minimizedAffinity>
-7.81627

> <CNNscore>
0.4926078320

> <CNNaffinity>
7.0091948509

> <CNN_VS>
3.4527842999

> <CNNaffinity_variance>
0.4394102991

$$$$
[H]c1nc(N([H])c2c([H])c([H])c(N3C([H])([H])C([H])([H])N(C([H])([H])[H])C([H])([H])C3([H])[H])c(C([H])([H])[H])c2[H])nc2c1C([H])([H])N(c1c([H])c([H])c([H])c(F)c1[H])C(=O)N2[C@]1([H])C([H])([H])N(C(=O)C([H])([H])C([H])([H])[H])C([H])([H])C1([H])[H]


 43 48  0  0  0  0  0  0  0  0999 V2000
    1.1546  -52.1629  -22.8070 N   0  0  0  0  0  0  0  0  0  0  0  0
    1.1875  -52.2346  -24.2485 C   0  0  0  0  0  0  0  0  0  0  0  0
    2.0314  -51.5577  -24.9191 O   0  0  0  0  0  0  0  0  0  0  0  0
    0.2892  -53.0543  -24.9709 N   0  0  0  0  0  0  0  0  0  0  0  0
   -0.6742  -53.8992  -24.2999 C   0  0  0  0  0  0  0  0  0  0  0  0
   -0.6954  -53.7582  -22.8472 C   0  0  0  0  0  0  0  0  0  0  0  0
   -1.6357  -54.4724  -22.1310 C   0  0  0  0  0  0  0  0  0  0  0  0
   -1.6557  -54.3538  -20.8029 N   0  0  0  0  0  0  0  0  0  0  0  0
   -0.8262  -53.5887  -20.1052 C   0  0  0  0  0  0  0  0  0  0  0  0
    0.0882  -52.8995  -20.8526 N   0  0  0  0  0  0  0  0  0  0  0  0
    0.1735  -52.9608  -22.1632 C   0  0  0  0  0  0  0  0  0  0  0  0
    3.1292  -47.7690  -22.1409 C   0  0  0  0  0  0  0  0  0  0  0  0
    2.1728  -46.9930  -22.4338 O   0  0  0  0  0  0  0  0  0  0  0  0
    3.0348  -49.1786  -22.2349 N   0  0  0  0  0  0  0  0  0  0  0  0
    4.0693  -50.1081  -21.9161 C   0  0  0  0  0  0  0  0  0  0  0  0
    3.5281  -51.4316  -22.4955 C   0  0  0  0  0  0  0  0  0  0  0  0
    2.0945  -51.2986  -22.2112 C   0  0  0  0  0  0  0  0  0  0  0  0
    1.8228  -49.8613  -22.6840 C   0  0  0  0  0  0  0  0  0  0  0  0
    4.2847  -46.7295  -20.2169 C   0  0  0  0  0  0  0  0  0  0  0  0
    4.4042  -47.1508  -21.6779 C   0  0  0  0  0  0  0  0  0  0  0  0
    0.2792  -53.0895  -26.3826 C   0  0  0  0  0  0  0  0  0  0  0  0
    1.3194  -53.6533  -27.0769 C   0  0  0  0  0  0  0  0  0  0  0  0
    1.3346  -53.6978  -28.4594 C   0  0  0  0  0  0  0  0  0  0  0  0
    0.2881  -53.1674  -29.1726 C   0  0  0  0  0  0  0  0  0  0  0  0
   -0.7724  -52.5934  -28.4928 C   0  0  0  0  0  0  0  0  0  0  0  0
   -1.8276  -52.0566  -29.1560 F   0  0  0  0  0  0  0  0  0  0  0  0
   -0.7666  -52.5597  -27.0918 C   0  0  0  0  0  0  0  0  0  0  0  0
   -0.8317  -53.4305  -18.6915 N   0  0  0  0  0  0  0  0  0  0  0  0
   -1.1727  -54.2560  -18.1158 H   0  0  0  0  0  0  0  0  0  0  0  0
   -0.4383  -52.2893  -18.0113 C   0  0  0  0  0  0  0  0  0  0  0  0
   -0.8723  -52.1846  -16.6735 C   0  0  0  0  0  0  0  0  0  0  0  0
   -0.5436  -51.0848  -15.9435 C   0  0  0  0  0  0  0  0  0  0  0  0
    0.2307  -50.0377  -16.5059 C   0  0  0  0  0  0  0  0  0  0  0  0
    0.6595  -50.1233  -17.7983 C   0  0  0  0  0  0  0  0  0  0  0  0
    1.5092  -49.1093  -18.4871 C   0  0  0  0  0  0  0  0  0  0  0  0
    0.3116  -51.2643  -18.5406 C   0  0  0  0  0  0  0  0  0  0  0  0
    0.4937  -48.9206  -15.7007 N   0  0  0  0  0  0  0  0  0  0  0  0
   -0.6207  -47.9582  -15.4877 C   0  0  0  0  0  0  0  0  0  0  0  0
   -0.3549  -47.2112  -14.1996 C   0  0  0  0  0  0  0  0  0  0  0  0
    0.8289  -46.3809  -14.3680 N   0  0  0  0  0  0  0  0  0  0  0  0
    1.4096  -46.1819  -13.0582 C   0  0  0  0  0  0  0  0  0  0  0  0
    1.7985  -46.9984  -15.2265 C   0  0  0  0  0  0  0  0  0  0  0  0
    1.7226  -48.5459  -15.0825 C   0  0  0  0  0  0  0  0  0  0  0  0
 19 20  1  0  0  0
 20 12  1  0  0  0
 12 13  2  0  0  0
 12 14  1  0  0  0
 14 15  1  0  0  0
 15 16  1  0  0  0
 16 17  1  0  0  0
 17 18  1  0  0  0
 17  1  1  0  0  0
  1  2  1  0  0  0
  2  3  2  0  0  0
  2  4  1  0  0  0
  4  5  1  0  0  0
  5  6  1  0  0  0
  6  7  2  0  0  0
  7  8  1  0  0  0
  8  9  2  0  0  0
  9 28  1  0  0  0
 28 30  1  0  0  0
 30 31  2  0  0  0
 31 32  1  0  0  0
 32 33  2  0  0  0
 33 37  1  0  0  0
 37 38  1  0  0  0
 38 39  1  0  0  0
 39 40  1  0  0  0
 40 41  1  0  0  0
 40 42  1  0  0  0
 42 43  1  0  0  0
 33 34  1  0  0  0
 34 35  1  0  0  0
 34 36  2  0  0  0
  9 10  1  0  0  0
 10 11  2  0  0  0
  4 21  1  0  0  0
 21 22  2  0  0  0
 22 23  1  0  0  0
 23 24  2  0  0  0
 24 25  1  0  0  0
 25 26  1  0  0  0
 25 27  2  0  0  0
 18 14  1  0  0  0
 11  1  1  0  0  0
 27 21  1  0  0  0
 11  6  1  0  0  0
 36 30  1  0  0  0
 43 37  1  0  0  0
 28 29  1  0  0  0
M  END
> <minimizedAffinity>
-9.82638

> <CNNscore>
0.9175305367

> <CNNaffinity>
8.2964582443

> <CNN_VS>
7.6122536659

> <CNNaffinity_variance>
0.0163852908

$$$$
[H]c1nc(N([H])c2c([H])c([H])c(N3C([H])([H])C([H])([H])N(C([H])([H])[H])C([H])([H])C3([H])[H])c(C([H])([H])[H])c2[H])nc2c1C([H])([H])N(c1c([H])c([H])c([H])c(F)c1[H])C(=O)N2[C@]1([H])C([H])([H])N(C(=O)C([H])([H])C([H])([H])[H])C([H])([H])C1([H])[H]


 43 48  0  0  0  0  0  0  0  0999 V2000
    1.2387  -51.8735  -22.7397 N   0  0  0  0  0  0  0  0  0  0  0  0
    1.2140  -52.0163  -24.1761 C   0  0  0  0  0  0  0  0  0  0  0  0
    2.0339  -51.3789  -24.9121 O   0  0  0  0  0  0  0  0  0  0  0  0
    0.2838  -52.8644  -24.8211 N   0  0  0  0  0  0  0  0  0  0  0  0
   -0.6562  -53.6688  -24.0718 C   0  0  0  0  0  0  0  0  0  0  0  0
   -0.6191  -53.4563  -22.6281 C   0  0  0  0  0  0  0  0  0  0  0  0
   -1.5337  -54.1281  -21.8410 C   0  0  0  0  0  0  0  0  0  0  0  0
   -1.5004  -53.9440  -20.5206 N   0  0  0  0  0  0  0  0  0  0  0  0
   -0.6403  -53.1511  -19.8948 C   0  0  0  0  0  0  0  0  0  0  0  0
    0.2471  -52.5057  -20.7108 N   0  0  0  0  0  0  0  0  0  0  0  0
    0.2800  -52.6321  -22.0191 C   0  0  0  0  0  0  0  0  0  0  0  0
    3.2906  -47.4769  -22.4096 C   0  0  0  0  0  0  0  0  0  0  0  0
    2.3378  -46.7067  -22.7283 O   0  0  0  0  0  0  0  0  0  0  0  0
    3.1743  -48.8880  -22.4096 N   0  0  0  0  0  0  0  0  0  0  0  0
    4.2037  -49.8109  -22.0571 C   0  0  0  0  0  0  0  0  0  0  0  0
    3.6293  -51.1605  -22.5356 C   0  0  0  0  0  0  0  0  0  0  0  0
    2.2056  -50.9873  -22.2249 C   0  0  0  0  0  0  0  0  0  0  0  0
    1.9417  -49.5794  -22.7830 C   0  0  0  0  0  0  0  0  0  0  0  0
    4.5949  -46.5477  -20.5246 C   0  0  0  0  0  0  0  0  0  0  0  0
    4.5856  -46.8500  -22.0196 C   0  0  0  0  0  0  0  0  0  0  0  0
    0.2177  -52.9691  -26.2279 C   0  0  0  0  0  0  0  0  0  0  0  0
    1.2750  -53.4705  -26.9438 C   0  0  0  0  0  0  0  0  0  0  0  0
    1.2361  -53.5807  -28.3222 C   0  0  0  0  0  0  0  0  0  0  0  0
    0.1162  -53.1816  -29.0090 C   0  0  0  0  0  0  0  0  0  0  0  0
   -0.9628  -52.6726  -28.3071 C   0  0  0  0  0  0  0  0  0  0  0  0
   -2.0898  -52.2654  -28.9440 F   0  0  0  0  0  0  0  0  0  0  0  0
   -0.9012  -52.5703  -26.9108 C   0  0  0  0  0  0  0  0  0  0  0  0
   -0.5889  -52.9235  -18.4916 N   0  0  0  0  0  0  0  0  0  0  0  0
   -1.0767  -53.6342  -17.8702 H   0  0  0  0  0  0  0  0  0  0  0  0
    0.0354  -51.8506  -17.8761 C   0  0  0  0  0  0  0  0  0  0  0  0
    1.4101  -51.6936  -18.1488 C   0  0  0  0  0  0  0  0  0  0  0  0
    2.0995  -50.6750  -17.5676 C   0  0  0  0  0  0  0  0  0  0  0  0
    1.4580  -49.7647  -16.6890 C   0  0  0  0  0  0  0  0  0  0  0  0
    0.1284  -49.9015  -16.4150 C   0  0  0  0  0  0  0  0  0  0  0  0
   -0.6639  -48.9881  -15.5417 C   0  0  0  0  0  0  0  0  0  0  0  0
   -0.5706  -50.9586  -17.0214 C   0  0  0  0  0  0  0  0  0  0  0  0
    2.2465  -48.7663  -16.1002 N   0  0  0  0  0  0  0  0  0  0  0  0
    2.7976  -49.0448  -14.7466 C   0  0  0  0  0  0  0  0  0  0  0  0
    4.0263  -48.1837  -14.5547 C   0  0  0  0  0  0  0  0  0  0  0  0
    3.6241  -46.7853  -14.5139 N   0  0  0  0  0  0  0  0  0  0  0  0
    4.7571  -45.9949  -14.9431 C   0  0  0  0  0  0  0  0  0  0  0  0
    2.5096  -46.5230  -15.3786 C   0  0  0  0  0  0  0  0  0  0  0  0
    2.5612  -47.4726  -16.6102 C   0  0  0  0  0  0  0  0  0  0  0  0
 19 20  1  0  0  0
 20 12  1  0  0  0
 12 13  2  0  0  0
 12 14  1  0  0  0
 14 15  1  0  0  0
 15 16  1  0  0  0
 16 17  1  0  0  0
 17 18  1  0  0  0
 17  1  1  0  0  0
  1  2  1  0  0  0
  2  3  2  0  0  0
  2  4  1  0  0  0
  4  5  1  0  0  0
  5  6  1  0  0  0
  6  7  2  0  0  0
  7  8  1  0  0  0
  8  9  2  0  0  0
  9 28  1  0  0  0
 28 30  1  0  0  0
 30 31  2  0  0  0
 31 32  1  0  0  0
 32 33  2  0  0  0
 33 37  1  0  0  0
 37 38  1  0  0  0
 38 39  1  0  0  0
 39 40  1  0  0  0
 40 41  1  0  0  0
 40 42  1  0  0  0
 42 43  1  0  0  0
 33 34  1  0  0  0
 34 35  1  0  0  0
 34 36  2  0  0  0
  9 10  1  0  0  0
 10 11  2  0  0  0
  4 21  1  0  0  0
 21 22  2  0  0  0
 22 23  1  0  0  0
 23 24  2  0  0  0
 24 25  1  0  0  0
 25 26  1  0  0  0
 25 27  2  0  0  0
 18 14  1  0  0  0
 11  1  1  0  0  0
 27 21  1  0  0  0
 11  6  1  0  0  0
 36 30  1  0  0  0
 43 37  1  0  0  0
 28 29  1  0  0  0
M  END
> <minimizedAffinity>
-8.99263

> <CNNscore>
0.6926367879

> <CNNaffinity>
8.0753231049

> <CNN_VS>
5.5932660103

> <CNNaffinity_variance>
0.1240588054

$$$$
[H]c1nc(N([H])c2c([H])c([H])c(N3C([H])([H])C([H])([H])N(C([H])([H])[H])C([H])([H])C3([H])[H])c(C([H])([H])[H])c2[H])nc2c1C([H])([H])N(c1c([H])c([H])c([H])c(F)c1[H])C(=O)N2[C@]1([H])C([H])([H])N(C(=O)C([H])([H])C([H])([H])[H])C([H])([H])C1([H])[H]


 43 48  0  0  0  0  0  0  0  0999 V2000
    0.8164  -51.5143  -22.9472 N   0  0  0  0  0  0  0  0  0  0  0  0
    0.8153  -51.6810  -24.3812 C   0  0  0  0  0  0  0  0  0  0  0  0
    1.4384  -50.8672  -25.1359 O   0  0  0  0  0  0  0  0  0  0  0  0
    0.1262  -52.7482  -25.0032 N   0  0  0  0  0  0  0  0  0  0  0  0
   -0.5704  -53.7539  -24.2315 C   0  0  0  0  0  0  0  0  0  0  0  0
   -0.5750  -53.5165  -22.7912 C   0  0  0  0  0  0  0  0  0  0  0  0
   -1.2804  -54.3869  -21.9837 C   0  0  0  0  0  0  0  0  0  0  0  0
   -1.2827  -54.1800  -20.6663 N   0  0  0  0  0  0  0  0  0  0  0  0
   -0.6473  -53.1843  -20.0619 C   0  0  0  0  0  0  0  0  0  0  0  0
    0.0382  -52.3468  -20.8976 N   0  0  0  0  0  0  0  0  0  0  0  0
    0.0898  -52.4809  -22.2045 C   0  0  0  0  0  0  0  0  0  0  0  0
    4.5936  -49.5238  -20.6191 C   0  0  0  0  0  0  0  0  0  0  0  0
    5.4940  -50.4025  -20.7591 O   0  0  0  0  0  0  0  0  0  0  0  0
    3.2735  -49.6885  -21.1040 N   0  0  0  0  0  0  0  0  0  0  0  0
    2.2155  -48.7387  -20.9851 C   0  0  0  0  0  0  0  0  0  0  0  0
    0.9741  -49.5594  -21.3921 C   0  0  0  0  0  0  0  0  0  0  0  0
    1.5300  -50.4030  -22.4564 C   0  0  0  0  0  0  0  0  0  0  0  0
    2.8341  -50.8928  -21.8062 C   0  0  0  0  0  0  0  0  0  0  0  0
    6.3404  -48.4019  -19.2747 C   0  0  0  0  0  0  0  0  0  0  0  0
    4.9598  -48.2655  -19.9086 C   0  0  0  0  0  0  0  0  0  0  0  0
    0.0756  -52.8882  -26.4075 C   0  0  0  0  0  0  0  0  0  0  0  0
   -0.9927  -52.4083  -27.1216 C   0  0  0  0  0  0  0  0  0  0  0  0
   -1.0672  -52.5353  -28.4971 C   0  0  0  0  0  0  0  0  0  0  0  0
   -0.0527  -53.1564  -29.1827 C   0  0  0  0  0  0  0  0  0  0  0  0
    1.0354  -53.6484  -28.4826 C   0  0  0  0  0  0  0  0  0  0  0  0
    2.0607  -54.2699  -29.1182 F   0  0  0  0  0  0  0  0  0  0  0  0
    1.0896  -53.5083  -27.0893 C   0  0  0  0  0  0  0  0  0  0  0  0
   -0.6425  -52.9293  -18.6625 N   0  0  0  0  0  0  0  0  0  0  0  0
   -1.1852  -53.6052  -18.0479 H   0  0  0  0  0  0  0  0  0  0  0  0
    0.0027  -51.8711  -18.0430 C   0  0  0  0  0  0  0  0  0  0  0  0
    1.3779  -51.7337  -18.3236 C   0  0  0  0  0  0  0  0  0  0  0  0
    2.0871  -50.7306  -17.7392 C   0  0  0  0  0  0  0  0  0  0  0  0
    1.4657  -49.8171  -16.8495 C   0  0  0  0  0  0  0  0  0  0  0  0
    0.1359  -49.9351  -16.5677 C   0  0  0  0  0  0  0  0  0  0  0  0
   -0.6362  -49.0161  -15.6823 C   0  0  0  0  0  0  0  0  0  0  0  0
   -0.5836  -50.9764  -17.1776 C   0  0  0  0  0  0  0  0  0  0  0  0
    2.2736  -48.8358  -16.2583 N   0  0  0  0  0  0  0  0  0  0  0  0
    2.7054  -49.0661  -14.8533 C   0  0  0  0  0  0  0  0  0  0  0  0
    3.9711  -48.2726  -14.6161 C   0  0  0  0  0  0  0  0  0  0  0  0
    3.6604  -46.8520  -14.6835 N   0  0  0  0  0  0  0  0  0  0  0  0
    4.8713  -46.1604  -15.0679 C   0  0  0  0  0  0  0  0  0  0  0  0
    2.6314  -46.5737  -15.6438 C   0  0  0  0  0  0  0  0  0  0  0  0
    2.7094  -47.5970  -16.8135 C   0  0  0  0  0  0  0  0  0  0  0  0
 19 20  1  0  0  0
 20 12  1  0  0  0
 12 13  2  0  0  0
 12 14  1  0  0  0
 14 15  1  0  0  0
 15 16  1  0  0  0
 16 17  1  0  0  0
 17 18  1  0  0  0
 17  1  1  0  0  0
  1  2  1  0  0  0
  2  3  2  0  0  0
  2  4  1  0  0  0
  4  5  1  0  0  0
  5  6  1  0  0  0
  6  7  2  0  0  0
  7  8  1  0  0  0
  8  9  2  0  0  0
  9 28  1  0  0  0
 28 30  1  0  0  0
 30 31  2  0  0  0
 31 32  1  0  0  0
 32 33  2  0  0  0
 33 37  1  0  0  0
 37 38  1  0  0  0
 38 39  1  0  0  0
 39 40  1  0  0  0
 40 41  1  0  0  0
 40 42  1  0  0  0
 42 43  1  0  0  0
 33 34  1  0  0  0
 34 35  1  0  0  0
 34 36  2  0  0  0
  9 10  1  0  0  0
 10 11  2  0  0  0
  4 21  1  0  0  0
 21 22  2  0  0  0
 22 23  1  0  0  0
 23 24  2  0  0  0
 24 25  1  0  0  0
 25 26  1  0  0  0
 25 27  2  0  0  0
 18 14  1  0  0  0
 11  1  1  0  0  0
 27 21  1  0  0  0
 11  6  1  0  0  0
 36 30  1  0  0  0
 43 37  1  0  0  0
 28 29  1  0  0  0
M  END
> <minimizedAffinity>
-9.76166

> <CNNscore>
0.6258074641

> <CNNaffinity>
7.7803049088

> <CNN_VS>
4.8689727783

> <CNNaffinity_variance>
0.1173963994

$$$$
[H]c1nc(N([H])c2c([H])c([H])c(N3C([H])([H])C([H])([H])N(C([H])([H])[H])C([H])([H])C3([H])[H])c(C([H])([H])[H])c2[H])nc2c1C([H])([H])N(c1c([H])c([H])c([H])c(F)c1[H])C(=O)N2[C@]1([H])C([H])([H])N(C(=O)C([H])([H])C([H])([H])[H])C([H])([H])C1([H])[H]


 43 48  0  0  0  0  0  0  0  0999 V2000
    0.8498  -51.6129  -23.2258 N   0  0  0  0  0  0  0  0  0  0  0  0
    0.5178  -51.6536  -24.6302 C   0  0  0  0  0  0  0  0  0  0  0  0
    1.0064  -50.8053  -25.4438 O   0  0  0  0  0  0  0  0  0  0  0  0
   -0.3585  -52.6309  -25.1571 N   0  0  0  0  0  0  0  0  0  0  0  0
   -0.9267  -53.6683  -24.3246 C   0  0  0  0  0  0  0  0  0  0  0  0
   -0.5945  -53.5576  -22.9075 C   0  0  0  0  0  0  0  0  0  0  0  0
   -1.1549  -54.4631  -22.0282 C   0  0  0  0  0  0  0  0  0  0  0  0
   -0.8496  -54.3720  -20.7331 N   0  0  0  0  0  0  0  0  0  0  0  0
   -0.0341  -53.4620  -20.2165 C   0  0  0  0  0  0  0  0  0  0  0  0
    0.4985  -52.5858  -21.1212 N   0  0  0  0  0  0  0  0  0  0  0  0
    0.2483  -52.6076  -22.4118 C   0  0  0  0  0  0  0  0  0  0  0  0
    5.0790  -50.0215  -21.4284 C   0  0  0  0  0  0  0  0  0  0  0  0
    5.8669  -50.9739  -21.7013 O   0  0  0  0  0  0  0  0  0  0  0  0
    3.6951  -50.0563  -21.7259 N   0  0  0  0  0  0  0  0  0  0  0  0
    2.7554  -49.0185  -21.4512 C   0  0  0  0  0  0  0  0  0  0  0  0
    1.3996  -49.7153  -21.6888 C   0  0  0  0  0  0  0  0  0  0  0  0
    1.7234  -50.5812  -22.8286 C   0  0  0  0  0  0  0  0  0  0  0  0
    3.0542  -51.2004  -22.3716 C   0  0  0  0  0  0  0  0  0  0  0  0
    6.9935  -49.1606  -20.1203 C   0  0  0  0  0  0  0  0  0  0  0  0
    5.6538  -48.8174  -20.7637 C   0  0  0  0  0  0  0  0  0  0  0  0
   -0.7302  -52.6454  -26.5194 C   0  0  0  0  0  0  0  0  0  0  0  0
   -2.0116  -52.3367  -26.8995 C   0  0  0  0  0  0  0  0  0  0  0  0
   -2.4012  -52.3464  -28.2268 C   0  0  0  0  0  0  0  0  0  0  0  0
   -1.4934  -52.6719  -29.2040 C   0  0  0  0  0  0  0  0  0  0  0  0
   -0.1946  -52.9869  -28.8435 C   0  0  0  0  0  0  0  0  0  0  0  0
    0.7360  -53.3152  -29.7749 F   0  0  0  0  0  0  0  0  0  0  0  0
    0.1779  -52.9704  -27.4926 C   0  0  0  0  0  0  0  0  0  0  0  0
    0.2993  -53.3305  -18.8399 N   0  0  0  0  0  0  0  0  0  0  0  0
    0.9074  -54.0924  -18.4168 H   0  0  0  0  0  0  0  0  0  0  0  0
   -0.1108  -52.2988  -18.0110 C   0  0  0  0  0  0  0  0  0  0  0  0
    0.5986  -51.0861  -18.1334 C   0  0  0  0  0  0  0  0  0  0  0  0
    0.2690  -50.0306  -17.3410 C   0  0  0  0  0  0  0  0  0  0  0  0
   -0.7793  -50.1284  -16.3904 C   0  0  0  0  0  0  0  0  0  0  0  0
   -1.4765  -51.2940  -16.2596 C   0  0  0  0  0  0  0  0  0  0  0  0
   -2.6209  -51.5067  -15.3270 C   0  0  0  0  0  0  0  0  0  0  0  0
   -1.1243  -52.3760  -17.0837 C   0  0  0  0  0  0  0  0  0  0  0  0
   -1.0314  -49.0091  -15.5849 N   0  0  0  0  0  0  0  0  0  0  0  0
    0.1074  -48.4702  -14.7937 C   0  0  0  0  0  0  0  0  0  0  0  0
   -0.1770  -47.0150  -14.4944 C   0  0  0  0  0  0  0  0  0  0  0  0
   -1.3248  -46.9292  -13.6033 N   0  0  0  0  0  0  0  0  0  0  0  0
   -1.9434  -45.6389  -13.8151 C   0  0  0  0  0  0  0  0  0  0  0  0
   -2.2849  -47.9628  -13.8655 C   0  0  0  0  0  0  0  0  0  0  0  0
   -2.2674  -48.3292  -15.3777 C   0  0  0  0  0  0  0  0  0  0  0  0
 19 20  1  0  0  0
 20 12  1  0  0  0
 12 13  2  0  0  0
 12 14  1  0  0  0
 14 15  1  0  0  0
 15 16  1  0  0  0
 16 17  1  0  0  0
 17 18  1  0  0  0
 17  1  1  0  0  0
  1  2  1  0  0  0
  2  3  2  0  0  0
  2  4  1  0  0  0
  4  5  1  0  0  0
  5  6  1  0  0  0
  6  7  2  0  0  0
  7  8  1  0  0  0
  8  9  2  0  0  0
  9 28  1  0  0  0
 28 30  1  0  0  0
 30 31  2  0  0  0
 31 32  1  0  0  0
 32 33  2  0  0  0
 33 37  1  0  0  0
 37 38  1  0  0  0
 38 39  1  0  0  0
 39 40  1  0  0  0
 40 41  1  0  0  0
 40 42  1  0  0  0
 42 43  1  0  0  0
 33 34  1  0  0  0
 34 35  1  0  0  0
 34 36  2  0  0  0
  9 10  1  0  0  0
 10 11  2  0  0  0
  4 21  1  0  0  0
 21 22  2  0  0  0
 22 23  1  0  0  0
 23 24  2  0  0  0
 24 25  1  0  0  0
 25 26  1  0  0  0
 25 27  2  0  0  0
 18 14  1  0  0  0
 11  1  1  0  0  0
 27 21  1  0  0  0
 11  6  1  0  0  0
 36 30  1  0  0  0
 43 37  1  0  0  0
 28 29  1  0  0  0
M  END
> <minimizedAffinity>
-9.91351

> <CNNscore>
0.6241205931

> <CNNaffinity>
7.9460282326

> <CNN_VS>
4.9592800140

> <CNNaffinity_variance>
0.1603189558

$$$$
[H]c1nc(N([H])c2c([H])c([H])c(N3C([H])([H])C([H])([H])N(C([H])([H])[H])C([H])([H])C3([H])[H])c(C([H])([H])[H])c2[H])nc2c1C([H])([H])N(c1c([H])c([H])c([H])c(F)c1[H])C(=O)N2[C@]1([H])C([H])([H])N(C(=O)C([H])([H])C([H])([H])[H])C([H])([H])C1([H])[H]


 43 48  0  0  0  0  0  0  0  0999 V2000
    1.3473  -51.7319  -21.3965 N   0  0  0  0  0  0  0  0  0  0  0  0
    1.6411  -51.7953  -22.8085 C   0  0  0  0  0  0  0  0  0  0  0  0
    2.5447  -51.0615  -23.3234 O   0  0  0  0  0  0  0  0  0  0  0  0
    0.9416  -52.6694  -23.6730 N   0  0  0  0  0  0  0  0  0  0  0  0
   -0.0684  -53.5788  -23.1779 C   0  0  0  0  0  0  0  0  0  0  0  0
   -0.3573  -53.4455  -21.7533 C   0  0  0  0  0  0  0  0  0  0  0  0
   -1.3612  -54.2232  -21.2105 C   0  0  0  0  0  0  0  0  0  0  0  0
   -1.6253  -54.1116  -19.9081 N   0  0  0  0  0  0  0  0  0  0  0  0
   -0.9854  -53.2964  -19.0797 C   0  0  0  0  0  0  0  0  0  0  0  0
    0.0003  -52.5453  -19.6576 N   0  0  0  0  0  0  0  0  0  0  0  0
    0.3216  -52.5954  -20.9316 C   0  0  0  0  0  0  0  0  0  0  0  0
    3.6524  -50.3538  -17.3423 C   0  0  0  0  0  0  0  0  0  0  0  0
    3.9302  -51.4617  -16.7965 O   0  0  0  0  0  0  0  0  0  0  0  0
    2.9231  -50.2514  -18.5516 N   0  0  0  0  0  0  0  0  0  0  0  0
    2.5819  -49.0385  -19.2211 C   0  0  0  0  0  0  0  0  0  0  0  0
    1.5508  -49.5066  -20.2689 C   0  0  0  0  0  0  0  0  0  0  0  0
    2.1072  -50.8100  -20.6496 C   0  0  0  0  0  0  0  0  0  0  0  0
    2.4227  -51.4195  -19.2740 C   0  0  0  0  0  0  0  0  0  0  0  0
    3.2185  -48.7816  -15.4829 C   0  0  0  0  0  0  0  0  0  0  0  0
    4.1236  -49.1121  -16.6653 C   0  0  0  0  0  0  0  0  0  0  0  0
    1.1857  -52.6994  -25.0637 C   0  0  0  0  0  0  0  0  0  0  0  0
    2.2404  -52.0094  -25.6051 C   0  0  0  0  0  0  0  0  0  0  0  0
    2.4991  -52.0207  -26.9640 C   0  0  0  0  0  0  0  0  0  0  0  0
    1.6876  -52.7366  -27.8090 C   0  0  0  0  0  0  0  0  0  0  0  0
    0.6172  -53.4405  -27.2846 C   0  0  0  0  0  0  0  0  0  0  0  0
   -0.2114  -54.1613  -28.0817 F   0  0  0  0  0  0  0  0  0  0  0  0
    0.3744  -53.4150  -25.9047 C   0  0  0  0  0  0  0  0  0  0  0  0
   -1.2530  -53.1448  -17.6909 N   0  0  0  0  0  0  0  0  0  0  0  0
   -1.4525  -54.0308  -17.1393 H   0  0  0  0  0  0  0  0  0  0  0  0
   -1.2825  -51.9400  -17.0073 C   0  0  0  0  0  0  0  0  0  0  0  0
   -0.2273  -51.0454  -17.2821 C   0  0  0  0  0  0  0  0  0  0  0  0
   -0.1743  -49.8488  -16.6371 C   0  0  0  0  0  0  0  0  0  0  0  0
   -1.1649  -49.4834  -15.6899 C   0  0  0  0  0  0  0  0  0  0  0  0
   -2.1931  -50.3365  -15.4129 C   0  0  0  0  0  0  0  0  0  0  0  0
   -3.3121  -50.0503  -14.4693 C   0  0  0  0  0  0  0  0  0  0  0  0
   -2.2344  -51.5693  -16.0856 C   0  0  0  0  0  0  0  0  0  0  0  0
   -1.0175  -48.2502  -15.0398 N   0  0  0  0  0  0  0  0  0  0  0  0
   -2.0012  -47.1845  -15.3717 C   0  0  0  0  0  0  0  0  0  0  0  0
   -2.0522  -46.2159  -14.2110 C   0  0  0  0  0  0  0  0  0  0  0  0
   -0.7739  -45.5267  -14.1114 N   0  0  0  0  0  0  0  0  0  0  0  0
   -0.6100  -45.1125  -12.7352 C   0  0  0  0  0  0  0  0  0  0  0  0
    0.3221  -46.3743  -14.4841 C   0  0  0  0  0  0  0  0  0  0  0  0
   -0.0043  -47.8514  -14.1194 C   0  0  0  0  0  0  0  0  0  0  0  0
 19 20  1  0  0  0
 20 12  1  0  0  0
 12 13  2  0  0  0
 12 14  1  0  0  0
 14 15  1  0  0  0
 15 16  1  0  0  0
 16 17  1  0  0  0
 17 18  1  0  0  0
 17  1  1  0  0  0
  1  2  1  0  0  0
  2  3  2  0  0  0
  2  4  1  0  0  0
  4  5  1  0  0  0
  5  6  1  0  0  0
  6  7  2  0  0  0
  7  8  1  0  0  0
  8  9  2  0  0  0
  9 28  1  0  0  0
 28 30  1  0  0  0
 30 31  2  0  0  0
 31 32  1  0  0  0
 32 33  2  0  0  0
 33 37  1  0  0  0
 37 38  1  0  0  0
 38 39  1  0  0  0
 39 40  1  0  0  0
 40 41  1  0  0  0
 40 42  1  0  0  0
 42 43  1  0  0  0
 33 34  1  0  0  0
 34 35  1  0  0  0
 34 36  2  0  0  0
  9 10  1  0  0  0
 10 11  2  0  0  0
  4 21  1  0  0  0
 21 22  2  0  0  0
 22 23  1  0  0  0
 23 24  2  0  0  0
 24 25  1  0  0  0
 25 26  1  0  0  0
 25 27  2  0  0  0
 18 14  1  0  0  0
 11  1  1  0  0  0
 27 21  1  0  0  0
 11  6  1  0  0  0
 36 30  1  0  0  0
 43 37  1  0  0  0
 28 29  1  0  0  0
M  END
> <minimizedAffinity>
-8.92097

> <CNNscore>
0.5653443336

> <CNNaffinity>
7.5763473511

> <CNN_VS>
4.2832450867

> <CNNaffinity_variance>
0.0991744995

$$$$
[H]c1nc(N([H])c2c([H])c([H])c(N3C([H])([H])C([H])([H])N(C([H])([H])[H])C([H])([H])C3([H])[H])c(C([H])([H])[H])c2[H])nc2c1C([H])([H])N(c1c([H])c([H])c([H])c(F)c1[H])C(=O)N2[C@]1([H])C([H])([H])N(C(=O)C([H])([H])C([H])([H])[H])C([H])([H])C1([H])[H]


 43 48  0  0  0  0  0  0  0  0999 V2000
    1.3642  -51.4184  -18.7497 N   0  0  0  0  0  0  0  0  0  0  0  0
    1.0146  -51.1923  -17.3674 C   0  0  0  0  0  0  0  0  0  0  0  0
    1.7597  -50.4923  -16.6091 O   0  0  0  0  0  0  0  0  0  0  0  0
   -0.1625  -51.7357  -16.8017 N   0  0  0  0  0  0  0  0  0  0  0  0
   -1.0997  -52.5034  -17.5920 C   0  0  0  0  0  0  0  0  0  0  0  0
   -0.6796  -52.7388  -18.9699 C   0  0  0  0  0  0  0  0  0  0  0  0
   -1.4788  -53.5260  -19.7755 C   0  0  0  0  0  0  0  0  0  0  0  0
   -1.1045  -53.7390  -21.0376 N   0  0  0  0  0  0  0  0  0  0  0  0
   -0.0037  -53.2432  -21.5879 C   0  0  0  0  0  0  0  0  0  0  0  0
    0.7582  -52.4701  -20.7562 N   0  0  0  0  0  0  0  0  0  0  0  0
    0.4602  -52.2127  -19.5017 C   0  0  0  0  0  0  0  0  0  0  0  0
    3.8567  -47.9986  -21.1459 C   0  0  0  0  0  0  0  0  0  0  0  0
    3.0469  -47.0257  -21.1532 O   0  0  0  0  0  0  0  0  0  0  0  0
    3.5414  -49.2600  -20.5854 N   0  0  0  0  0  0  0  0  0  0  0  0
    4.4069  -50.3934  -20.5393 C   0  0  0  0  0  0  0  0  0  0  0  0
    3.4537  -51.5328  -20.1230 C   0  0  0  0  0  0  0  0  0  0  0  0
    2.5695  -50.8323  -19.1844 C   0  0  0  0  0  0  0  0  0  0  0  0
    2.2481  -49.5499  -19.9690 C   0  0  0  0  0  0  0  0  0  0  0  0
    6.0217  -46.8266  -20.9075 C   0  0  0  0  0  0  0  0  0  0  0  0
    5.1982  -47.7863  -21.7603 C   0  0  0  0  0  0  0  0  0  0  0  0
   -0.4848  -51.5640  -15.4376 C   0  0  0  0  0  0  0  0  0  0  0  0
    0.2008  -52.2457  -14.4643 C   0  0  0  0  0  0  0  0  0  0  0  0
   -0.0975  -52.0969  -13.1217 C   0  0  0  0  0  0  0  0  0  0  0  0
   -1.1047  -51.2480  -12.7346 C   0  0  0  0  0  0  0  0  0  0  0  0
   -1.8099  -50.5497  -13.6996 C   0  0  0  0  0  0  0  0  0  0  0  0
   -2.8134  -49.7004  -13.3635 F   0  0  0  0  0  0  0  0  0  0  0  0
   -1.4903  -50.7159  -15.0540 C   0  0  0  0  0  0  0  0  0  0  0  0
    0.4291  -53.4637  -22.9248 N   0  0  0  0  0  0  0  0  0  0  0  0
    0.0779  -54.3437  -23.4058 H   0  0  0  0  0  0  0  0  0  0  0  0
    1.2739  -52.6313  -23.6412 C   0  0  0  0  0  0  0  0  0  0  0  0
    1.3520  -51.2955  -23.1957 C   0  0  0  0  0  0  0  0  0  0  0  0
    2.1452  -50.4105  -23.8578 C   0  0  0  0  0  0  0  0  0  0  0  0
    2.8978  -50.8088  -24.9923 C   0  0  0  0  0  0  0  0  0  0  0  0
    2.8346  -52.0975  -25.4361 C   0  0  0  0  0  0  0  0  0  0  0  0
    3.6061  -52.6444  -26.5895 C   0  0  0  0  0  0  0  0  0  0  0  0
    2.0105  -53.0001  -24.7433 C   0  0  0  0  0  0  0  0  0  0  0  0
    3.6601  -49.8282  -25.6422 N   0  0  0  0  0  0  0  0  0  0  0  0
    4.8975  -49.3646  -24.9586 C   0  0  0  0  0  0  0  0  0  0  0  0
    5.8327  -48.8080  -26.0090 C   0  0  0  0  0  0  0  0  0  0  0  0
    5.2456  -47.6030  -26.5767 N   0  0  0  0  0  0  0  0  0  0  0  0
    5.7814  -47.4460  -27.9111 C   0  0  0  0  0  0  0  0  0  0  0  0
    3.8151  -47.6865  -26.6481 C   0  0  0  0  0  0  0  0  0  0  0  0
    3.3825  -49.1642  -26.8731 C   0  0  0  0  0  0  0  0  0  0  0  0
 19 20  1  0  0  0
 20 12  1  0  0  0
 12 13  2  0  0  0
 12 14  1  0  0  0
 14 15  1  0  0  0
 15 16  1  0  0  0
 16 17  1  0  0  0
 17 18  1  0  0  0
 17  1  1  0  0  0
  1  2  1  0  0  0
  2  3  2  0  0  0
  2  4  1  0  0  0
  4  5  1  0  0  0
  5  6  1  0  0  0
  6  7  2  0  0  0
  7  8  1  0  0  0
  8  9  2  0  0  0
  9 28  1  0  0  0
 28 30  1  0  0  0
 30 31  2  0  0  0
 31 32  1  0  0  0
 32 33  2  0  0  0
 33 37  1  0  0  0
 37 38  1  0  0  0
 38 39  1  0  0  0
 39 40  1  0  0  0
 40 41  1  0  0  0
 40 42  1  0  0  0
 42 43  1  0  0  0
 33 34  1  0  0  0
 34 35  1  0  0  0
 34 36  2  0  0  0
  9 10  1  0  0  0
 10 11  2  0  0  0
  4 21  1  0  0  0
 21 22  2  0  0  0
 22 23  1  0  0  0
 23 24  2  0  0  0
 24 25  1  0  0  0
 25 26  1  0  0  0
 25 27  2  0  0  0
 18 14  1  0  0  0
 11  1  1  0  0  0
 27 21  1  0  0  0
 11  6  1  0  0  0
 36 30  1  0  0  0
 43 37  1  0  0  0
 28 29  1  0  0  0
M  END
> <minimizedAffinity>
-7.68148

> <CNNscore>
0.2712708712

> <CNNaffinity>
7.2956147194

> <CNN_VS>
1.9790877104

> <CNNaffinity_variance>
0.1085051149

$$$$
[H]c1nc(N([H])c2c([H])c([H])c(N3C([H])([H])C([H])([H])N(C([H])([H])[H])C([H])([H])C3([H])[H])c(C([H])([H])[H])c2[H])nc2c1C([H])([H])N(c1c([H])c([H])c([H])c(F)c1[H])C(=O)N2[C@]1([H])C([H])([H])N(C(=O)C([H])([H])C([H])([H])[H])C([H])([H])C1([H])[H]


 43 48  0  0  0  0  0  0  0  0999 V2000
    1.0351  -51.6138  -21.5206 N   0  0  0  0  0  0  0  0  0  0  0  0
    0.8968  -51.8401  -22.9397 C   0  0  0  0  0  0  0  0  0  0  0  0
    1.6835  -51.2841  -23.7716 O   0  0  0  0  0  0  0  0  0  0  0  0
   -0.1121  -52.6831  -23.4613 N   0  0  0  0  0  0  0  0  0  0  0  0
   -1.0243  -53.3994  -22.5970 C   0  0  0  0  0  0  0  0  0  0  0  0
   -0.8702  -53.1037  -21.1759 C   0  0  0  0  0  0  0  0  0  0  0  0
   -1.7489  -53.6868  -20.2841 C   0  0  0  0  0  0  0  0  0  0  0  0
   -1.6091  -53.4266  -18.9836 N   0  0  0  0  0  0  0  0  0  0  0  0
   -0.6735  -52.6367  -18.4726 C   0  0  0  0  0  0  0  0  0  0  0  0
    0.1747  -52.0805  -19.3895 N   0  0  0  0  0  0  0  0  0  0  0  0
    0.1041  -52.2854  -20.6864 C   0  0  0  0  0  0  0  0  0  0  0  0
    3.5304  -47.4599  -21.9303 C   0  0  0  0  0  0  0  0  0  0  0  0
    2.6766  -46.6783  -22.4430 O   0  0  0  0  0  0  0  0  0  0  0  0
    3.2647  -48.8251  -21.6652 N   0  0  0  0  0  0  0  0  0  0  0  0
    4.1772  -49.7564  -21.0859 C   0  0  0  0  0  0  0  0  0  0  0  0
    3.4795  -51.1112  -21.3266 C   0  0  0  0  0  0  0  0  0  0  0  0
    2.0723  -50.7421  -21.1337 C   0  0  0  0  0  0  0  0  0  0  0  0
    1.9793  -49.4529  -21.9658 C   0  0  0  0  0  0  0  0  0  0  0  0
    4.7409  -45.4333  -21.1918 C   0  0  0  0  0  0  0  0  0  0  0  0
    4.8704  -46.8978  -21.5978 C   0  0  0  0  0  0  0  0  0  0  0  0
   -0.2880  -52.8678  -24.8503 C   0  0  0  0  0  0  0  0  0  0  0  0
   -0.9456  -51.9293  -25.6044 C   0  0  0  0  0  0  0  0  0  0  0  0
   -1.1330  -52.0881  -26.9657 C   0  0  0  0  0  0  0  0  0  0  0  0
   -0.6546  -53.2102  -27.5959 C   0  0  0  0  0  0  0  0  0  0  0  0
    0.0121  -54.1705  -26.8547 C   0  0  0  0  0  0  0  0  0  0  0  0
    0.5014  -55.2953  -27.4350 F   0  0  0  0  0  0  0  0  0  0  0  0
    0.1907  -53.9884  -25.4767 C   0  0  0  0  0  0  0  0  0  0  0  0
   -0.5078  -52.3290  -17.0937 N   0  0  0  0  0  0  0  0  0  0  0  0
   -0.2219  -53.1271  -16.4531 H   0  0  0  0  0  0  0  0  0  0  0  0
   -0.6970  -51.0808  -16.5229 C   0  0  0  0  0  0  0  0  0  0  0  0
    0.3564  -50.1576  -16.6878 C   0  0  0  0  0  0  0  0  0  0  0  0
    0.2553  -48.9163  -16.1404 C   0  0  0  0  0  0  0  0  0  0  0  0
   -0.8948  -48.5325  -15.4043 C   0  0  0  0  0  0  0  0  0  0  0  0
   -1.9235  -49.4129  -15.2360 C   0  0  0  0  0  0  0  0  0  0  0  0
   -3.1967  -49.1145  -14.5185 C   0  0  0  0  0  0  0  0  0  0  0  0
   -1.8049  -50.6916  -15.8057 C   0  0  0  0  0  0  0  0  0  0  0  0
   -0.9052  -47.2497  -14.8391 N   0  0  0  0  0  0  0  0  0  0  0  0
   -0.1790  -47.0669  -13.5536 C   0  0  0  0  0  0  0  0  0  0  0  0
    0.1913  -45.6057  -13.4282 C   0  0  0  0  0  0  0  0  0  0  0  0
   -1.0249  -44.8185  -13.2855 N   0  0  0  0  0  0  0  0  0  0  0  0
   -0.7398  -43.4869  -13.7732 C   0  0  0  0  0  0  0  0  0  0  0  0
   -2.1139  -45.3743  -14.0363 C   0  0  0  0  0  0  0  0  0  0  0  0
   -1.5703  -46.0805  -15.3119 C   0  0  0  0  0  0  0  0  0  0  0  0
 19 20  1  0  0  0
 20 12  1  0  0  0
 12 13  2  0  0  0
 12 14  1  0  0  0
 14 15  1  0  0  0
 15 16  1  0  0  0
 16 17  1  0  0  0
 17 18  1  0  0  0
 17  1  1  0  0  0
  1  2  1  0  0  0
  2  3  2  0  0  0
  2  4  1  0  0  0
  4  5  1  0  0  0
  5  6  1  0  0  0
  6  7  2  0  0  0
  7  8  1  0  0  0
  8  9  2  0  0  0
  9 28  1  0  0  0
 28 30  1  0  0  0
 30 31  2  0  0  0
 31 32  1  0  0  0
 32 33  2  0  0  0
 33 37  1  0  0  0
 37 38  1  0  0  0
 38 39  1  0  0  0
 39 40  1  0  0  0
 40 41  1  0  0  0
 40 42  1  0  0  0
 42 43  1  0  0  0
 33 34  1  0  0  0
 34 35  1  0  0  0
 34 36  2  0  0  0
  9 10  1  0  0  0
 10 11  2  0  0  0
  4 21  1  0  0  0
 21 22  2  0  0  0
 22 23  1  0  0  0
 23 24  2  0  0  0
 24 25  1  0  0  0
 25 26  1  0  0  0
 25 27  2  0  0  0
 18 14  1  0  0  0
 11  1  1  0  0  0
 27 21  1  0  0  0
 11  6  1  0  0  0
 36 30  1  0  0  0
 43 37  1  0  0  0
 28 29  1  0  0  0
M  END
> <minimizedAffinity>
-8.69690

> <CNNscore>
0.2164721042

> <CNNaffinity>
7.3605437279

> <CNN_VS>
1.5933524370

> <CNNaffinity_variance>
0.0378613137

$$$$
[H]c1nc(N([H])c2c([H])c([H])c(N3C([H])([H])C([H])([H])N(C([H])([H])[H])C([H])([H])C3([H])[H])c(C([H])([H])[H])c2[H])nc2c1C([H])([H])N(c1c([H])c([H])c([H])c(F)c1[H])C(=O)N2[C@]1([H])C([H])([H])N(C(=O)C([H])([H])C([H])([H])[H])C([H])([H])C1([H])[H]


 43 48  0  0  0  0  0  0  0  0999 V2000
    0.8392  -51.0106  -21.5883 N   0  0  0  0  0  0  0  0  0  0  0  0
    0.7721  -51.3895  -22.9798 C   0  0  0  0  0  0  0  0  0  0  0  0
    1.4109  -50.7386  -23.8676 O   0  0  0  0  0  0  0  0  0  0  0  0
   -0.0013  -52.4923  -23.4116 N   0  0  0  0  0  0  0  0  0  0  0  0
   -0.7239  -53.3253  -22.4756 C   0  0  0  0  0  0  0  0  0  0  0  0
   -0.6582  -52.8753  -21.0886 C   0  0  0  0  0  0  0  0  0  0  0  0
   -1.3804  -53.5691  -20.1375 C   0  0  0  0  0  0  0  0  0  0  0  0
   -1.3188  -53.1676  -18.8672 N   0  0  0  0  0  0  0  0  0  0  0  0
   -0.6039  -52.1348  -18.4403 C   0  0  0  0  0  0  0  0  0  0  0  0
    0.0954  -51.4765  -19.4137 N   0  0  0  0  0  0  0  0  0  0  0  0
    0.0878  -51.8076  -20.6861 C   0  0  0  0  0  0  0  0  0  0  0  0
    5.0000  -48.9548  -20.1356 C   0  0  0  0  0  0  0  0  0  0  0  0
    5.8560  -49.8445  -20.4155 O   0  0  0  0  0  0  0  0  0  0  0  0
    3.6103  -49.1297  -20.3427 N   0  0  0  0  0  0  0  0  0  0  0  0
    2.5956  -48.1688  -20.0552 C   0  0  0  0  0  0  0  0  0  0  0  0
    1.2992  -48.9966  -20.1751 C   0  0  0  0  0  0  0  0  0  0  0  0
    1.6345  -49.8855  -21.2936 C   0  0  0  0  0  0  0  0  0  0  0  0
    3.0420  -50.3580  -20.8951 C   0  0  0  0  0  0  0  0  0  0  0  0
    6.3812  -46.9508  -20.5761 C   0  0  0  0  0  0  0  0  0  0  0  0
    5.4981  -47.6719  -19.5628 C   0  0  0  0  0  0  0  0  0  0  0  0
   -0.1150  -52.8372  -24.7763 C   0  0  0  0  0  0  0  0  0  0  0  0
   -0.4864  -51.9007  -25.7073 C   0  0  0  0  0  0  0  0  0  0  0  0
   -0.6075  -52.2141  -27.0492 C   0  0  0  0  0  0  0  0  0  0  0  0
   -0.3532  -53.4931  -27.4788 C   0  0  0  0  0  0  0  0  0  0  0  0
    0.0231  -54.4546  -26.5568 C   0  0  0  0  0  0  0  0  0  0  0  0
    0.2838  -55.7313  -26.9356 F   0  0  0  0  0  0  0  0  0  0  0  0
    0.1396  -54.1144  -25.2023 C   0  0  0  0  0  0  0  0  0  0  0  0
   -0.5293  -51.6741  -17.0966 N   0  0  0  0  0  0  0  0  0  0  0  0
   -1.3029  -51.9844  -16.4374 H   0  0  0  0  0  0  0  0  0  0  0  0
    0.4613  -50.8512  -16.5853 C   0  0  0  0  0  0  0  0  0  0  0  0
    0.2055  -49.4654  -16.6406 C   0  0  0  0  0  0  0  0  0  0  0  0
    1.1374  -48.5900  -16.1759 C   0  0  0  0  0  0  0  0  0  0  0  0
    2.3660  -49.0479  -15.6348 C   0  0  0  0  0  0  0  0  0  0  0  0
    2.6293  -50.3852  -15.5729 C   0  0  0  0  0  0  0  0  0  0  0  0
    3.8636  -50.9887  -14.9924 C   0  0  0  0  0  0  0  0  0  0  0  0
    1.6583  -51.2776  -16.0575 C   0  0  0  0  0  0  0  0  0  0  0  0
    3.2898  -48.0812  -15.2134 N   0  0  0  0  0  0  0  0  0  0  0  0
    4.1548  -47.4669  -16.2563 C   0  0  0  0  0  0  0  0  0  0  0  0
    4.6134  -46.1175  -15.7495 C   0  0  0  0  0  0  0  0  0  0  0  0
    5.4906  -46.3137  -14.6045 N   0  0  0  0  0  0  0  0  0  0  0  0
    5.4177  -45.1191  -13.7920 C   0  0  0  0  0  0  0  0  0  0  0  0
    5.0977  -47.4465  -13.8166 C   0  0  0  0  0  0  0  0  0  0  0  0
    3.5540  -47.6295  -13.8872 C   0  0  0  0  0  0  0  0  0  0  0  0
 19 20  1  0  0  0
 20 12  1  0  0  0
 12 13  2  0  0  0
 12 14  1  0  0  0
 14 15  1  0  0  0
 15 16  1  0  0  0
 16 17  1  0  0  0
 17 18  1  0  0  0
 17  1  1  0  0  0
  1  2  1  0  0  0
  2  3  2  0  0  0
  2  4  1  0  0  0
  4  5  1  0  0  0
  5  6  1  0  0  0
  6  7  2  0  0  0
  7  8  1  0  0  0
  8  9  2  0  0  0
  9 28  1  0  0  0
 28 30  1  0  0  0
 30 31  2  0  0  0
 31 32  1  0  0  0
 32 33  2  0  0  0
 33 37  1  0  0  0
 37 38  1  0  0  0
 38 39  1  0  0  0
 39 40  1  0  0  0
 40 41  1  0  0  0
 40 42  1  0  0  0
 42 43  1  0  0  0
 33 34  1  0  0  0
 34 35  1  0  0  0
 34 36  2  0  0  0
  9 10  1  0  0  0
 10 11  2  0  0  0
  4 21  1  0  0  0
 21 22  2  0  0  0
 22 23  1  0  0  0
 23 24  2  0  0  0
 24 25  1  0  0  0
 25 26  1  0  0  0
 25 27  2  0  0  0
 18 14  1  0  0  0
 11  1  1  0  0  0
 27 21  1  0  0  0
 11  6  1  0  0  0
 36 30  1  0  0  0
 43 37  1  0  0  0
 28 29  1  0  0  0
M  END
> <minimizedAffinity>
-8.44981

> <CNNscore>
0.1549497098

> <CNNaffinity>
7.0272789001

> <CNN_VS>
1.0888748169

> <CNNaffinity_variance>
0.1232482791

$$$$
[H]c1nc(N([H])c2c([H])c([H])c(N3C([H])([H])C([H])([H])N(C([H])([H])[H])C([H])([H])C3([H])[H])c(C([H])([H])[H])c2[H])nc2c1C([H])([H])N(c1c([H])c([H])c([H])c(F)c1[H])C(=O)N2[C@]1([H])C([H])([H])N(C(=O)C([H])([H])C([H])([H])[H])C([H])([H])C1([H])[H]


 43 48  0  0  0  0  0  0  0  0999 V2000
    2.0444  -50.1231  -18.0827 N   0  0  0  0  0  0  0  0  0  0  0  0
    2.2252  -49.1209  -17.0596 C   0  0  0  0  0  0  0  0  0  0  0  0
    3.1918  -48.2946  -17.1153 O   0  0  0  0  0  0  0  0  0  0  0  0
    1.3419  -49.0161  -15.9597 N   0  0  0  0  0  0  0  0  0  0  0  0
    0.1855  -49.8753  -15.8308 C   0  0  0  0  0  0  0  0  0  0  0  0
    0.0719  -50.8974  -16.8667 C   0  0  0  0  0  0  0  0  0  0  0  0
   -0.9618  -51.8092  -16.7800 C   0  0  0  0  0  0  0  0  0  0  0  0
   -1.0756  -52.7411  -17.7272 N   0  0  0  0  0  0  0  0  0  0  0  0
   -0.2573  -52.8606  -18.7646 C   0  0  0  0  0  0  0  0  0  0  0  0
    0.7512  -51.9385  -18.8121 N   0  0  0  0  0  0  0  0  0  0  0  0
    0.9330  -50.9903  -17.9195 C   0  0  0  0  0  0  0  0  0  0  0  0
    3.5715  -48.8724  -22.5272 C   0  0  0  0  0  0  0  0  0  0  0  0
    2.9083  -47.8188  -22.7569 O   0  0  0  0  0  0  0  0  0  0  0  0
    3.4218  -49.6349  -21.3435 N   0  0  0  0  0  0  0  0  0  0  0  0
    4.1393  -50.8251  -21.0204 C   0  0  0  0  0  0  0  0  0  0  0  0
    3.3607  -51.3728  -19.8063 C   0  0  0  0  0  0  0  0  0  0  0  0
    3.0017  -50.1282  -19.1166 C   0  0  0  0  0  0  0  0  0  0  0  0
    2.4827  -49.2727  -20.2836 C   0  0  0  0  0  0  0  0  0  0  0  0
    3.9335  -49.1938  -24.9527 C   0  0  0  0  0  0  0  0  0  0  0  0
    4.5492  -49.3135  -23.5623 C   0  0  0  0  0  0  0  0  0  0  0  0
    1.5420  -48.0737  -14.9272 C   0  0  0  0  0  0  0  0  0  0  0  0
    2.3946  -48.3440  -13.8871 C   0  0  0  0  0  0  0  0  0  0  0  0
    2.6056  -47.4389  -12.8625 C   0  0  0  0  0  0  0  0  0  0  0  0
    1.9514  -46.2318  -12.8705 C   0  0  0  0  0  0  0  0  0  0  0  0
    1.0861  -45.9376  -13.9102 C   0  0  0  0  0  0  0  0  0  0  0  0
    0.4179  -44.7576  -13.9592 F   0  0  0  0  0  0  0  0  0  0  0  0
    0.8880  -46.8697  -14.9378 C   0  0  0  0  0  0  0  0  0  0  0  0
   -0.3441  -53.8510  -19.7820 N   0  0  0  0  0  0  0  0  0  0  0  0
   -0.4518  -54.8594  -19.4645 H   0  0  0  0  0  0  0  0  0  0  0  0
   -0.2909  -53.6068  -21.1447 C   0  0  0  0  0  0  0  0  0  0  0  0
   -0.9696  -54.5300  -21.9669 C   0  0  0  0  0  0  0  0  0  0  0  0
   -0.9487  -54.3705  -23.3177 C   0  0  0  0  0  0  0  0  0  0  0  0
   -0.2541  -53.2883  -23.9162 C   0  0  0  0  0  0  0  0  0  0  0  0
    0.4070  -52.3854  -23.1356 C   0  0  0  0  0  0  0  0  0  0  0  0
    1.1378  -51.1883  -23.6431 C   0  0  0  0  0  0  0  0  0  0  0  0
    0.3779  -52.5632  -21.7422 C   0  0  0  0  0  0  0  0  0  0  0  0
   -0.2475  -53.2162  -25.3162 N   0  0  0  0  0  0  0  0  0  0  0  0
    0.7003  -54.1067  -26.0387 C   0  0  0  0  0  0  0  0  0  0  0  0
    0.1689  -54.3190  -27.4389 C   0  0  0  0  0  0  0  0  0  0  0  0
    0.2178  -53.0564  -28.1617 N   0  0  0  0  0  0  0  0  0  0  0  0
   -0.7982  -53.1051  -29.1901 C   0  0  0  0  0  0  0  0  0  0  0  0
   -0.0337  -51.9364  -27.3009 C   0  0  0  0  0  0  0  0  0  0  0  0
   -1.0068  -52.3541  -26.1608 C   0  0  0  0  0  0  0  0  0  0  0  0
 19 20  1  0  0  0
 20 12  1  0  0  0
 12 13  2  0  0  0
 12 14  1  0  0  0
 14 15  1  0  0  0
 15 16  1  0  0  0
 16 17  1  0  0  0
 17 18  1  0  0  0
 17  1  1  0  0  0
  1  2  1  0  0  0
  2  3  2  0  0  0
  2  4  1  0  0  0
  4  5  1  0  0  0
  5  6  1  0  0  0
  6  7  2  0  0  0
  7  8  1  0  0  0
  8  9  2  0  0  0
  9 28  1  0  0  0
 28 30  1  0  0  0
 30 31  2  0  0  0
 31 32  1  0  0  0
 32 33  2  0  0  0
 33 37  1  0  0  0
 37 38  1  0  0  0
 38 39  1  0  0  0
 39 40  1  0  0  0
 40 41  1  0  0  0
 40 42  1  0  0  0
 42 43  1  0  0  0
 33 34  1  0  0  0
 34 35  1  0  0  0
 34 36  2  0  0  0
  9 10  1  0  0  0
 10 11  2  0  0  0
  4 21  1  0  0  0
 21 22  2  0  0  0
 22 23  1  0  0  0
 23 24  2  0  0  0
 24 25  1  0  0  0
 25 26  1  0  0  0
 25 27  2  0  0  0
 18 14  1  0  0  0
 11  1  1  0  0  0
 27 21  1  0  0  0
 11  6  1  0  0  0
 36 30  1  0  0  0
 43 37  1  0  0  0
 28 29  1  0  0  0
M  END
> <minimizedAffinity>
-9.00512

> <CNNscore>
0.1539394408

> <CNNaffinity>
7.1976423264

> <CNN_VS>
1.1080009937

> <CNNaffinity_variance>
0.0979861766

$$$$
[H]Oc1c([H])c([H])c(C(=O)OC([H])([H])[H])c([H])c1-c1nc(N([H])C([H])([H])c2c([H])nc([H])c([H])c2[H])c2c([H])c([H])c([H])c([H])c2n1


 31 34  0  0  0  0  0  0  0  0999 V2000
   -0.2464  -53.0993  -24.2588 C   0  0  0  0  0  0  0  0  0  0  0  0
    1.0343  -53.2435  -24.7108 N   0  0  0  0  0  0  0  0  0  0  0  0
    1.3688  -53.2046  -26.0174 C   0  0  0  0  0  0  0  0  0  0  0  0
    0.3781  -53.0105  -26.9471 C   0  0  0  0  0  0  0  0  0  0  0  0
    0.6531  -52.9616  -28.2803 C   0  0  0  0  0  0  0  0  0  0  0  0
   -0.3574  -52.7633  -29.2321 C   0  0  0  0  0  0  0  0  0  0  0  0
   -1.6535  -52.6156  -28.7985 C   0  0  0  0  0  0  0  0  0  0  0  0
   -1.9023  -52.6683  -27.4591 C   0  0  0  0  0  0  0  0  0  0  0  0
   -0.9407  -52.8606  -26.4985 C   0  0  0  0  0  0  0  0  0  0  0  0
   -1.1610  -52.9150  -25.1927 N   0  0  0  0  0  0  0  0  0  0  0  0
   -0.1019  -52.1446  -20.6518 C   0  0  0  0  0  0  0  0  0  0  0  0
   -0.8170  -53.1779  -20.0711 C   0  0  0  0  0  0  0  0  0  0  0  0
   -1.3579  -54.1933  -20.7996 C   0  0  0  0  0  0  0  0  0  0  0  0
   -1.1679  -54.1692  -22.2037 C   0  0  0  0  0  0  0  0  0  0  0  0
   -1.7190  -55.1959  -22.9068 O   0  0  0  0  0  0  0  0  0  0  0  0
   -0.4653  -53.1625  -22.8182 C   0  0  0  0  0  0  0  0  0  0  0  0
    0.0604  -52.1557  -22.0103 C   0  0  0  0  0  0  0  0  0  0  0  0
   -1.7991  -55.5028  -23.7962 H   0  0  0  0  0  0  0  0  0  0  0  0
    0.4494  -51.0877  -19.8011 C   0  0  0  0  0  0  0  0  0  0  0  0
    0.0618  -50.9432  -18.6160 O   0  0  0  0  0  0  0  0  0  0  0  0
    1.1673  -48.8761  -20.5930 C   0  0  0  0  0  0  0  0  0  0  0  0
    1.4152  -50.2141  -20.2745 O   0  0  0  0  0  0  0  0  0  0  0  0
    2.7207  -53.3640  -26.3863 N   0  0  0  0  0  0  0  0  0  0  0  0
    3.1138  -54.2722  -26.6555 H   0  0  0  0  0  0  0  0  0  0  0  0
    3.5850  -52.1939  -26.3789 C   0  0  0  0  0  0  0  0  0  0  0  0
    3.8595  -51.7466  -25.0100 C   0  0  0  0  0  0  0  0  0  0  0  0
    4.5262  -52.5083  -24.1040 C   0  0  0  0  0  0  0  0  0  0  0  0
    4.7462  -52.0196  -22.8230 C   0  0  0  0  0  0  0  0  0  0  0  0
    4.2834  -50.7656  -22.4898 C   0  0  0  0  0  0  0  0  0  0  0  0
    3.6251  -50.0347  -23.4132 N   0  0  0  0  0  0  0  0  0  0  0  0
    3.3981  -50.4776  -24.6535 C   0  0  0  0  0  0  0  0  0  0  0  0
 21 22  1  0  0  0
 22 19  1  0  0  0
 19 20  2  0  0  0
 19 11  1  0  0  0
 11 12  2  0  0  0
 12 13  1  0  0  0
 13 14  2  0  0  0
 14 15  1  0  0  0
 14 16  1  0  0  0
 16 17  2  0  0  0
 16  1  1  0  0  0
  1  2  2  0  0  0
  2  3  1  0  0  0
  3 23  1  0  0  0
 23 25  1  0  0  0
 25 26  1  0  0  0
 26 27  2  0  0  0
 27 28  1  0  0  0
 28 29  2  0  0  0
 29 30  1  0  0  0
 30 31  2  0  0  0
  3  4  2  0  0  0
  4  5  1  0  0  0
  5  6  2  0  0  0
  6  7  1  0  0  0
  7  8  2  0  0  0
  8  9  1  0  0  0
  9 10  2  0  0  0
 17 11  1  0  0  0
 10  1  1  0  0  0
 31 26  1  0  0  0
  9  4  1  0  0  0
 15 18  1  0  0  0
 23 24  1  0  0  0
M  END
> <minimizedAffinity>
-8.95897

> <CNNscore>
0.7788056731

> <CNNaffinity>
6.9213647842

> <CNN_VS>
5.3903980255

> <CNNaffinity_variance>
0.0852547511

$$$$
[H]Oc1c([H])c([H])c(C(=O)OC([H])([H])[H])c([H])c1-c1nc(N([H])C([H])([H])c2c([H])nc([H])c([H])c2[H])c2c([H])c([H])c([H])c([H])c2n1


 31 34  0  0  0  0  0  0  0  0999 V2000
   -0.0614  -53.2210  -24.4099 C   0  0  0  0  0  0  0  0  0  0  0  0
    1.2056  -53.2406  -24.9194 N   0  0  0  0  0  0  0  0  0  0  0  0
    1.4789  -53.1070  -26.2339 C   0  0  0  0  0  0  0  0  0  0  0  0
    0.4366  -52.9425  -27.1116 C   0  0  0  0  0  0  0  0  0  0  0  0
    0.6487  -52.8023  -28.4498 C   0  0  0  0  0  0  0  0  0  0  0  0
   -0.4145  -52.6341  -29.3485 C   0  0  0  0  0  0  0  0  0  0  0  0
   -1.6980  -52.6114  -28.8565 C   0  0  0  0  0  0  0  0  0  0  0  0
   -1.8834  -52.7537  -27.5134 C   0  0  0  0  0  0  0  0  0  0  0  0
   -0.8690  -52.9203  -26.6037 C   0  0  0  0  0  0  0  0  0  0  0  0
   -1.0273  -53.0602  -25.2952 N   0  0  0  0  0  0  0  0  0  0  0  0
    0.4313  -52.6307  -20.7559 C   0  0  0  0  0  0  0  0  0  0  0  0
   -0.4162  -53.5812  -20.2131 C   0  0  0  0  0  0  0  0  0  0  0  0
   -1.1580  -54.4249  -20.9825 C   0  0  0  0  0  0  0  0  0  0  0  0
   -1.0408  -54.3062  -22.3898 C   0  0  0  0  0  0  0  0  0  0  0  0
   -1.7932  -55.1617  -23.1343 O   0  0  0  0  0  0  0  0  0  0  0  0
   -0.2118  -53.3768  -22.9675 C   0  0  0  0  0  0  0  0  0  0  0  0
    0.5178  -52.5461  -22.1188 C   0  0  0  0  0  0  0  0  0  0  0  0
   -1.9705  -55.3702  -24.0380 H   0  0  0  0  0  0  0  0  0  0  0  0
    1.1968  -51.7589  -19.8623 C   0  0  0  0  0  0  0  0  0  0  0  0
    0.6747  -50.7386  -19.3504 O   0  0  0  0  0  0  0  0  0  0  0  0
    3.6076  -51.5359  -20.2774 C   0  0  0  0  0  0  0  0  0  0  0  0
    2.5198  -52.0303  -19.5525 O   0  0  0  0  0  0  0  0  0  0  0  0
    2.8216  -53.1404  -26.6642 N   0  0  0  0  0  0  0  0  0  0  0  0
    3.0972  -53.5180  -27.5770 H   0  0  0  0  0  0  0  0  0  0  0  0
    3.8490  -52.6223  -25.7742 C   0  0  0  0  0  0  0  0  0  0  0  0
    3.6614  -51.1897  -25.5256 C   0  0  0  0  0  0  0  0  0  0  0  0
    3.3399  -50.3061  -26.5062 C   0  0  0  0  0  0  0  0  0  0  0  0
    3.1818  -48.9617  -26.1965 C   0  0  0  0  0  0  0  0  0  0  0  0
    3.3541  -48.5436  -24.8952 C   0  0  0  0  0  0  0  0  0  0  0  0
    3.6730  -49.4469  -23.9451 N   0  0  0  0  0  0  0  0  0  0  0  0
    3.8318  -50.7467  -24.2121 C   0  0  0  0  0  0  0  0  0  0  0  0
 21 22  1  0  0  0
 22 19  1  0  0  0
 19 20  2  0  0  0
 19 11  1  0  0  0
 11 12  2  0  0  0
 12 13  1  0  0  0
 13 14  2  0  0  0
 14 15  1  0  0  0
 14 16  1  0  0  0
 16 17  2  0  0  0
 16  1  1  0  0  0
  1  2  2  0  0  0
  2  3  1  0  0  0
  3 23  1  0  0  0
 23 25  1  0  0  0
 25 26  1  0  0  0
 26 27  2  0  0  0
 27 28  1  0  0  0
 28 29  2  0  0  0
 29 30  1  0  0  0
 30 31  2  0  0  0
  3  4  2  0  0  0
  4  5  1  0  0  0
  5  6  2  0  0  0
  6  7  1  0  0  0
  7  8  2  0  0  0
  8  9  1  0  0  0
  9 10  2  0  0  0
 17 11  1  0  0  0
 10  1  1  0  0  0
 31 26  1  0  0  0
  9  4  1  0  0  0
 15 18  1  0  0  0
 23 24  1  0  0  0
M  END
> <minimizedAffinity>
-8.82253

> <CNNscore>
0.6558954120

> <CNNaffinity>
6.7196273804

> <CNN_VS>
4.4073729515

> <CNNaffinity_variance>
0.1397941411

$$$$
[H]Oc1c([H])c([H])c(C(=O)OC([H])([H])[H])c([H])c1-c1nc(N([H])C([H])([H])c2c([H])nc([H])c([H])c2[H])c2c([H])c([H])c([H])c([H])c2n1


 31 34  0  0  0  0  0  0  0  0999 V2000
   -0.2345  -53.1550  -24.3960 C   0  0  0  0  0  0  0  0  0  0  0  0
    1.0728  -53.1891  -24.7898 N   0  0  0  0  0  0  0  0  0  0  0  0
    1.4620  -53.1013  -26.0787 C   0  0  0  0  0  0  0  0  0  0  0  0
    0.5020  -52.9707  -27.0509 C   0  0  0  0  0  0  0  0  0  0  0  0
    0.8323  -52.8773  -28.3690 C   0  0  0  0  0  0  0  0  0  0  0  0
   -0.1466  -52.7438  -29.3641 C   0  0  0  0  0  0  0  0  0  0  0  0
   -1.4688  -52.7072  -28.9893 C   0  0  0  0  0  0  0  0  0  0  0  0
   -1.7730  -52.8026  -27.6638 C   0  0  0  0  0  0  0  0  0  0  0  0
   -0.8436  -52.9341  -26.6622 C   0  0  0  0  0  0  0  0  0  0  0  0
   -1.1177  -53.0282  -25.3689 N   0  0  0  0  0  0  0  0  0  0  0  0
   -0.2845  -52.2792  -20.7665 C   0  0  0  0  0  0  0  0  0  0  0  0
   -0.9818  -53.3530  -20.2401 C   0  0  0  0  0  0  0  0  0  0  0  0
   -1.4493  -54.3718  -21.0133 C   0  0  0  0  0  0  0  0  0  0  0  0
   -1.2000  -54.3078  -22.4069 C   0  0  0  0  0  0  0  0  0  0  0  0
   -1.6783  -55.3388  -23.1554 O   0  0  0  0  0  0  0  0  0  0  0  0
   -0.5127  -53.2602  -22.9681 C   0  0  0  0  0  0  0  0  0  0  0  0
   -0.0634  -52.2524  -22.1165 C   0  0  0  0  0  0  0  0  0  0  0  0
   -1.7075  -55.6279  -24.0539 H   0  0  0  0  0  0  0  0  0  0  0  0
    0.1864  -51.2214  -19.8699 C   0  0  0  0  0  0  0  0  0  0  0  0
    0.7102  -50.1746  -20.3235 O   0  0  0  0  0  0  0  0  0  0  0  0
    0.4030  -50.3250  -17.5932 C   0  0  0  0  0  0  0  0  0  0  0  0
    0.0699  -51.3400  -18.4943 O   0  0  0  0  0  0  0  0  0  0  0  0
    2.8377  -53.1462  -26.3865 N   0  0  0  0  0  0  0  0  0  0  0  0
    3.1960  -53.5870  -27.2403 H   0  0  0  0  0  0  0  0  0  0  0  0
    3.7780  -52.5467  -25.4523 C   0  0  0  0  0  0  0  0  0  0  0  0
    3.6405  -51.0874  -25.4252 C   0  0  0  0  0  0  0  0  0  0  0  0
    3.3772  -50.3499  -26.5353 C   0  0  0  0  0  0  0  0  0  0  0  0
    3.2644  -48.9696  -26.4338 C   0  0  0  0  0  0  0  0  0  0  0  0
    3.4215  -48.3677  -25.2046 C   0  0  0  0  0  0  0  0  0  0  0  0
    3.6821  -49.1292  -24.1218 N   0  0  0  0  0  0  0  0  0  0  0  0
    3.7965  -50.4591  -24.1878 C   0  0  0  0  0  0  0  0  0  0  0  0
 21 22  1  0  0  0
 22 19  1  0  0  0
 19 20  2  0  0  0
 19 11  1  0  0  0
 11 12  2  0  0  0
 12 13  1  0  0  0
 13 14  2  0  0  0
 14 15  1  0  0  0
 14 16  1  0  0  0
 16 17  2  0  0  0
 16  1  1  0  0  0
  1  2  2  0  0  0
  2  3  1  0  0  0
  3 23  1  0  0  0
 23 25  1  0  0  0
 25 26  1  0  0  0
 26 27  2  0  0  0
 27 28  1  0  0  0
 28 29  2  0  0  0
 29 30  1  0  0  0
 30 31  2  0  0  0
  3  4  2  0  0  0
  4  5  1  0  0  0
  5  6  2  0  0  0
  6  7  1  0  0  0
  7  8  2  0  0  0
  8  9  1  0  0  0
  9 10  2  0  0  0
 17 11  1  0  0  0
 10  1  1  0  0  0
 31 26  1  0  0  0
  9  4  1  0  0  0
 15 18  1  0  0  0
 23 24  1  0  0  0
M  END
> <minimizedAffinity>
-8.82317

> <CNNscore>
0.6197131276

> <CNNaffinity>
6.6872773170

> <CNN_VS>
4.1441936493

> <CNNaffinity_variance>
0.1423078477

$$$$
[H]Oc1c([H])c([H])c(C(=O)OC([H])([H])[H])c([H])c1-c1nc(N([H])C([H])([H])c2c([H])nc([H])c([H])c2[H])c2c([H])c([H])c([H])c([H])c2n1


 31 34  0  0  0  0  0  0  0  0999 V2000
    0.2403  -52.0692  -21.1398 C   0  0  0  0  0  0  0  0  0  0  0  0
   -0.0882  -52.1962  -19.8203 N   0  0  0  0  0  0  0  0  0  0  0  0
    0.2965  -51.3170  -18.8719 C   0  0  0  0  0  0  0  0  0  0  0  0
    1.0570  -50.2364  -19.2428 C   0  0  0  0  0  0  0  0  0  0  0  0
    1.4757  -49.3146  -18.3317 C   0  0  0  0  0  0  0  0  0  0  0  0
    2.2527  -48.2097  -18.7082 C   0  0  0  0  0  0  0  0  0  0  0  0
    2.5945  -48.0627  -20.0316 C   0  0  0  0  0  0  0  0  0  0  0  0
    2.1629  -48.9989  -20.9237 C   0  0  0  0  0  0  0  0  0  0  0  0
    1.4018  -50.0925  -20.5932 C   0  0  0  0  0  0  0  0  0  0  0  0
    0.9722  -51.0135  -21.4439 N   0  0  0  0  0  0  0  0  0  0  0  0
   -0.3025  -53.9395  -24.3258 C   0  0  0  0  0  0  0  0  0  0  0  0
   -1.1024  -54.9829  -23.8924 C   0  0  0  0  0  0  0  0  0  0  0  0
   -1.4866  -55.1195  -22.5932 C   0  0  0  0  0  0  0  0  0  0  0  0
   -1.0378  -54.1440  -21.6684 C   0  0  0  0  0  0  0  0  0  0  0  0
   -1.4366  -54.3050  -20.3773 O   0  0  0  0  0  0  0  0  0  0  0  0
   -0.2433  -53.0942  -22.0579 C   0  0  0  0  0  0  0  0  0  0  0  0
    0.1111  -53.0172  -23.4036 C   0  0  0  0  0  0  0  0  0  0  0  0
   -1.3456  -53.8886  -19.5347 H   0  0  0  0  0  0  0  0  0  0  0  0
    0.0688  -53.8606  -25.7402 C   0  0  0  0  0  0  0  0  0  0  0  0
    1.2516  -54.0596  -26.1105 O   0  0  0  0  0  0  0  0  0  0  0  0
   -0.5495  -53.0773  -27.9847 C   0  0  0  0  0  0  0  0  0  0  0  0
   -0.8706  -53.5645  -26.7148 O   0  0  0  0  0  0  0  0  0  0  0  0
   -0.0929  -51.5343  -17.5338 N   0  0  0  0  0  0  0  0  0  0  0  0
    0.2571  -50.9605  -16.7593 H   0  0  0  0  0  0  0  0  0  0  0  0
   -1.0225  -52.6162  -17.2482 C   0  0  0  0  0  0  0  0  0  0  0  0
   -2.1951  -52.1278  -16.5162 C   0  0  0  0  0  0  0  0  0  0  0  0
   -3.4194  -52.7089  -16.6111 C   0  0  0  0  0  0  0  0  0  0  0  0
   -4.4861  -52.1883  -15.8904 C   0  0  0  0  0  0  0  0  0  0  0  0
   -4.2853  -51.0869  -15.0876 C   0  0  0  0  0  0  0  0  0  0  0  0
   -3.0568  -50.5339  -15.0155 N   0  0  0  0  0  0  0  0  0  0  0  0
   -2.0112  -51.0119  -15.6969 C   0  0  0  0  0  0  0  0  0  0  0  0
 21 22  1  0  0  0
 22 19  1  0  0  0
 19 20  2  0  0  0
 19 11  1  0  0  0
 11 12  2  0  0  0
 12 13  1  0  0  0
 13 14  2  0  0  0
 14 15  1  0  0  0
 14 16  1  0  0  0
 16 17  2  0  0  0
 16  1  1  0  0  0
  1  2  2  0  0  0
  2  3  1  0  0  0
  3 23  1  0  0  0
 23 25  1  0  0  0
 25 26  1  0  0  0
 26 27  2  0  0  0
 27 28  1  0  0  0
 28 29  2  0  0  0
 29 30  1  0  0  0
 30 31  2  0  0  0
  3  4  2  0  0  0
  4  5  1  0  0  0
  5  6  2  0  0  0
  6  7  1  0  0  0
  7  8  2  0  0  0
  8  9  1  0  0  0
  9 10  2  0  0  0
 17 11  1  0  0  0
 10  1  1  0  0  0
 31 26  1  0  0  0
  9  4  1  0  0  0
 15 18  1  0  0  0
 23 24  1  0  0  0
M  END
> <minimizedAffinity>
-8.76125

> <CNNscore>
0.6148073077

> <CNNaffinity>
6.4898042679

> <CNN_VS>
3.9899790287

> <CNNaffinity_variance>
0.2344177663

$$$$
[H]Oc1c([H])c([H])c(C(=O)OC([H])([H])[H])c([H])c1-c1nc(N([H])C([H])([H])c2c([H])nc([H])c([H])c2[H])c2c([H])c([H])c([H])c([H])c2n1


 31 34  0  0  0  0  0  0  0  0999 V2000
   -0.0898  -52.2595  -24.3557 C   0  0  0  0  0  0  0  0  0  0  0  0
    0.9648  -52.7695  -25.0579 N   0  0  0  0  0  0  0  0  0  0  0  0
    0.9017  -53.0819  -26.3689 C   0  0  0  0  0  0  0  0  0  0  0  0
   -0.2786  -52.8802  -27.0397 C   0  0  0  0  0  0  0  0  0  0  0  0
   -0.4043  -53.1759  -28.3633 C   0  0  0  0  0  0  0  0  0  0  0  0
   -1.6091  -52.9707  -29.0509 C   0  0  0  0  0  0  0  0  0  0  0  0
   -2.6832  -52.4581  -28.3629 C   0  0  0  0  0  0  0  0  0  0  0  0
   -2.5316  -52.1704  -27.0389 C   0  0  0  0  0  0  0  0  0  0  0  0
   -1.3694  -52.3574  -26.3326 C   0  0  0  0  0  0  0  0  0  0  0  0
   -1.2009  -52.0846  -25.0466 N   0  0  0  0  0  0  0  0  0  0  0  0
   -0.4258  -52.5033  -20.6448 C   0  0  0  0  0  0  0  0  0  0  0  0
    0.4342  -51.5009  -20.2303 C   0  0  0  0  0  0  0  0  0  0  0  0
    1.1356  -50.7298  -21.1065 C   0  0  0  0  0  0  0  0  0  0  0  0
    0.9616  -50.9821  -22.4901 C   0  0  0  0  0  0  0  0  0  0  0  0
    1.6745  -50.1969  -23.3430 O   0  0  0  0  0  0  0  0  0  0  0  0
    0.1184  -51.9668  -22.9421 C   0  0  0  0  0  0  0  0  0  0  0  0
   -0.5676  -52.7173  -21.9888 C   0  0  0  0  0  0  0  0  0  0  0  0
    1.8124  -50.0741  -24.2690 H   0  0  0  0  0  0  0  0  0  0  0  0
   -1.1455  -53.2907  -19.6415 C   0  0  0  0  0  0  0  0  0  0  0  0
   -2.0184  -54.1269  -19.9797 O   0  0  0  0  0  0  0  0  0  0  0  0
   -1.8585  -52.7977  -17.3431 C   0  0  0  0  0  0  0  0  0  0  0  0
   -0.8876  -53.1396  -18.2885 O   0  0  0  0  0  0  0  0  0  0  0  0
    2.0457  -53.6040  -27.0075 N   0  0  0  0  0  0  0  0  0  0  0  0
    2.1809  -54.6095  -27.1575 H   0  0  0  0  0  0  0  0  0  0  0  0
    3.0696  -52.6772  -27.4644 C   0  0  0  0  0  0  0  0  0  0  0  0
    3.6790  -51.9635  -26.3380 C   0  0  0  0  0  0  0  0  0  0  0  0
    4.3390  -52.5962  -25.3332 C   0  0  0  0  0  0  0  0  0  0  0  0
    4.8877  -51.8541  -24.2958 C   0  0  0  0  0  0  0  0  0  0  0  0
    4.7538  -50.4830  -24.3018 C   0  0  0  0  0  0  0  0  0  0  0  0
    4.0924  -49.8857  -25.3148 N   0  0  0  0  0  0  0  0  0  0  0  0
    3.5537  -50.5726  -26.3266 C   0  0  0  0  0  0  0  0  0  0  0  0
 21 22  1  0  0  0
 22 19  1  0  0  0
 19 20  2  0  0  0
 19 11  1  0  0  0
 11 12  2  0  0  0
 12 13  1  0  0  0
 13 14  2  0  0  0
 14 15  1  0  0  0
 14 16  1  0  0  0
 16 17  2  0  0  0
 16  1  1  0  0  0
  1  2  2  0  0  0
  2  3  1  0  0  0
  3 23  1  0  0  0
 23 25  1  0  0  0
 25 26  1  0  0  0
 26 27  2  0  0  0
 27 28  1  0  0  0
 28 29  2  0  0  0
 29 30  1  0  0  0
 30 31  2  0  0  0
  3  4  2  0  0  0
  4  5  1  0  0  0
  5  6  2  0  0  0
  6  7  1  0  0  0
  7  8  2  0  0  0
  8  9  1  0  0  0
  9 10  2  0  0  0
 17 11  1  0  0  0
 10  1  1  0  0  0
 31 26  1  0  0  0
  9  4  1  0  0  0
 15 18  1  0  0  0
 23 24  1  0  0  0
M  END
> <minimizedAffinity>
-7.76638

> <CNNscore>
0.4608795047

> <CNNaffinity>
6.5789918900

> <CNN_VS>
3.0321226120

> <CNNaffinity_variance>
0.2533074021

$$$$
[H]Oc1c([H])c([H])c(C(=O)OC([H])([H])[H])c([H])c1-c1nc(N([H])C([H])([H])c2c([H])nc([H])c([H])c2[H])c2c([H])c([H])c([H])c([H])c2n1


 31 34  0  0  0  0  0  0  0  0999 V2000
    0.8016  -53.1012  -23.6090 C   0  0  0  0  0  0  0  0  0  0  0  0
    2.0996  -52.6801  -23.6648 N   0  0  0  0  0  0  0  0  0  0  0  0
    2.8053  -52.6010  -24.8120 C   0  0  0  0  0  0  0  0  0  0  0  0
    2.1958  -52.9600  -25.9882 C   0  0  0  0  0  0  0  0  0  0  0  0
    2.8558  -52.9016  -27.1783 C   0  0  0  0  0  0  0  0  0  0  0  0
    2.2353  -53.2677  -28.3813 C   0  0  0  0  0  0  0  0  0  0  0  0
    0.9290  -53.6944  -28.3476 C   0  0  0  0  0  0  0  0  0  0  0  0
    0.2907  -53.7437  -27.1439 C   0  0  0  0  0  0  0  0  0  0  0  0
    0.8643  -53.3939  -25.9468 C   0  0  0  0  0  0  0  0  0  0  0  0
    0.2622  -53.4344  -24.7668 N   0  0  0  0  0  0  0  0  0  0  0  0
   -0.0280  -52.1663  -20.0903 C   0  0  0  0  0  0  0  0  0  0  0  0
   -0.9922  -53.1103  -19.7812 C   0  0  0  0  0  0  0  0  0  0  0  0
   -1.4003  -54.0576  -20.6703 C   0  0  0  0  0  0  0  0  0  0  0  0
   -0.8004  -54.0566  -21.9542 C   0  0  0  0  0  0  0  0  0  0  0  0
   -1.2270  -55.0139  -22.8224 O   0  0  0  0  0  0  0  0  0  0  0  0
    0.1591  -53.1376  -22.3000 C   0  0  0  0  0  0  0  0  0  0  0  0
    0.5283  -52.1971  -21.3400 C   0  0  0  0  0  0  0  0  0  0  0  0
   -1.0725  -55.3103  -23.7055 H   0  0  0  0  0  0  0  0  0  0  0  0
    0.3583  -51.1789  -19.0801 C   0  0  0  0  0  0  0  0  0  0  0  0
    0.9670  -50.1291  -19.4013 O   0  0  0  0  0  0  0  0  0  0  0  0
   -0.1393  -50.3282  -16.8301 C   0  0  0  0  0  0  0  0  0  0  0  0
    0.0654  -51.3697  -17.7393 O   0  0  0  0  0  0  0  0  0  0  0  0
    4.1422  -52.1539  -24.7678 N   0  0  0  0  0  0  0  0  0  0  0  0
    4.5618  -51.5996  -25.5218 H   0  0  0  0  0  0  0  0  0  0  0  0
    4.9515  -52.4982  -23.6091 C   0  0  0  0  0  0  0  0  0  0  0  0
    5.1824  -51.3275  -22.7572 C   0  0  0  0  0  0  0  0  0  0  0  0
    5.8463  -50.2223  -23.1853 C   0  0  0  0  0  0  0  0  0  0  0  0
    6.0308  -49.1520  -22.3201 C   0  0  0  0  0  0  0  0  0  0  0  0
    5.5357  -49.2279  -21.0367 C   0  0  0  0  0  0  0  0  0  0  0  0
    4.8808  -50.3399  -20.6433 N   0  0  0  0  0  0  0  0  0  0  0  0
    4.6876  -51.3857  -21.4525 C   0  0  0  0  0  0  0  0  0  0  0  0
 21 22  1  0  0  0
 22 19  1  0  0  0
 19 20  2  0  0  0
 19 11  1  0  0  0
 11 12  2  0  0  0
 12 13  1  0  0  0
 13 14  2  0  0  0
 14 15  1  0  0  0
 14 16  1  0  0  0
 16 17  2  0  0  0
 16  1  1  0  0  0
  1  2  2  0  0  0
  2  3  1  0  0  0
  3 23  1  0  0  0
 23 25  1  0  0  0
 25 26  1  0  0  0
 26 27  2  0  0  0
 27 28  1  0  0  0
 28 29  2  0  0  0
 29 30  1  0  0  0
 30 31  2  0  0  0
  3  4  2  0  0  0
  4  5  1  0  0  0
  5  6  2  0  0  0
  6  7  1  0  0  0
  7  8  2  0  0  0
  8  9  1  0  0  0
  9 10  2  0  0  0
 17 11  1  0  0  0
 10  1  1  0  0  0
 31 26  1  0  0  0
  9  4  1  0  0  0
 15 18  1  0  0  0
 23 24  1  0  0  0
M  END
> <minimizedAffinity>
-7.86000

> <CNNscore>
0.4002994299

> <CNNaffinity>
6.4643602371

> <CNN_VS>
2.5876796246

> <CNNaffinity_variance>
0.0205568559

$$$$
[H]Oc1c([H])c([H])c(C(=O)OC([H])([H])[H])c([H])c1-c1nc(N([H])C([H])([H])c2c([H])nc([H])c([H])c2[H])c2c([H])c([H])c([H])c([H])c2n1


 31 34  0  0  0  0  0  0  0  0999 V2000
    0.2987  -52.7736  -23.3282 C   0  0  0  0  0  0  0  0  0  0  0  0
    1.2023  -51.7977  -23.6389 N   0  0  0  0  0  0  0  0  0  0  0  0
    1.6857  -51.6031  -24.8834 C   0  0  0  0  0  0  0  0  0  0  0  0
    1.2529  -52.4229  -25.8955 C   0  0  0  0  0  0  0  0  0  0  0  0
    1.7041  -52.2760  -27.1723 C   0  0  0  0  0  0  0  0  0  0  0  0
    1.2634  -53.1122  -28.2081 C   0  0  0  0  0  0  0  0  0  0  0  0
    0.3538  -54.1010  -27.9170 C   0  0  0  0  0  0  0  0  0  0  0  0
   -0.0821  -54.2272  -26.6315 C   0  0  0  0  0  0  0  0  0  0  0  0
    0.3258  -53.4286  -25.5921 C   0  0  0  0  0  0  0  0  0  0  0  0
   -0.0852  -53.5342  -24.3365 N   0  0  0  0  0  0  0  0  0  0  0  0
   -0.0201  -51.9753  -19.6945 C   0  0  0  0  0  0  0  0  0  0  0  0
   -0.9013  -52.9588  -19.2792 C   0  0  0  0  0  0  0  0  0  0  0  0
   -1.4121  -53.8907  -20.1307 C   0  0  0  0  0  0  0  0  0  0  0  0
   -1.0112  -53.8308  -21.4887 C   0  0  0  0  0  0  0  0  0  0  0  0
   -1.5367  -54.7739  -22.3172 O   0  0  0  0  0  0  0  0  0  0  0  0
   -0.1395  -52.8712  -21.9404 C   0  0  0  0  0  0  0  0  0  0  0  0
    0.3435  -51.9495  -21.0132 C   0  0  0  0  0  0  0  0  0  0  0  0
   -1.5081  -55.0377  -23.2234 H   0  0  0  0  0  0  0  0  0  0  0  0
    0.4860  -51.0078  -18.7186 C   0  0  0  0  0  0  0  0  0  0  0  0
   -0.1234  -50.7960  -17.6418 O   0  0  0  0  0  0  0  0  0  0  0  0
    1.9559  -49.0771  -18.3372 C   0  0  0  0  0  0  0  0  0  0  0  0
    1.6518  -50.2956  -18.9503 O   0  0  0  0  0  0  0  0  0  0  0  0
    2.6171  -50.5675  -25.1055 N   0  0  0  0  0  0  0  0  0  0  0  0
    3.1614  -50.4940  -25.9715 H   0  0  0  0  0  0  0  0  0  0  0  0
    2.8110  -49.5726  -24.0621 C   0  0  0  0  0  0  0  0  0  0  0  0
    3.8867  -49.9668  -23.1473 C   0  0  0  0  0  0  0  0  0  0  0  0
    3.7281  -50.0169  -21.7991 C   0  0  0  0  0  0  0  0  0  0  0  0
    4.7943  -50.3960  -20.9943 C   0  0  0  0  0  0  0  0  0  0  0  0
    6.0005  -50.7165  -21.5777 C   0  0  0  0  0  0  0  0  0  0  0  0
    6.1245  -50.6566  -22.9199 N   0  0  0  0  0  0  0  0  0  0  0  0
    5.1172  -50.2955  -23.7204 C   0  0  0  0  0  0  0  0  0  0  0  0
 21 22  1  0  0  0
 22 19  1  0  0  0
 19 20  2  0  0  0
 19 11  1  0  0  0
 11 12  2  0  0  0
 12 13  1  0  0  0
 13 14  2  0  0  0
 14 15  1  0  0  0
 14 16  1  0  0  0
 16 17  2  0  0  0
 16  1  1  0  0  0
  1  2  2  0  0  0
  2  3  1  0  0  0
  3 23  1  0  0  0
 23 25  1  0  0  0
 25 26  1  0  0  0
 26 27  2  0  0  0
 27 28  1  0  0  0
 28 29  2  0  0  0
 29 30  1  0  0  0
 30 31  2  0  0  0
  3  4  2  0  0  0
  4  5  1  0  0  0
  5  6  2  0  0  0
  6  7  1  0  0  0
  7  8  2  0  0  0
  8  9  1  0  0  0
  9 10  2  0  0  0
 17 11  1  0  0  0
 10  1  1  0  0  0
 31 26  1  0  0  0
  9  4  1  0  0  0
 15 18  1  0  0  0
 23 24  1  0  0  0
M  END
> <minimizedAffinity>
-7.53251

> <CNNscore>
0.3433479965

> <CNNaffinity>
6.3865680695

> <CNN_VS>
2.1928153038

> <CNNaffinity_variance>
0.0414419845

$$$$
[H]Oc1c([H])c([H])c(C(=O)OC([H])([H])[H])c([H])c1-c1nc(N([H])C([H])([H])c2c([H])nc([H])c([H])c2[H])c2c([H])c([H])c([H])c([H])c2n1


 31 34  0  0  0  0  0  0  0  0999 V2000
   -0.0229  -52.0622  -20.2049 C   0  0  0  0  0  0  0  0  0  0  0  0
    0.5772  -50.8393  -20.3021 N   0  0  0  0  0  0  0  0  0  0  0  0
    0.7867  -50.0293  -19.2436 C   0  0  0  0  0  0  0  0  0  0  0  0
    0.3793  -50.4474  -18.0015 C   0  0  0  0  0  0  0  0  0  0  0  0
    0.5632  -49.6747  -16.8949 C   0  0  0  0  0  0  0  0  0  0  0  0
    0.1479  -50.0997  -15.6247 C   0  0  0  0  0  0  0  0  0  0  0  0
   -0.4583  -51.3276  -15.5045 C   0  0  0  0  0  0  0  0  0  0  0  0
   -0.6305  -52.0817  -16.6272 C   0  0  0  0  0  0  0  0  0  0  0  0
   -0.2378  -51.6999  -17.8859 C   0  0  0  0  0  0  0  0  0  0  0  0
   -0.3955  -52.4171  -18.9892 N   0  0  0  0  0  0  0  0  0  0  0  0
    0.3818  -53.0928  -23.7710 C   0  0  0  0  0  0  0  0  0  0  0  0
   -0.4202  -54.2201  -23.8180 C   0  0  0  0  0  0  0  0  0  0  0  0
   -1.1028  -54.6783  -22.7325 C   0  0  0  0  0  0  0  0  0  0  0  0
   -0.9714  -53.9565  -21.5200 C   0  0  0  0  0  0  0  0  0  0  0  0
   -1.6643  -54.4365  -20.4516 O   0  0  0  0  0  0  0  0  0  0  0  0
   -0.1860  -52.8340  -21.4318 C   0  0  0  0  0  0  0  0  0  0  0  0
    0.4840  -52.4224  -22.5826 C   0  0  0  0  0  0  0  0  0  0  0  0
   -1.8163  -54.2403  -19.5405 H   0  0  0  0  0  0  0  0  0  0  0  0
    1.0849  -52.6623  -24.9813 C   0  0  0  0  0  0  0  0  0  0  0  0
    0.7446  -51.6188  -25.5906 O   0  0  0  0  0  0  0  0  0  0  0  0
    3.1490  -52.8447  -26.3004 C   0  0  0  0  0  0  0  0  0  0  0  0
    2.1469  -53.3902  -25.4933 O   0  0  0  0  0  0  0  0  0  0  0  0
    1.4153  -48.7829  -19.4449 N   0  0  0  0  0  0  0  0  0  0  0  0
    0.9042  -47.8951  -19.3960 H   0  0  0  0  0  0  0  0  0  0  0  0
    2.8404  -48.7630  -19.7362 C   0  0  0  0  0  0  0  0  0  0  0  0
    3.1139  -49.2822  -21.0797 C   0  0  0  0  0  0  0  0  0  0  0  0
    2.5593  -48.7549  -22.2021 C   0  0  0  0  0  0  0  0  0  0  0  0
    2.8620  -49.3022  -23.4419 C   0  0  0  0  0  0  0  0  0  0  0  0
    3.7231  -50.3751  -23.5144 C   0  0  0  0  0  0  0  0  0  0  0  0
    4.2569  -50.8749  -22.3806 N   0  0  0  0  0  0  0  0  0  0  0  0
    3.9848  -50.3700  -21.1735 C   0  0  0  0  0  0  0  0  0  0  0  0
 21 22  1  0  0  0
 22 19  1  0  0  0
 19 20  2  0  0  0
 19 11  1  0  0  0
 11 12  2  0  0  0
 12 13  1  0  0  0
 13 14  2  0  0  0
 14 15  1  0  0  0
 14 16  1  0  0  0
 16 17  2  0  0  0
 16  1  1  0  0  0
  1  2  2  0  0  0
  2  3  1  0  0  0
  3 23  1  0  0  0
 23 25  1  0  0  0
 25 26  1  0  0  0
 26 27  2  0  0  0
 27 28  1  0  0  0
 28 29  2  0  0  0
 29 30  1  0  0  0
 30 31  2  0  0  0
  3  4  2  0  0  0
  4  5  1  0  0  0
  5  6  2  0  0  0
  6  7  1  0  0  0
  7  8  2  0  0  0
  8  9  1  0  0  0
  9 10  2  0  0  0
 17 11  1  0  0  0
 10  1  1  0  0  0
 31 26  1  0  0  0
  9  4  1  0  0  0
 15 18  1  0  0  0
 23 24  1  0  0  0
M  END
> <minimizedAffinity>
-7.80754

> <CNNscore>
0.3284955025

> <CNNaffinity>
6.0989098549

> <CNN_VS>
2.0034644604

> <CNNaffinity_variance>
0.0840962902

$$$$
[H]Oc1c([H])c([H])c(C(=O)OC([H])([H])[H])c([H])c1-c1nc(N([H])C([H])([H])c2c([H])nc([H])c([H])c2[H])c2c([H])c([H])c([H])c([H])c2n1


 31 34  0  0  0  0  0  0  0  0999 V2000
    1.2042  -51.6077  -23.7564 C   0  0  0  0  0  0  0  0  0  0  0  0
    2.3241  -51.1114  -24.3602 N   0  0  0  0  0  0  0  0  0  0  0  0
    2.6675  -51.3941  -25.6340 C   0  0  0  0  0  0  0  0  0  0  0  0
    1.8557  -52.2220  -26.3684 C   0  0  0  0  0  0  0  0  0  0  0  0
    2.1489  -52.5442  -27.6590 C   0  0  0  0  0  0  0  0  0  0  0  0
    1.3211  -53.3898  -28.4114 C   0  0  0  0  0  0  0  0  0  0  0  0
    0.1886  -53.9003  -27.8227 C   0  0  0  0  0  0  0  0  0  0  0  0
   -0.0824  -53.5625  -26.5300 C   0  0  0  0  0  0  0  0  0  0  0  0
    0.7030  -52.7388  -25.7625 C   0  0  0  0  0  0  0  0  0  0  0  0
    0.4579  -52.3981  -24.5053 N   0  0  0  0  0  0  0  0  0  0  0  0
    0.0186  -51.8184  -20.2218 C   0  0  0  0  0  0  0  0  0  0  0  0
    0.4252  -50.5908  -19.7279 C   0  0  0  0  0  0  0  0  0  0  0  0
    1.0788  -49.6740  -20.4939 C   0  0  0  0  0  0  0  0  0  0  0  0
    1.3411  -50.0125  -21.8448 C   0  0  0  0  0  0  0  0  0  0  0  0
    1.9953  -49.0781  -22.5870 O   0  0  0  0  0  0  0  0  0  0  0  0
    0.9545  -51.2194  -22.3728 C   0  0  0  0  0  0  0  0  0  0  0  0
    0.2897  -52.1094  -21.5310 C   0  0  0  0  0  0  0  0  0  0  0  0
    2.3237  -48.9502  -23.4630 H   0  0  0  0  0  0  0  0  0  0  0  0
   -0.6796  -52.7520  -19.3356 C   0  0  0  0  0  0  0  0  0  0  0  0
   -1.4683  -53.6135  -19.7955 O   0  0  0  0  0  0  0  0  0  0  0  0
   -1.5314  -52.5667  -17.0391 C   0  0  0  0  0  0  0  0  0  0  0  0
   -0.4935  -52.7161  -17.9629 O   0  0  0  0  0  0  0  0  0  0  0  0
    3.8452  -50.8327  -26.1698 N   0  0  0  0  0  0  0  0  0  0  0  0
    4.4294  -51.3280  -26.8518 H   0  0  0  0  0  0  0  0  0  0  0  0
    4.2423  -49.5036  -25.7319 C   0  0  0  0  0  0  0  0  0  0  0  0
    3.8455  -48.4837  -26.7074 C   0  0  0  0  0  0  0  0  0  0  0  0
    3.0871  -47.4049  -26.3807 C   0  0  0  0  0  0  0  0  0  0  0  0
    2.7466  -46.4811  -27.3599 C   0  0  0  0  0  0  0  0  0  0  0  0
    3.1848  -46.6735  -28.6517 C   0  0  0  0  0  0  0  0  0  0  0  0
    3.9366  -47.7554  -28.9427 N   0  0  0  0  0  0  0  0  0  0  0  0
    4.2804  -48.6615  -28.0226 C   0  0  0  0  0  0  0  0  0  0  0  0
 21 22  1  0  0  0
 22 19  1  0  0  0
 19 20  2  0  0  0
 19 11  1  0  0  0
 11 12  2  0  0  0
 12 13  1  0  0  0
 13 14  2  0  0  0
 14 15  1  0  0  0
 14 16  1  0  0  0
 16 17  2  0  0  0
 16  1  1  0  0  0
  1  2  2  0  0  0
  2  3  1  0  0  0
  3 23  1  0  0  0
 23 25  1  0  0  0
 25 26  1  0  0  0
 26 27  2  0  0  0
 27 28  1  0  0  0
 28 29  2  0  0  0
 29 30  1  0  0  0
 30 31  2  0  0  0
  3  4  2  0  0  0
  4  5  1  0  0  0
  5  6  2  0  0  0
  6  7  1  0  0  0
  7  8  2  0  0  0
  8  9  1  0  0  0
  9 10  2  0  0  0
 17 11  1  0  0  0
 10  1  1  0  0  0
 31 26  1  0  0  0
  9  4  1  0  0  0
 15 18  1  0  0  0
 23 24  1  0  0  0
M  END
> <minimizedAffinity>
-7.56892

> <CNNscore>
0.3165694177

> <CNNaffinity>
6.3211617470

> <CNN_VS>
2.0010864735

> <CNNaffinity_variance>
0.6913005114

$$$$
[H]C([H])=C([H])C(=O)N([H])c1c([H])c(N([H])c2nc([H])c([H])c(-c3c([H])n(C([H])([H])[H])c4c([H])c([H])c([H])c([H])c34)n2)c(OC([H])([H])[H])c([H])c1N1C([H])([H])C([H])([H])N(C([H])([H])[H])C([H])([H])C1([H])[H]


 39 43  0  0  0  0  0  0  0  0999 V2000
   -1.3863  -52.5469  -17.4765 C   0  0  0  0  0  0  0  0  0  0  0  0
   -0.8118  -51.6824  -16.6158 C   0  0  0  0  0  0  0  0  0  0  0  0
    0.3322  -50.9352  -16.9071 C   0  0  0  0  0  0  0  0  0  0  0  0
    0.8868  -51.1166  -18.1636 C   0  0  0  0  0  0  0  0  0  0  0  0
    0.2766  -52.0261  -19.0604 C   0  0  0  0  0  0  0  0  0  0  0  0
   -0.8279  -52.7381  -18.7608 C   0  0  0  0  0  0  0  0  0  0  0  0
    0.8509  -50.0307  -15.9841 N   0  0  0  0  0  0  0  0  0  0  0  0
    0.3178  -48.6898  -15.8651 C   0  0  0  0  0  0  0  0  0  0  0  0
    0.8141  -48.0379  -14.5908 C   0  0  0  0  0  0  0  0  0  0  0  0
    2.2164  -47.9775  -14.5147 N   0  0  0  0  0  0  0  0  0  0  0  0
    2.7841  -46.7483  -15.0237 C   0  0  0  0  0  0  0  0  0  0  0  0
    2.8831  -49.0871  -15.1066 C   0  0  0  0  0  0  0  0  0  0  0  0
    1.9700  -50.3171  -15.1262 C   0  0  0  0  0  0  0  0  0  0  0  0
    2.0858  -50.4656  -18.4851 N   0  0  0  0  0  0  0  0  0  0  0  0
    3.2029  -50.9812  -19.1423 C   0  0  0  0  0  0  0  0  0  0  0  0
    3.2731  -52.1728  -19.5715 O   0  0  0  0  0  0  0  0  0  0  0  0
    2.1426  -49.4513  -18.1436 H   0  0  0  0  0  0  0  0  0  0  0  0
    4.4115  -50.1718  -19.3966 C   0  0  0  0  0  0  0  0  0  0  0  0
    4.9956  -50.2419  -20.5588 C   0  0  0  0  0  0  0  0  0  0  0  0
   -3.5564  -52.6556  -16.4235 C   0  0  0  0  0  0  0  0  0  0  0  0
   -2.5166  -53.2607  -17.1393 O   0  0  0  0  0  0  0  0  0  0  0  0
   -1.4462  -53.6480  -19.6271 N   0  0  0  0  0  0  0  0  0  0  0  0
   -2.2445  -54.2739  -19.2243 H   0  0  0  0  0  0  0  0  0  0  0  0
   -1.1792  -53.8765  -20.9903 C   0  0  0  0  0  0  0  0  0  0  0  0
   -1.6770  -54.8346  -21.7554 N   0  0  0  0  0  0  0  0  0  0  0  0
   -1.4265  -55.0344  -23.0425 C   0  0  0  0  0  0  0  0  0  0  0  0
   -0.5477  -54.1429  -23.6553 C   0  0  0  0  0  0  0  0  0  0  0  0
    0.0100  -53.1160  -22.9095 C   0  0  0  0  0  0  0  0  0  0  0  0
   -0.3175  -53.0265  -21.6484 N   0  0  0  0  0  0  0  0  0  0  0  0
    0.9408  -52.1804  -23.5752 C   0  0  0  0  0  0  0  0  0  0  0  0
    1.5409  -52.3946  -24.7924 C   0  0  0  0  0  0  0  0  0  0  0  0
    2.3324  -51.3573  -25.1145 N   0  0  0  0  0  0  0  0  0  0  0  0
    3.1430  -51.2122  -26.3333 C   0  0  0  0  0  0  0  0  0  0  0  0
    2.2522  -50.4654  -24.1135 C   0  0  0  0  0  0  0  0  0  0  0  0
    2.8653  -49.2356  -23.9392 C   0  0  0  0  0  0  0  0  0  0  0  0
    2.6268  -48.4933  -22.8072 C   0  0  0  0  0  0  0  0  0  0  0  0
    1.7613  -49.0095  -21.8550 C   0  0  0  0  0  0  0  0  0  0  0  0
    1.1501  -50.2273  -22.0215 C   0  0  0  0  0  0  0  0  0  0  0  0
    1.3872  -50.9608  -23.1418 C   0  0  0  0  0  0  0  0  0  0  0  0
 20 21  1  0  0  0
 21  1  1  0  0  0
  1  2  2  0  0  0
  2  3  1  0  0  0
  3  7  1  0  0  0
  7  8  1  0  0  0
  8  9  1  0  0  0
  9 10  1  0  0  0
 10 11  1  0  0  0
 10 12  1  0  0  0
 12 13  1  0  0  0
  3  4  2  0  0  0
  4 14  1  0  0  0
 14 15  1  0  0  0
 15 16  2  0  0  0
 15 18  1  0  0  0
 18 19  2  0  0  0
  4  5  1  0  0  0
  5  6  2  0  0  0
  6 22  1  0  0  0
 22 24  1  0  0  0
 24 25  2  0  0  0
 25 26  1  0  0  0
 26 27  2  0  0  0
 27 28  1  0  0  0
 28 29  2  0  0  0
 28 30  1  0  0  0
 30 31  2  0  0  0
 31 32  1  0  0  0
 32 33  1  0  0  0
 32 34  1  0  0  0
 34 35  2  0  0  0
 35 36  1  0  0  0
 36 37  2  0  0  0
 37 38  1  0  0  0
 38 39  2  0  0  0
  6  1  1  0  0  0
 29 24  1  0  0  0
 39 30  1  0  0  0
 13  7  1  0  0  0
 39 34  1  0  0  0
 14 17  1  0  0  0
 22 23  1  0  0  0
M  END
> <minimizedAffinity>
-8.66921

> <CNNscore>
0.9435634017

> <CNNaffinity>
7.7176980972

> <CNN_VS>
7.2821373940

> <CNNaffinity_variance>
0.0285774264

$$$$
[H]C([H])=C([H])C(=O)N([H])c1c([H])c(N([H])c2nc([H])c([H])c(-c3c([H])n(C([H])([H])[H])c4c([H])c([H])c([H])c([H])c34)n2)c(OC([H])([H])[H])c([H])c1N1C([H])([H])C([H])([H])N(C([H])([H])[H])C([H])([H])C1([H])[H]


 39 43  0  0  0  0  0  0  0  0999 V2000
    0.9138  -50.7277  -18.4132 C   0  0  0  0  0  0  0  0  0  0  0  0
    1.6599  -49.6287  -18.1815 C   0  0  0  0  0  0  0  0  0  0  0  0
    2.9077  -49.3952  -18.7648 C   0  0  0  0  0  0  0  0  0  0  0  0
    3.3802  -50.3708  -19.6275 C   0  0  0  0  0  0  0  0  0  0  0  0
    2.5898  -51.5210  -19.8649 C   0  0  0  0  0  0  0  0  0  0  0  0
    1.3873  -51.7281  -19.2924 C   0  0  0  0  0  0  0  0  0  0  0  0
    3.6081  -48.2188  -18.5107 N   0  0  0  0  0  0  0  0  0  0  0  0
    4.3134  -48.0193  -17.2621 C   0  0  0  0  0  0  0  0  0  0  0  0
    5.2500  -46.8335  -17.3710 C   0  0  0  0  0  0  0  0  0  0  0  0
    4.5893  -45.6413  -17.7148 N   0  0  0  0  0  0  0  0  0  0  0  0
    4.1769  -44.8451  -16.5799 C   0  0  0  0  0  0  0  0  0  0  0  0
    3.4850  -45.8171  -18.5955 C   0  0  0  0  0  0  0  0  0  0  0  0
    3.6483  -47.1009  -19.4156 C   0  0  0  0  0  0  0  0  0  0  0  0
    4.6641  -50.2401  -20.1744 N   0  0  0  0  0  0  0  0  0  0  0  0
    5.0197  -49.9171  -21.4840 C   0  0  0  0  0  0  0  0  0  0  0  0
    4.1746  -49.6713  -22.3973 O   0  0  0  0  0  0  0  0  0  0  0  0
    5.4598  -50.4520  -19.4883 H   0  0  0  0  0  0  0  0  0  0  0  0
    6.4279  -49.8331  -21.9208 C   0  0  0  0  0  0  0  0  0  0  0  0
    7.3762  -50.1577  -21.0889 C   0  0  0  0  0  0  0  0  0  0  0  0
   -0.4298  -50.9225  -16.4166 C   0  0  0  0  0  0  0  0  0  0  0  0
   -0.3132  -50.9099  -17.8116 O   0  0  0  0  0  0  0  0  0  0  0  0
    0.5899  -52.8592  -19.5055 N   0  0  0  0  0  0  0  0  0  0  0  0
    0.2974  -53.4484  -18.6345 H   0  0  0  0  0  0  0  0  0  0  0  0
    0.0915  -53.3605  -20.7229 C   0  0  0  0  0  0  0  0  0  0  0  0
   -0.8621  -54.2629  -20.8884 N   0  0  0  0  0  0  0  0  0  0  0  0
   -1.3317  -54.7205  -22.0414 C   0  0  0  0  0  0  0  0  0  0  0  0
   -0.7628  -54.1972  -23.2012 C   0  0  0  0  0  0  0  0  0  0  0  0
    0.2422  -53.2479  -23.0980 C   0  0  0  0  0  0  0  0  0  0  0  0
    0.6167  -52.8793  -21.9023 N   0  0  0  0  0  0  0  0  0  0  0  0
    0.8349  -52.7045  -24.3381 C   0  0  0  0  0  0  0  0  0  0  0  0
    1.5904  -51.5598  -24.4177 C   0  0  0  0  0  0  0  0  0  0  0  0
    1.9747  -51.3382  -25.6863 N   0  0  0  0  0  0  0  0  0  0  0  0
    2.7912  -50.2174  -26.1771 C   0  0  0  0  0  0  0  0  0  0  0  0
    1.4742  -52.3333  -26.4368 C   0  0  0  0  0  0  0  0  0  0  0  0
    1.5661  -52.5824  -27.7963 C   0  0  0  0  0  0  0  0  0  0  0  0
    0.9530  -53.6835  -28.3451 C   0  0  0  0  0  0  0  0  0  0  0  0
    0.2471  -54.5286  -27.5027 C   0  0  0  0  0  0  0  0  0  0  0  0
    0.1522  -54.2879  -26.1546 C   0  0  0  0  0  0  0  0  0  0  0  0
    0.7590  -53.1980  -25.6130 C   0  0  0  0  0  0  0  0  0  0  0  0
 20 21  1  0  0  0
 21  1  1  0  0  0
  1  2  2  0  0  0
  2  3  1  0  0  0
  3  7  1  0  0  0
  7  8  1  0  0  0
  8  9  1  0  0  0
  9 10  1  0  0  0
 10 11  1  0  0  0
 10 12  1  0  0  0
 12 13  1  0  0  0
  3  4  2  0  0  0
  4 14  1  0  0  0
 14 15  1  0  0  0
 15 16  2  0  0  0
 15 18  1  0  0  0
 18 19  2  0  0  0
  4  5  1  0  0  0
  5  6  2  0  0  0
  6 22  1  0  0  0
 22 24  1  0  0  0
 24 25  2  0  0  0
 25 26  1  0  0  0
 26 27  2  0  0  0
 27 28  1  0  0  0
 28 29  2  0  0  0
 28 30  1  0  0  0
 30 31  2  0  0  0
 31 32  1  0  0  0
 32 33  1  0  0  0
 32 34  1  0  0  0
 34 35  2  0  0  0
 35 36  1  0  0  0
 36 37  2  0  0  0
 37 38  1  0  0  0
 38 39  2  0  0  0
  6  1  1  0  0  0
 29 24  1  0  0  0
 39 30  1  0  0  0
 13  7  1  0  0  0
 39 34  1  0  0  0
 14 17  1  0  0  0
 22 23  1  0  0  0
M  END
> <minimizedAffinity>
-7.76662

> <CNNscore>
0.3591942191

> <CNNaffinity>
7.2796745300

> <CNN_VS>
2.6148169041

> <CNNaffinity_variance>
0.1271217465

$$$$
[H]C([H])=C([H])C(=O)N([H])c1c([H])c(N([H])c2nc([H])c([H])c(-c3c([H])n(C([H])([H])[H])c4c([H])c([H])c([H])c([H])c34)n2)c(OC([H])([H])[H])c([H])c1N1C([H])([H])C([H])([H])N(C([H])([H])[H])C([H])([H])C1([H])[H]


 39 43  0  0  0  0  0  0  0  0999 V2000
    0.8252  -51.0639  -18.8256 C   0  0  0  0  0  0  0  0  0  0  0  0
    1.4696  -49.9021  -18.5955 C   0  0  0  0  0  0  0  0  0  0  0  0
    2.7433  -49.6053  -19.0870 C   0  0  0  0  0  0  0  0  0  0  0  0
    3.3552  -50.5847  -19.8523 C   0  0  0  0  0  0  0  0  0  0  0  0
    2.6709  -51.8011  -20.0888 C   0  0  0  0  0  0  0  0  0  0  0  0
    1.4413  -52.0687  -19.6058 C   0  0  0  0  0  0  0  0  0  0  0  0
    3.3349  -48.3687  -18.8427 N   0  0  0  0  0  0  0  0  0  0  0  0
    3.2752  -47.3013  -19.8192 C   0  0  0  0  0  0  0  0  0  0  0  0
    3.6880  -45.9875  -19.1878 C   0  0  0  0  0  0  0  0  0  0  0  0
    4.9798  -46.0255  -18.6350 N   0  0  0  0  0  0  0  0  0  0  0  0
    6.0225  -45.5888  -19.5374 C   0  0  0  0  0  0  0  0  0  0  0  0
    5.3384  -47.2821  -18.0707 C   0  0  0  0  0  0  0  0  0  0  0  0
    4.0876  -48.0631  -17.6550 C   0  0  0  0  0  0  0  0  0  0  0  0
    4.6689  -50.3858  -20.2988 N   0  0  0  0  0  0  0  0  0  0  0  0
    5.2778  -50.8845  -21.4504 C   0  0  0  0  0  0  0  0  0  0  0  0
    4.6785  -51.6131  -22.2984 O   0  0  0  0  0  0  0  0  0  0  0  0
    5.2755  -49.7988  -19.6384 H   0  0  0  0  0  0  0  0  0  0  0  0
    6.6886  -50.6013  -21.7823 C   0  0  0  0  0  0  0  0  0  0  0  0
    7.3979  -49.8593  -20.9804 C   0  0  0  0  0  0  0  0  0  0  0  0
   -0.6168  -51.5457  -16.9499 C   0  0  0  0  0  0  0  0  0  0  0  0
   -0.4330  -51.3071  -18.3170 O   0  0  0  0  0  0  0  0  0  0  0  0
    0.7466  -53.2655  -19.8198 N   0  0  0  0  0  0  0  0  0  0  0  0
    0.7303  -53.9975  -19.0103 H   0  0  0  0  0  0  0  0  0  0  0  0
    0.0391  -53.6722  -20.9668 C   0  0  0  0  0  0  0  0  0  0  0  0
   -1.0883  -54.3638  -21.0105 N   0  0  0  0  0  0  0  0  0  0  0  0
   -1.7526  -54.7327  -22.0976 C   0  0  0  0  0  0  0  0  0  0  0  0
   -1.2082  -54.3532  -23.3232 C   0  0  0  0  0  0  0  0  0  0  0  0
   -0.0275  -53.6271  -23.3479 C   0  0  0  0  0  0  0  0  0  0  0  0
    0.5305  -53.3253  -22.2063 N   0  0  0  0  0  0  0  0  0  0  0  0
    0.5363  -53.2338  -24.6564 C   0  0  0  0  0  0  0  0  0  0  0  0
    0.3468  -53.9136  -25.8353 C   0  0  0  0  0  0  0  0  0  0  0  0
    0.9955  -53.3006  -26.8400 N   0  0  0  0  0  0  0  0  0  0  0  0
    1.0369  -53.7212  -28.2490 C   0  0  0  0  0  0  0  0  0  0  0  0
    1.6080  -52.2226  -26.3236 C   0  0  0  0  0  0  0  0  0  0  0  0
    2.4059  -51.2580  -26.9168 C   0  0  0  0  0  0  0  0  0  0  0  0
    2.9336  -50.2341  -26.1669 C   0  0  0  0  0  0  0  0  0  0  0  0
    2.6445  -50.1976  -24.8115 C   0  0  0  0  0  0  0  0  0  0  0  0
    1.8544  -51.1500  -24.2173 C   0  0  0  0  0  0  0  0  0  0  0  0
    1.3331  -52.1628  -24.9603 C   0  0  0  0  0  0  0  0  0  0  0  0
 20 21  1  0  0  0
 21  1  1  0  0  0
  1  2  2  0  0  0
  2  3  1  0  0  0
  3  7  1  0  0  0
  7  8  1  0  0  0
  8  9  1  0  0  0
  9 10  1  0  0  0
 10 11  1  0  0  0
 10 12  1  0  0  0
 12 13  1  0  0  0
  3  4  2  0  0  0
  4 14  1  0  0  0
 14 15  1  0  0  0
 15 16  2  0  0  0
 15 18  1  0  0  0
 18 19  2  0  0  0
  4  5  1  0  0  0
  5  6  2  0  0  0
  6 22  1  0  0  0
 22 24  1  0  0  0
 24 25  2  0  0  0
 25 26  1  0  0  0
 26 27  2  0  0  0
 27 28  1  0  0  0
 28 29  2  0  0  0
 28 30  1  0  0  0
 30 31  2  0  0  0
 31 32  1  0  0  0
 32 33  1  0  0  0
 32 34  1  0  0  0
 34 35  2  0  0  0
 35 36  1  0  0  0
 36 37  2  0  0  0
 37 38  1  0  0  0
 38 39  2  0  0  0
  6  1  1  0  0  0
 29 24  1  0  0  0
 39 30  1  0  0  0
 13  7  1  0  0  0
 39 34  1  0  0  0
 14 17  1  0  0  0
 22 23  1  0  0  0
M  END
> <minimizedAffinity>
-7.81892

> <CNNscore>
0.3427716792

> <CNNaffinity>
7.1979498863

> <CNN_VS>
2.4672534466

> <CNNaffinity_variance>
0.0930695534

$$$$
[H]C([H])=C([H])C(=O)N([H])c1c([H])c(N([H])c2nc([H])c([H])c(-c3c([H])n(C([H])([H])[H])c4c([H])c([H])c([H])c([H])c34)n2)c(OC([H])([H])[H])c([H])c1N1C([H])([H])C([H])([H])N(C([H])([H])[H])C([H])([H])C1([H])[H]


 39 43  0  0  0  0  0  0  0  0999 V2000
    1.8597  -51.9639  -20.0998 C   0  0  0  0  0  0  0  0  0  0  0  0
    2.4532  -51.3120  -21.1200 C   0  0  0  0  0  0  0  0  0  0  0  0
    1.8830  -51.1601  -22.3863 C   0  0  0  0  0  0  0  0  0  0  0  0
    0.6324  -51.7258  -22.5740 C   0  0  0  0  0  0  0  0  0  0  0  0
    0.0170  -52.4081  -21.4971 C   0  0  0  0  0  0  0  0  0  0  0  0
    0.5836  -52.5437  -20.2817 C   0  0  0  0  0  0  0  0  0  0  0  0
    2.5356  -50.4405  -23.3839 N   0  0  0  0  0  0  0  0  0  0  0  0
    3.2650  -51.1116  -24.4394 C   0  0  0  0  0  0  0  0  0  0  0  0
    3.5862  -50.1399  -25.5565 C   0  0  0  0  0  0  0  0  0  0  0  0
    4.3331  -49.0311  -25.1223 N   0  0  0  0  0  0  0  0  0  0  0  0
    5.7647  -49.1977  -25.2445 C   0  0  0  0  0  0  0  0  0  0  0  0
    4.0187  -48.5929  -23.8051 C   0  0  0  0  0  0  0  0  0  0  0  0
    2.5920  -49.0033  -23.4264 C   0  0  0  0  0  0  0  0  0  0  0  0
    0.0457  -51.6875  -23.8464 N   0  0  0  0  0  0  0  0  0  0  0  0
   -0.4613  -52.7466  -24.5994 C   0  0  0  0  0  0  0  0  0  0  0  0
   -0.4695  -53.9494  -24.1968 O   0  0  0  0  0  0  0  0  0  0  0  0
    0.0238  -50.7135  -24.2932 H   0  0  0  0  0  0  0  0  0  0  0  0
   -1.0384  -52.5524  -25.9447 C   0  0  0  0  0  0  0  0  0  0  0  0
   -0.2670  -52.1720  -26.9229 C   0  0  0  0  0  0  0  0  0  0  0  0
    3.1810  -51.0160  -18.3150 C   0  0  0  0  0  0  0  0  0  0  0  0
    2.4662  -52.0852  -18.8676 O   0  0  0  0  0  0  0  0  0  0  0  0
   -0.0011  -53.2188  -19.2031 N   0  0  0  0  0  0  0  0  0  0  0  0
    0.1372  -54.2998  -19.1427 H   0  0  0  0  0  0  0  0  0  0  0  0
   -0.7646  -52.6846  -18.1480 C   0  0  0  0  0  0  0  0  0  0  0  0
   -1.9342  -53.1172  -17.7053 N   0  0  0  0  0  0  0  0  0  0  0  0
   -2.6404  -52.6124  -16.7025 C   0  0  0  0  0  0  0  0  0  0  0  0
   -2.0952  -51.5113  -16.0445 C   0  0  0  0  0  0  0  0  0  0  0  0
   -0.8720  -51.0076  -16.4592 C   0  0  0  0  0  0  0  0  0  0  0  0
   -0.2750  -51.5952  -17.4611 N   0  0  0  0  0  0  0  0  0  0  0  0
   -0.3092  -49.8388  -15.7508 C   0  0  0  0  0  0  0  0  0  0  0  0
   -0.9047  -48.6035  -15.6664 C   0  0  0  0  0  0  0  0  0  0  0  0
   -0.1356  -47.7590  -14.9582 N   0  0  0  0  0  0  0  0  0  0  0  0
   -0.4263  -46.3507  -14.6489 C   0  0  0  0  0  0  0  0  0  0  0  0
    0.9601  -48.4368  -14.5786 C   0  0  0  0  0  0  0  0  0  0  0  0
    2.0641  -48.0421  -13.8409 C   0  0  0  0  0  0  0  0  0  0  0  0
    3.0809  -48.9298  -13.5809 C   0  0  0  0  0  0  0  0  0  0  0  0
    2.9671  -50.2200  -14.0753 C   0  0  0  0  0  0  0  0  0  0  0  0
    1.8758  -50.6179  -14.8067 C   0  0  0  0  0  0  0  0  0  0  0  0
    0.8707  -49.7386  -15.0635 C   0  0  0  0  0  0  0  0  0  0  0  0
 20 21  1  0  0  0
 21  1  1  0  0  0
  1  2  2  0  0  0
  2  3  1  0  0  0
  3  7  1  0  0  0
  7  8  1  0  0  0
  8  9  1  0  0  0
  9 10  1  0  0  0
 10 11  1  0  0  0
 10 12  1  0  0  0
 12 13  1  0  0  0
  3  4  2  0  0  0
  4 14  1  0  0  0
 14 15  1  0  0  0
 15 16  2  0  0  0
 15 18  1  0  0  0
 18 19  2  0  0  0
  4  5  1  0  0  0
  5  6  2  0  0  0
  6 22  1  0  0  0
 22 24  1  0  0  0
 24 25  2  0  0  0
 25 26  1  0  0  0
 26 27  2  0  0  0
 27 28  1  0  0  0
 28 29  2  0  0  0
 28 30  1  0  0  0
 30 31  2  0  0  0
 31 32  1  0  0  0
 32 33  1  0  0  0
 32 34  1  0  0  0
 34 35  2  0  0  0
 35 36  1  0  0  0
 36 37  2  0  0  0
 37 38  1  0  0  0
 38 39  2  0  0  0
  6  1  1  0  0  0
 29 24  1  0  0  0
 39 30  1  0  0  0
 13  7  1  0  0  0
 39 34  1  0  0  0
 14 17  1  0  0  0
 22 23  1  0  0  0
M  END
> <minimizedAffinity>
-7.20576

> <CNNscore>
0.3336853385

> <CNNaffinity>
7.1159529686

> <CNN_VS>
2.3744890690

> <CNNaffinity_variance>
0.0920268819

$$$$
[H]C([H])=C([H])C(=O)N([H])c1c([H])c(N([H])c2nc([H])c([H])c(-c3c([H])n(C([H])([H])[H])c4c([H])c([H])c([H])c([H])c34)n2)c(OC([H])([H])[H])c([H])c1N1C([H])([H])C([H])([H])N(C([H])([H])[H])C([H])([H])C1([H])[H]


 39 43  0  0  0  0  0  0  0  0999 V2000
    1.0081  -51.5685  -26.0335 C   0  0  0  0  0  0  0  0  0  0  0  0
    1.6623  -50.4436  -26.3868 C   0  0  0  0  0  0  0  0  0  0  0  0
    3.0015  -50.1904  -26.0797 C   0  0  0  0  0  0  0  0  0  0  0  0
    3.6698  -51.1728  -25.3674 C   0  0  0  0  0  0  0  0  0  0  0  0
    2.9749  -52.3505  -25.0011 C   0  0  0  0  0  0  0  0  0  0  0  0
    1.6819  -52.5767  -25.3072 C   0  0  0  0  0  0  0  0  0  0  0  0
    3.6263  -49.0226  -26.5096 N   0  0  0  0  0  0  0  0  0  0  0  0
    3.6439  -47.8327  -25.6849 C   0  0  0  0  0  0  0  0  0  0  0  0
    4.6521  -46.8367  -26.2204 C   0  0  0  0  0  0  0  0  0  0  0  0
    4.4009  -46.4627  -27.5519 N   0  0  0  0  0  0  0  0  0  0  0  0
    3.5860  -45.2755  -27.6892 C   0  0  0  0  0  0  0  0  0  0  0  0
    3.8615  -47.5026  -28.3603 C   0  0  0  0  0  0  0  0  0  0  0  0
    4.2460  -48.8757  -27.7999 C   0  0  0  0  0  0  0  0  0  0  0  0
    4.9876  -50.9414  -24.9495 N   0  0  0  0  0  0  0  0  0  0  0  0
    5.4311  -50.3737  -23.7551 C   0  0  0  0  0  0  0  0  0  0  0  0
    4.6507  -49.9855  -22.8336 O   0  0  0  0  0  0  0  0  0  0  0  0
    5.7332  -51.2130  -25.6699 H   0  0  0  0  0  0  0  0  0  0  0  0
    6.8646  -50.1759  -23.4605 C   0  0  0  0  0  0  0  0  0  0  0  0
    7.2823  -50.2601  -22.2296 C   0  0  0  0  0  0  0  0  0  0  0  0
   -0.6652  -52.4243  -27.5493 C   0  0  0  0  0  0  0  0  0  0  0  0
   -0.3156  -51.7698  -26.3622 O   0  0  0  0  0  0  0  0  0  0  0  0
    0.9707  -53.7292  -24.9511 N   0  0  0  0  0  0  0  0  0  0  0  0
    1.0505  -54.5998  -25.6045 H   0  0  0  0  0  0  0  0  0  0  0  0
    0.1425  -53.9341  -23.8315 C   0  0  0  0  0  0  0  0  0  0  0  0
   -0.8380  -54.8143  -23.7095 N   0  0  0  0  0  0  0  0  0  0  0  0
   -1.6058  -55.0062  -22.6451 C   0  0  0  0  0  0  0  0  0  0  0  0
   -1.3551  -54.1975  -21.5380 C   0  0  0  0  0  0  0  0  0  0  0  0
   -0.3414  -53.2538  -21.6001 C   0  0  0  0  0  0  0  0  0  0  0  0
    0.3445  -53.1629  -22.7077 N   0  0  0  0  0  0  0  0  0  0  0  0
   -0.0900  -52.4039  -20.4172 C   0  0  0  0  0  0  0  0  0  0  0  0
   -0.4305  -52.7259  -19.1257 C   0  0  0  0  0  0  0  0  0  0  0  0
   -0.0699  -51.7409  -18.2856 N   0  0  0  0  0  0  0  0  0  0  0  0
   -0.2637  -51.7104  -16.8279 C   0  0  0  0  0  0  0  0  0  0  0  0
    0.5055  -50.7762  -19.0220 C   0  0  0  0  0  0  0  0  0  0  0  0
    1.0450  -49.5533  -18.6582 C   0  0  0  0  0  0  0  0  0  0  0  0
    1.5820  -48.7189  -19.6094 C   0  0  0  0  0  0  0  0  0  0  0  0
    1.5670  -49.1364  -20.9314 C   0  0  0  0  0  0  0  0  0  0  0  0
    1.0344  -50.3470  -21.2989 C   0  0  0  0  0  0  0  0  0  0  0  0
    0.5031  -51.1714  -20.3568 C   0  0  0  0  0  0  0  0  0  0  0  0
 20 21  1  0  0  0
 21  1  1  0  0  0
  1  2  2  0  0  0
  2  3  1  0  0  0
  3  7  1  0  0  0
  7  8  1  0  0  0
  8  9  1  0  0  0
  9 10  1  0  0  0
 10 11  1  0  0  0
 10 12  1  0  0  0
 12 13  1  0  0  0
  3  4  2  0  0  0
  4 14  1  0  0  0
 14 15  1  0  0  0
 15 16  2  0  0  0
 15 18  1  0  0  0
 18 19  2  0  0  0
  4  5  1  0  0  0
  5  6  2  0  0  0
  6 22  1  0  0  0
 22 24  1  0  0  0
 24 25  2  0  0  0
 25 26  1  0  0  0
 26 27  2  0  0  0
 27 28  1  0  0  0
 28 29  2  0  0  0
 28 30  1  0  0  0
 30 31  2  0  0  0
 31 32  1  0  0  0
 32 33  1  0  0  0
 32 34  1  0  0  0
 34 35  2  0  0  0
 35 36  1  0  0  0
 36 37  2  0  0  0
 37 38  1  0  0  0
 38 39  2  0  0  0
  6  1  1  0  0  0
 29 24  1  0  0  0
 39 30  1  0  0  0
 13  7  1  0  0  0
 39 34  1  0  0  0
 14 17  1  0  0  0
 22 23  1  0  0  0
M  END
> <minimizedAffinity>
-7.91884

> <CNNscore>
0.2779898047

> <CNNaffinity>
7.2407426834

> <CNN_VS>
2.0128526688

> <CNNaffinity_variance>
0.1548947990

$$$$
[H]C([H])=C([H])C(=O)N([H])c1c([H])c(N([H])c2nc([H])c([H])c(-c3c([H])n(C([H])([H])[H])c4c([H])c([H])c([H])c([H])c34)n2)c(OC([H])([H])[H])c([H])c1N1C([H])([H])C([H])([H])N(C([H])([H])[H])C([H])([H])C1([H])[H]


 39 43  0  0  0  0  0  0  0  0999 V2000
    1.3283  -50.0942  -19.5160 C   0  0  0  0  0  0  0  0  0  0  0  0
    2.3823  -49.2799  -19.3060 C   0  0  0  0  0  0  0  0  0  0  0  0
    2.8543  -48.3569  -20.2426 C   0  0  0  0  0  0  0  0  0  0  0  0
    2.1784  -48.2998  -21.4505 C   0  0  0  0  0  0  0  0  0  0  0  0
    1.0729  -49.1584  -21.6618 C   0  0  0  0  0  0  0  0  0  0  0  0
    0.6321  -50.0427  -20.7450 C   0  0  0  0  0  0  0  0  0  0  0  0
    3.9256  -47.5186  -19.9448 N   0  0  0  0  0  0  0  0  0  0  0  0
    5.2921  -47.9307  -20.1883 C   0  0  0  0  0  0  0  0  0  0  0  0
    6.2240  -46.7395  -20.0997 C   0  0  0  0  0  0  0  0  0  0  0  0
    6.1618  -46.0845  -18.8576 N   0  0  0  0  0  0  0  0  0  0  0  0
    7.1332  -46.5517  -17.8930 C   0  0  0  0  0  0  0  0  0  0  0  0
    4.8689  -46.0799  -18.2623 C   0  0  0  0  0  0  0  0  0  0  0  0
    3.7820  -46.2245  -19.3325 C   0  0  0  0  0  0  0  0  0  0  0  0
    2.6569  -47.4603  -22.4658 N   0  0  0  0  0  0  0  0  0  0  0  0
    3.4998  -47.7805  -23.5301 C   0  0  0  0  0  0  0  0  0  0  0  0
    3.9553  -48.9466  -23.7344 O   0  0  0  0  0  0  0  0  0  0  0  0
    2.3493  -46.4376  -22.3745 H   0  0  0  0  0  0  0  0  0  0  0  0
    3.9366  -46.7756  -24.5201 C   0  0  0  0  0  0  0  0  0  0  0  0
    4.6649  -47.1500  -25.5330 C   0  0  0  0  0  0  0  0  0  0  0  0
    0.3277  -50.5358  -17.3634 C   0  0  0  0  0  0  0  0  0  0  0  0
    0.9019  -50.9885  -18.5572 O   0  0  0  0  0  0  0  0  0  0  0  0
   -0.4538  -50.9067  -20.9321 N   0  0  0  0  0  0  0  0  0  0  0  0
   -1.3953  -50.6564  -20.4399 H   0  0  0  0  0  0  0  0  0  0  0  0
   -0.5082  -52.0901  -21.6926 C   0  0  0  0  0  0  0  0  0  0  0  0
   -0.9175  -53.2829  -21.2917 N   0  0  0  0  0  0  0  0  0  0  0  0
   -0.9747  -54.3897  -22.0204 C   0  0  0  0  0  0  0  0  0  0  0  0
   -0.5613  -54.2878  -23.3476 C   0  0  0  0  0  0  0  0  0  0  0  0
   -0.1200  -53.0658  -23.8311 C   0  0  0  0  0  0  0  0  0  0  0  0
   -0.1117  -52.0491  -23.0114 N   0  0  0  0  0  0  0  0  0  0  0  0
    0.3158  -52.9762  -25.2406 C   0  0  0  0  0  0  0  0  0  0  0  0
    1.6178  -53.0544  -25.6721 C   0  0  0  0  0  0  0  0  0  0  0  0
    1.6774  -52.9324  -27.0091 N   0  0  0  0  0  0  0  0  0  0  0  0
    2.8881  -52.9624  -27.8440 C   0  0  0  0  0  0  0  0  0  0  0  0
    0.4200  -52.7751  -27.4541 C   0  0  0  0  0  0  0  0  0  0  0  0
   -0.0769  -52.6030  -28.7356 C   0  0  0  0  0  0  0  0  0  0  0  0
   -1.4275  -52.4550  -28.9443 C   0  0  0  0  0  0  0  0  0  0  0  0
   -2.2681  -52.4836  -27.8422 C   0  0  0  0  0  0  0  0  0  0  0  0
   -1.7825  -52.6541  -26.5696 C   0  0  0  0  0  0  0  0  0  0  0  0
   -0.4460  -52.8001  -26.3645 C   0  0  0  0  0  0  0  0  0  0  0  0
 20 21  1  0  0  0
 21  1  1  0  0  0
  1  2  2  0  0  0
  2  3  1  0  0  0
  3  7  1  0  0  0
  7  8  1  0  0  0
  8  9  1  0  0  0
  9 10  1  0  0  0
 10 11  1  0  0  0
 10 12  1  0  0  0
 12 13  1  0  0  0
  3  4  2  0  0  0
  4 14  1  0  0  0
 14 15  1  0  0  0
 15 16  2  0  0  0
 15 18  1  0  0  0
 18 19  2  0  0  0
  4  5  1  0  0  0
  5  6  2  0  0  0
  6 22  1  0  0  0
 22 24  1  0  0  0
 24 25  2  0  0  0
 25 26  1  0  0  0
 26 27  2  0  0  0
 27 28  1  0  0  0
 28 29  2  0  0  0
 28 30  1  0  0  0
 30 31  2  0  0  0
 31 32  1  0  0  0
 32 33  1  0  0  0
 32 34  1  0  0  0
 34 35  2  0  0  0
 35 36  1  0  0  0
 36 37  2  0  0  0
 37 38  1  0  0  0
 38 39  2  0  0  0
  6  1  1  0  0  0
 29 24  1  0  0  0
 39 30  1  0  0  0
 13  7  1  0  0  0
 39 34  1  0  0  0
 14 17  1  0  0  0
 22 23  1  0  0  0
M  END
> <minimizedAffinity>
-7.77696

> <CNNscore>
0.2600573897

> <CNNaffinity>
7.1271600723

> <CNN_VS>
1.8534706831

> <CNNaffinity_variance>
0.0514189228

$$$$
[H]C([H])=C([H])C(=O)N([H])c1c([H])c(N([H])c2nc([H])c([H])c(-c3c([H])n(C([H])([H])[H])c4c([H])c([H])c([H])c([H])c34)n2)c(OC([H])([H])[H])c([H])c1N1C([H])([H])C([H])([H])N(C([H])([H])[H])C([H])([H])C1([H])[H]


 39 43  0  0  0  0  0  0  0  0999 V2000
    1.9144  -50.0908  -19.1093 C   0  0  0  0  0  0  0  0  0  0  0  0
    2.3115  -50.0170  -17.8229 C   0  0  0  0  0  0  0  0  0  0  0  0
    1.5661  -50.5048  -16.7467 C   0  0  0  0  0  0  0  0  0  0  0  0
    0.3495  -51.0929  -17.0522 C   0  0  0  0  0  0  0  0  0  0  0  0
   -0.0589  -51.1661  -18.4056 C   0  0  0  0  0  0  0  0  0  0  0  0
    0.6751  -50.6897  -19.4308 C   0  0  0  0  0  0  0  0  0  0  0  0
    2.0546  -50.4300  -15.4448 N   0  0  0  0  0  0  0  0  0  0  0  0
    2.0224  -49.1884  -14.7006 C   0  0  0  0  0  0  0  0  0  0  0  0
    2.2916  -49.4483  -13.2326 C   0  0  0  0  0  0  0  0  0  0  0  0
    3.5250  -50.0828  -13.0042 N   0  0  0  0  0  0  0  0  0  0  0  0
    4.6199  -49.1730  -12.7480 C   0  0  0  0  0  0  0  0  0  0  0  0
    3.9049  -51.0064  -14.0184 C   0  0  0  0  0  0  0  0  0  0  0  0
    2.6707  -51.5337  -14.7574 C   0  0  0  0  0  0  0  0  0  0  0  0
   -0.4868  -51.5203  -16.0118 N   0  0  0  0  0  0  0  0  0  0  0  0
   -1.4287  -50.7801  -15.2972 C   0  0  0  0  0  0  0  0  0  0  0  0
   -1.6728  -49.5559  -15.5226 O   0  0  0  0  0  0  0  0  0  0  0  0
   -0.3443  -52.5423  -15.7223 H   0  0  0  0  0  0  0  0  0  0  0  0
   -2.2304  -51.3682  -14.2054 C   0  0  0  0  0  0  0  0  0  0  0  0
   -3.4035  -51.8682  -14.4708 C   0  0  0  0  0  0  0  0  0  0  0  0
    3.1784  -48.2828  -20.0909 C   0  0  0  0  0  0  0  0  0  0  0  0
    2.6890  -49.5936  -20.1358 O   0  0  0  0  0  0  0  0  0  0  0  0
    0.2907  -50.7439  -20.7762 N   0  0  0  0  0  0  0  0  0  0  0  0
    0.2256  -49.8035  -21.3263 H   0  0  0  0  0  0  0  0  0  0  0  0
   -0.0311  -51.8763  -21.5481 C   0  0  0  0  0  0  0  0  0  0  0  0
   -0.6536  -52.9719  -21.1441 N   0  0  0  0  0  0  0  0  0  0  0  0
   -0.9615  -54.0293  -21.8832 C   0  0  0  0  0  0  0  0  0  0  0  0
   -0.5921  -53.9836  -23.2263 C   0  0  0  0  0  0  0  0  0  0  0  0
    0.0641  -52.8641  -23.7141 C   0  0  0  0  0  0  0  0  0  0  0  0
    0.3099  -51.8871  -22.8830 N   0  0  0  0  0  0  0  0  0  0  0  0
    0.4494  -52.8330  -25.1407 C   0  0  0  0  0  0  0  0  0  0  0  0
    1.7359  -52.9237  -25.6142 C   0  0  0  0  0  0  0  0  0  0  0  0
    1.7477  -52.8589  -26.9565 N   0  0  0  0  0  0  0  0  0  0  0  0
    2.9284  -52.9192  -27.8316 C   0  0  0  0  0  0  0  0  0  0  0  0
    0.4745  -52.7269  -27.3631 C   0  0  0  0  0  0  0  0  0  0  0  0
   -0.0683  -52.6123  -28.6324 C   0  0  0  0  0  0  0  0  0  0  0  0
   -1.4262  -52.4797  -28.7992 C   0  0  0  0  0  0  0  0  0  0  0  0
   -2.2274  -52.4648  -27.6678 C   0  0  0  0  0  0  0  0  0  0  0  0
   -1.6963  -52.5782  -26.4071 C   0  0  0  0  0  0  0  0  0  0  0  0
   -0.3525  -52.7090  -26.2434 C   0  0  0  0  0  0  0  0  0  0  0  0
 20 21  1  0  0  0
 21  1  1  0  0  0
  1  2  2  0  0  0
  2  3  1  0  0  0
  3  7  1  0  0  0
  7  8  1  0  0  0
  8  9  1  0  0  0
  9 10  1  0  0  0
 10 11  1  0  0  0
 10 12  1  0  0  0
 12 13  1  0  0  0
  3  4  2  0  0  0
  4 14  1  0  0  0
 14 15  1  0  0  0
 15 16  2  0  0  0
 15 18  1  0  0  0
 18 19  2  0  0  0
  4  5  1  0  0  0
  5  6  2  0  0  0
  6 22  1  0  0  0
 22 24  1  0  0  0
 24 25  2  0  0  0
 25 26  1  0  0  0
 26 27  2  0  0  0
 27 28  1  0  0  0
 28 29  2  0  0  0
 28 30  1  0  0  0
 30 31  2  0  0  0
 31 32  1  0  0  0
 32 33  1  0  0  0
 32 34  1  0  0  0
 34 35  2  0  0  0
 35 36  1  0  0  0
 36 37  2  0  0  0
 37 38  1  0  0  0
 38 39  2  0  0  0
  6  1  1  0  0  0
 29 24  1  0  0  0
 39 30  1  0  0  0
 13  7  1  0  0  0
 39 34  1  0  0  0
 14 17  1  0  0  0
 22 23  1  0  0  0
M  END
> <minimizedAffinity>
-8.24441

> <CNNscore>
0.2278434932

> <CNNaffinity>
7.0972824097

> <CNN_VS>
1.6170696020

> <CNNaffinity_variance>
0.2436806262

$$$$
[H]C([H])=C([H])C(=O)N([H])c1c([H])c(N([H])c2nc([H])c([H])c(-c3c([H])n(C([H])([H])[H])c4c([H])c([H])c([H])c([H])c34)n2)c(OC([H])([H])[H])c([H])c1N1C([H])([H])C([H])([H])N(C([H])([H])[H])C([H])([H])C1([H])[H]


 39 43  0  0  0  0  0  0  0  0999 V2000
    1.7109  -51.6057  -26.0464 C   0  0  0  0  0  0  0  0  0  0  0  0
    2.3930  -50.4874  -26.3662 C   0  0  0  0  0  0  0  0  0  0  0  0
    3.1409  -49.7410  -25.4522 C   0  0  0  0  0  0  0  0  0  0  0  0
    3.1623  -50.2028  -24.1462 C   0  0  0  0  0  0  0  0  0  0  0  0
    2.4434  -51.3779  -23.8199 C   0  0  0  0  0  0  0  0  0  0  0  0
    1.7274  -52.0848  -24.7167 C   0  0  0  0  0  0  0  0  0  0  0  0
    3.8533  -48.6160  -25.8593 N   0  0  0  0  0  0  0  0  0  0  0  0
    5.2758  -48.6818  -26.1215 C   0  0  0  0  0  0  0  0  0  0  0  0
    5.7326  -47.4393  -26.8582 C   0  0  0  0  0  0  0  0  0  0  0  0
    5.4542  -46.2523  -26.1586 N   0  0  0  0  0  0  0  0  0  0  0  0
    6.5349  -45.7977  -25.3114 C   0  0  0  0  0  0  0  0  0  0  0  0
    4.2459  -46.2854  -25.4070 C   0  0  0  0  0  0  0  0  0  0  0  0
    3.2705  -47.3079  -25.9989 C   0  0  0  0  0  0  0  0  0  0  0  0
    3.8189  -49.4504  -23.1627 N   0  0  0  0  0  0  0  0  0  0  0  0
    3.2772  -48.5140  -22.2821 C   0  0  0  0  0  0  0  0  0  0  0  0
    2.0442  -48.2184  -22.2479 O   0  0  0  0  0  0  0  0  0  0  0  0
    4.8785  -49.6064  -23.1217 H   0  0  0  0  0  0  0  0  0  0  0  0
    4.1051  -47.7806  -21.3036 C   0  0  0  0  0  0  0  0  0  0  0  0
    3.5330  -46.9604  -20.4688 C   0  0  0  0  0  0  0  0  0  0  0  0
   -0.3978  -52.1368  -27.0956 C   0  0  0  0  0  0  0  0  0  0  0  0
    0.9875  -52.3067  -26.9877 O   0  0  0  0  0  0  0  0  0  0  0  0
    1.0031  -53.2454  -24.4180 N   0  0  0  0  0  0  0  0  0  0  0  0
    1.0001  -54.0489  -25.1566 H   0  0  0  0  0  0  0  0  0  0  0  0
    0.2559  -53.5357  -23.2608 C   0  0  0  0  0  0  0  0  0  0  0  0
   -0.7501  -54.3881  -23.1485 N   0  0  0  0  0  0  0  0  0  0  0  0
   -1.4407  -54.6620  -22.0498 C   0  0  0  0  0  0  0  0  0  0  0  0
   -1.0697  -53.9821  -20.8911 C   0  0  0  0  0  0  0  0  0  0  0  0
   -0.0233  -53.0740  -20.9402 C   0  0  0  0  0  0  0  0  0  0  0  0
    0.5781  -52.8933  -22.0853 N   0  0  0  0  0  0  0  0  0  0  0  0
    0.3561  -52.3613  -19.7022 C   0  0  0  0  0  0  0  0  0  0  0  0
   -0.4614  -52.1780  -18.6133 C   0  0  0  0  0  0  0  0  0  0  0  0
    0.1800  -51.4868  -17.6558 N   0  0  0  0  0  0  0  0  0  0  0  0
   -0.3569  -51.0904  -16.3450 C   0  0  0  0  0  0  0  0  0  0  0  0
    1.4138  -51.2177  -18.1134 C   0  0  0  0  0  0  0  0  0  0  0  0
    2.4702  -50.5341  -17.5341 C   0  0  0  0  0  0  0  0  0  0  0  0
    3.6554  -50.3803  -18.2130 C   0  0  0  0  0  0  0  0  0  0  0  0
    3.7589  -50.9260  -19.4833 C   0  0  0  0  0  0  0  0  0  0  0  0
    2.7162  -51.6048  -20.0632 C   0  0  0  0  0  0  0  0  0  0  0  0
    1.5440  -51.7560  -19.3905 C   0  0  0  0  0  0  0  0  0  0  0  0
 20 21  1  0  0  0
 21  1  1  0  0  0
  1  2  2  0  0  0
  2  3  1  0  0  0
  3  7  1  0  0  0
  7  8  1  0  0  0
  8  9  1  0  0  0
  9 10  1  0  0  0
 10 11  1  0  0  0
 10 12  1  0  0  0
 12 13  1  0  0  0
  3  4  2  0  0  0
  4 14  1  0  0  0
 14 15  1  0  0  0
 15 16  2  0  0  0
 15 18  1  0  0  0
 18 19  2  0  0  0
  4  5  1  0  0  0
  5  6  2  0  0  0
  6 22  1  0  0  0
 22 24  1  0  0  0
 24 25  2  0  0  0
 25 26  1  0  0  0
 26 27  2  0  0  0
 27 28  1  0  0  0
 28 29  2  0  0  0
 28 30  1  0  0  0
 30 31  2  0  0  0
 31 32  1  0  0  0
 32 33  1  0  0  0
 32 34  1  0  0  0
 34 35  2  0  0  0
 35 36  1  0  0  0
 36 37  2  0  0  0
 37 38  1  0  0  0
 38 39  2  0  0  0
  6  1  1  0  0  0
 29 24  1  0  0  0
 39 30  1  0  0  0
 13  7  1  0  0  0
 39 34  1  0  0  0
 14 17  1  0  0  0
 22 23  1  0  0  0
M  END
> <minimizedAffinity>
-7.03324

> <CNNscore>
0.1947031021

> <CNNaffinity>
7.0243387222

> <CNN_VS>
1.3676605225

> <CNNaffinity_variance>
0.2113333941

$$$$
[H]C([H])=C([H])C(=O)N([H])c1c([H])c(N([H])c2nc([H])c([H])c(-c3c([H])n(C([H])([H])[H])c4c([H])c([H])c([H])c([H])c34)n2)c(OC([H])([H])[H])c([H])c1N1C([H])([H])C([H])([H])N(C([H])([H])[H])C([H])([H])C1([H])[H]


 39 43  0  0  0  0  0  0  0  0999 V2000
    2.8348  -50.5809  -19.5295 C   0  0  0  0  0  0  0  0  0  0  0  0
    4.0572  -50.0118  -19.5296 C   0  0  0  0  0  0  0  0  0  0  0  0
    4.5584  -49.2389  -20.5800 C   0  0  0  0  0  0  0  0  0  0  0  0
    3.7258  -49.0664  -21.6737 C   0  0  0  0  0  0  0  0  0  0  0  0
    2.4441  -49.6674  -21.6645 C   0  0  0  0  0  0  0  0  0  0  0  0
    1.9781  -50.4099  -20.6407 C   0  0  0  0  0  0  0  0  0  0  0  0
    5.8166  -48.6481  -20.4973 N   0  0  0  0  0  0  0  0  0  0  0  0
    5.9711  -47.2601  -20.1154 C   0  0  0  0  0  0  0  0  0  0  0  0
    7.4187  -46.9653  -19.7793 C   0  0  0  0  0  0  0  0  0  0  0  0
    8.2970  -47.2448  -20.8406 N   0  0  0  0  0  0  0  0  0  0  0  0
    8.5660  -46.1126  -21.6997 C   0  0  0  0  0  0  0  0  0  0  0  0
    7.9170  -48.3623  -21.6361 C   0  0  0  0  0  0  0  0  0  0  0  0
    7.0416  -49.3262  -20.8288 C   0  0  0  0  0  0  0  0  0  0  0  0
    4.2029  -48.3784  -22.7978 N   0  0  0  0  0  0  0  0  0  0  0  0
    3.8272  -47.1199  -23.2678 C   0  0  0  0  0  0  0  0  0  0  0  0
    2.9646  -46.3883  -22.6937 O   0  0  0  0  0  0  0  0  0  0  0  0
    4.9250  -48.9216  -23.3741 H   0  0  0  0  0  0  0  0  0  0  0  0
    4.4108  -46.5274  -24.4881 C   0  0  0  0  0  0  0  0  0  0  0  0
    3.6471  -45.8544  -25.3007 C   0  0  0  0  0  0  0  0  0  0  0  0
    2.1574  -50.7440  -17.2177 C   0  0  0  0  0  0  0  0  0  0  0  0
    2.3873  -51.3351  -18.4657 O   0  0  0  0  0  0  0  0  0  0  0  0
    0.7180  -51.0197  -20.6102 N   0  0  0  0  0  0  0  0  0  0  0  0
    0.0003  -50.6705  -19.8657 H   0  0  0  0  0  0  0  0  0  0  0  0
    0.2262  -52.0512  -21.4323 C   0  0  0  0  0  0  0  0  0  0  0  0
   -0.5389  -53.0688  -21.0712 N   0  0  0  0  0  0  0  0  0  0  0  0
   -1.0058  -54.0300  -21.8569 C   0  0  0  0  0  0  0  0  0  0  0  0
   -0.6552  -53.9631  -23.2042 C   0  0  0  0  0  0  0  0  0  0  0  0
    0.1453  -52.9221  -23.6484 C   0  0  0  0  0  0  0  0  0  0  0  0
    0.5408  -52.0367  -22.7736 N   0  0  0  0  0  0  0  0  0  0  0  0
    0.5081  -52.8673  -25.0802 C   0  0  0  0  0  0  0  0  0  0  0  0
    1.7878  -52.9406  -25.5748 C   0  0  0  0  0  0  0  0  0  0  0  0
    1.7781  -52.8564  -26.9161 N   0  0  0  0  0  0  0  0  0  0  0  0
    2.9455  -52.8944  -27.8101 C   0  0  0  0  0  0  0  0  0  0  0  0
    0.4977  -52.7289  -27.3009 C   0  0  0  0  0  0  0  0  0  0  0  0
   -0.0656  -52.6004  -28.5599 C   0  0  0  0  0  0  0  0  0  0  0  0
   -1.4270  -52.4766  -28.7038 C   0  0  0  0  0  0  0  0  0  0  0  0
   -2.2106  -52.4845  -27.5600 C   0  0  0  0  0  0  0  0  0  0  0  0
   -1.6590  -52.6117  -26.3094 C   0  0  0  0  0  0  0  0  0  0  0  0
   -0.3119  -52.7339  -26.1685 C   0  0  0  0  0  0  0  0  0  0  0  0
 20 21  1  0  0  0
 21  1  1  0  0  0
  1  2  2  0  0  0
  2  3  1  0  0  0
  3  7  1  0  0  0
  7  8  1  0  0  0
  8  9  1  0  0  0
  9 10  1  0  0  0
 10 11  1  0  0  0
 10 12  1  0  0  0
 12 13  1  0  0  0
  3  4  2  0  0  0
  4 14  1  0  0  0
 14 15  1  0  0  0
 15 16  2  0  0  0
 15 18  1  0  0  0
 18 19  2  0  0  0
  4  5  1  0  0  0
  5  6  2  0  0  0
  6 22  1  0  0  0
 22 24  1  0  0  0
 24 25  2  0  0  0
 25 26  1  0  0  0
 26 27  2  0  0  0
 27 28  1  0  0  0
 28 29  2  0  0  0
 28 30  1  0  0  0
 30 31  2  0  0  0
 31 32  1  0  0  0
 32 33  1  0  0  0
 32 34  1  0  0  0
 34 35  2  0  0  0
 35 36  1  0  0  0
 36 37  2  0  0  0
 37 38  1  0  0  0
 38 39  2  0  0  0
  6  1  1  0  0  0
 29 24  1  0  0  0
 39 30  1  0  0  0
 13  7  1  0  0  0
 39 34  1  0  0  0
 14 17  1  0  0  0
 22 23  1  0  0  0
M  END
> <minimizedAffinity>
-7.46621

> <CNNscore>
0.1524410546

> <CNNaffinity>
7.1426057816

> <CNN_VS>
1.0888262987

> <CNNaffinity_variance>
0.0752135441

$$$$
[H]c1nc(N([H])c2c([H])c([H])c(OC([H])([H])c3c([H])c([H])c([H])c(F)c3[H])c(Cl)c2[H])c2c([H])c(-c3oc(C([H])(N([H])C([H])([H])[H])C([H])([H])S(=O)(=O)C([H])([H])[H])c([H])c3[H])c([H])c([H])c2n1


 42 46  0  0  0  0  0  0  0  0999 V2000
    0.1141  -52.0151  -20.4783 C   0  0  0  0  0  0  0  0  0  0  0  0
   -0.4428  -53.1097  -19.8610 C   0  0  0  0  0  0  0  0  0  0  0  0
   -0.9323  -54.1751  -20.5998 C   0  0  0  0  0  0  0  0  0  0  0  0
   -0.8842  -54.1879  -21.9803 C   0  0  0  0  0  0  0  0  0  0  0  0
   -1.3736  -55.2467  -22.6778 N   0  0  0  0  0  0  0  0  0  0  0  0
   -1.3314  -55.2640  -24.0030 C   0  0  0  0  0  0  0  0  0  0  0  0
   -0.7949  -54.2124  -24.6296 N   0  0  0  0  0  0  0  0  0  0  0  0
   -0.2890  -53.1265  -24.0149 C   0  0  0  0  0  0  0  0  0  0  0  0
   -0.3226  -53.0857  -22.6205 C   0  0  0  0  0  0  0  0  0  0  0  0
    0.1578  -52.0376  -21.8703 C   0  0  0  0  0  0  0  0  0  0  0  0
    1.3125  -49.6090  -18.0994 C   0  0  0  0  0  0  0  0  0  0  0  0
    1.4603  -48.8522  -19.2425 C   0  0  0  0  0  0  0  0  0  0  0  0
    1.0256  -49.6745  -20.2639 C   0  0  0  0  0  0  0  0  0  0  0  0
    0.6330  -50.8871  -19.7172 C   0  0  0  0  0  0  0  0  0  0  0  0
    0.8303  -50.7771  -18.4324 O   0  0  0  0  0  0  0  0  0  0  0  0
    1.6531  -49.1558  -16.7032 C   0  0  0  0  0  0  0  0  0  0  0  0
   -0.5851  -48.9158  -15.8441 C   0  0  0  0  0  0  0  0  0  0  0  0
    0.5994  -48.2442  -16.3097 N   0  0  0  0  0  0  0  0  0  0  0  0
    0.9839  -47.7118  -15.4723 H   0  0  0  0  0  0  0  0  0  0  0  0
    1.4981  -50.3968  -15.8294 C   0  0  0  0  0  0  0  0  0  0  0  0
    3.0544  -50.9383  -15.1962 S   0  0  0  0  0  0  0  0  0  0  0  0
    3.8212  -49.5686  -14.3625 C   0  0  0  0  0  0  0  0  0  0  0  0
    3.8821  -51.4132  -16.3468 O   0  0  0  0  0  0  0  0  0  0  0  0
    2.8045  -52.0276  -14.1937 O   0  0  0  0  0  0  0  0  0  0  0  0
    0.2982  -52.0509  -24.7073 N   0  0  0  0  0  0  0  0  0  0  0  0
   -0.3001  -51.3888  -25.2705 H   0  0  0  0  0  0  0  0  0  0  0  0
    1.6891  -51.7541  -24.7211 C   0  0  0  0  0  0  0  0  0  0  0  0
    2.6735  -52.6932  -24.8117 C   0  0  0  0  0  0  0  0  0  0  0  0
    4.0202  -52.3088  -24.7891 C   0  0  0  0  0  0  0  0  0  0  0  0
    4.3833  -50.9949  -24.6777 C   0  0  0  0  0  0  0  0  0  0  0  0
    3.4157  -50.0477  -24.5874 C   0  0  0  0  0  0  0  0  0  0  0  0
    3.8664  -48.3610  -24.4449 Cl  0  0  0  0  0  0  0  0  0  0  0  0
    2.0960  -50.4167  -24.6085 C   0  0  0  0  0  0  0  0  0  0  0  0
    5.7442  -50.6267  -24.6566 O   0  0  0  0  0  0  0  0  0  0  0  0
    6.5408  -50.9785  -23.5375 C   0  0  0  0  0  0  0  0  0  0  0  0
    6.0485  -50.3447  -22.2977 C   0  0  0  0  0  0  0  0  0  0  0  0
    6.3850  -49.0604  -21.9106 C   0  0  0  0  0  0  0  0  0  0  0  0
    5.8963  -48.5111  -20.7373 C   0  0  0  0  0  0  0  0  0  0  0  0
    5.0538  -49.2316  -19.9131 C   0  0  0  0  0  0  0  0  0  0  0  0
    4.7087  -50.5172  -20.2877 C   0  0  0  0  0  0  0  0  0  0  0  0
    3.8796  -51.2272  -19.4771 F   0  0  0  0  0  0  0  0  0  0  0  0
    5.2036  -51.0496  -21.4585 C   0  0  0  0  0  0  0  0  0  0  0  0
 17 18  1  0  0  0
 18 16  1  0  0  0
 16 20  1  0  0  0
 20 21  1  0  0  0
 21 22  1  0  0  0
 21 23  2  0  0  0
 21 24  2  0  0  0
 16 11  1  0  0  0
 11 12  2  0  0  0
 12 13  1  0  0  0
 13 14  2  0  0  0
 14 15  1  0  0  0
 14  1  1  0  0  0
  1  2  2  0  0  0
  2  3  1  0  0  0
  3  4  2  0  0  0
  4  5  1  0  0  0
  5  6  2  0  0  0
  6  7  1  0  0  0
  7  8  2  0  0  0
  8 25  1  0  0  0
 25 27  1  0  0  0
 27 28  2  0  0  0
 28 29  1  0  0  0
 29 30  2  0  0  0
 30 34  1  0  0  0
 34 35  1  0  0  0
 35 36  1  0  0  0
 36 37  2  0  0  0
 37 38  1  0  0  0
 38 39  2  0  0  0
 39 40  1  0  0  0
 40 41  1  0  0  0
 40 42  2  0  0  0
 30 31  1  0  0  0
 31 32  1  0  0  0
 31 33  2  0  0  0
  8  9  1  0  0  0
  9 10  2  0  0  0
 15 11  1  0  0  0
 10  1  1  0  0  0
  9  4  1  0  0  0
 33 27  1  0  0  0
 42 36  1  0  0  0
 18 19  1  0  0  0
 25 26  1  0  0  0
M  END
> <minimizedAffinity>
-8.31407

> <CNNscore>
0.2955266237

> <CNNaffinity>
7.3187904358

> <CNN_VS>
2.1628973484

> <CNNaffinity_variance>
0.3075775504

$$$$
[H]c1nc(N([H])c2c([H])c([H])c(OC([H])([H])c3c([H])c([H])c([H])c(F)c3[H])c(Cl)c2[H])c2c([H])c(-c3oc(C([H])(N([H])C([H])([H])[H])C([H])([H])S(=O)(=O)C([H])([H])[H])c([H])c3[H])c([H])c([H])c2n1


 42 46  0  0  0  0  0  0  0  0999 V2000
    0.0367  -51.9922  -20.3262 C   0  0  0  0  0  0  0  0  0  0  0  0
   -0.5353  -53.1012  -19.7496 C   0  0  0  0  0  0  0  0  0  0  0  0
   -0.9981  -54.1520  -20.5255 C   0  0  0  0  0  0  0  0  0  0  0  0
   -0.9074  -54.1355  -21.9038 C   0  0  0  0  0  0  0  0  0  0  0  0
   -1.3714  -55.1806  -22.6383 N   0  0  0  0  0  0  0  0  0  0  0  0
   -1.2883  -55.1698  -23.9615 C   0  0  0  0  0  0  0  0  0  0  0  0
   -0.7364  -54.1037  -24.5490 N   0  0  0  0  0  0  0  0  0  0  0  0
   -0.2534  -53.0296  -23.8963 C   0  0  0  0  0  0  0  0  0  0  0  0
   -0.3301  -53.0185  -22.5030 C   0  0  0  0  0  0  0  0  0  0  0  0
    0.1233  -51.9851  -21.7164 C   0  0  0  0  0  0  0  0  0  0  0  0
    1.0289  -49.5790  -17.8611 C   0  0  0  0  0  0  0  0  0  0  0  0
    1.4807  -48.9173  -18.9834 C   0  0  0  0  0  0  0  0  0  0  0  0
    1.1570  -49.7527  -20.0349 C   0  0  0  0  0  0  0  0  0  0  0  0
    0.5280  -50.8791  -19.5259 C   0  0  0  0  0  0  0  0  0  0  0  0
    0.4865  -50.7083  -18.2333 O   0  0  0  0  0  0  0  0  0  0  0  0
    1.1459  -49.0757  -16.4456 C   0  0  0  0  0  0  0  0  0  0  0  0
    1.8227  -47.0814  -15.2753 C   0  0  0  0  0  0  0  0  0  0  0  0
    1.7865  -47.7803  -16.5326 N   0  0  0  0  0  0  0  0  0  0  0  0
    2.8002  -47.9824  -16.7860 H   0  0  0  0  0  0  0  0  0  0  0  0
   -0.2877  -48.8181  -15.9914 C   0  0  0  0  0  0  0  0  0  0  0  0
   -0.8241  -50.0332  -14.8287 S   0  0  0  0  0  0  0  0  0  0  0  0
   -1.9276  -51.1498  -15.6622 C   0  0  0  0  0  0  0  0  0  0  0  0
   -1.5068  -49.3262  -13.7024 O   0  0  0  0  0  0  0  0  0  0  0  0
    0.3760  -50.8065  -14.3643 O   0  0  0  0  0  0  0  0  0  0  0  0
    0.3511  -51.9381  -24.5473 N   0  0  0  0  0  0  0  0  0  0  0  0
   -0.2379  -51.2360  -25.0705 H   0  0  0  0  0  0  0  0  0  0  0  0
    1.7488  -51.6754  -24.5686 C   0  0  0  0  0  0  0  0  0  0  0  0
    2.6998  -52.6041  -24.8726 C   0  0  0  0  0  0  0  0  0  0  0  0
    4.0575  -52.2610  -24.8402 C   0  0  0  0  0  0  0  0  0  0  0  0
    4.4645  -50.9984  -24.5073 C   0  0  0  0  0  0  0  0  0  0  0  0
    3.5305  -50.0621  -24.2029 C   0  0  0  0  0  0  0  0  0  0  0  0
    4.0377  -48.4409  -23.7755 Cl  0  0  0  0  0  0  0  0  0  0  0  0
    2.2004  -50.3909  -24.2323 C   0  0  0  0  0  0  0  0  0  0  0  0
    5.8358  -50.6713  -24.4799 O   0  0  0  0  0  0  0  0  0  0  0  0
    6.6672  -51.2495  -23.4874 C   0  0  0  0  0  0  0  0  0  0  0  0
    7.4141  -50.2208  -22.7356 C   0  0  0  0  0  0  0  0  0  0  0  0
    8.1923  -49.2491  -23.3378 C   0  0  0  0  0  0  0  0  0  0  0  0
    8.8738  -48.3058  -22.5875 C   0  0  0  0  0  0  0  0  0  0  0  0
    8.7976  -48.3057  -21.2082 C   0  0  0  0  0  0  0  0  0  0  0  0
    8.0230  -49.2716  -20.5925 C   0  0  0  0  0  0  0  0  0  0  0  0
    7.9473  -49.2725  -19.2349 F   0  0  0  0  0  0  0  0  0  0  0  0
    7.3508  -50.2035  -21.3534 C   0  0  0  0  0  0  0  0  0  0  0  0
 17 18  1  0  0  0
 18 16  1  0  0  0
 16 20  1  0  0  0
 20 21  1  0  0  0
 21 22  1  0  0  0
 21 23  2  0  0  0
 21 24  2  0  0  0
 16 11  1  0  0  0
 11 12  2  0  0  0
 12 13  1  0  0  0
 13 14  2  0  0  0
 14 15  1  0  0  0
 14  1  1  0  0  0
  1  2  2  0  0  0
  2  3  1  0  0  0
  3  4  2  0  0  0
  4  5  1  0  0  0
  5  6  2  0  0  0
  6  7  1  0  0  0
  7  8  2  0  0  0
  8 25  1  0  0  0
 25 27  1  0  0  0
 27 28  2  0  0  0
 28 29  1  0  0  0
 29 30  2  0  0  0
 30 34  1  0  0  0
 34 35  1  0  0  0
 35 36  1  0  0  0
 36 37  2  0  0  0
 37 38  1  0  0  0
 38 39  2  0  0  0
 39 40  1  0  0  0
 40 41  1  0  0  0
 40 42  2  0  0  0
 30 31  1  0  0  0
 31 32  1  0  0  0
 31 33  2  0  0  0
  8  9  1  0  0  0
  9 10  2  0  0  0
 15 11  1  0  0  0
 10  1  1  0  0  0
  9  4  1  0  0  0
 33 27  1  0  0  0
 42 36  1  0  0  0
 18 19  1  0  0  0
 25 26  1  0  0  0
M  END
> <minimizedAffinity>
-8.10774

> <CNNscore>
0.2513968349

> <CNNaffinity>
7.1896314621

> <CNN_VS>
1.8074506521

> <CNNaffinity_variance>
0.1577784121

$$$$
[H]c1nc(N([H])c2c([H])c([H])c(OC([H])([H])c3c([H])c([H])c([H])c(F)c3[H])c(Cl)c2[H])c2c([H])c(-c3oc(C([H])(N([H])C([H])([H])[H])C([H])([H])S(=O)(=O)C([H])([H])[H])c([H])c3[H])c([H])c([H])c2n1


 42 46  0  0  0  0  0  0  0  0999 V2000
    0.4764  -49.4021  -16.3412 C   0  0  0  0  0  0  0  0  0  0  0  0
   -0.4429  -48.8892  -15.4573 C   0  0  0  0  0  0  0  0  0  0  0  0
   -1.6379  -49.5451  -15.2077 C   0  0  0  0  0  0  0  0  0  0  0  0
   -1.9596  -50.7356  -15.8301 C   0  0  0  0  0  0  0  0  0  0  0  0
   -3.1402  -51.3550  -15.5660 N   0  0  0  0  0  0  0  0  0  0  0  0
   -3.4550  -52.4972  -16.1613 C   0  0  0  0  0  0  0  0  0  0  0  0
   -2.5794  -53.0190  -17.0257 N   0  0  0  0  0  0  0  0  0  0  0  0
   -1.3912  -52.4706  -17.3424 C   0  0  0  0  0  0  0  0  0  0  0  0
   -1.0382  -51.2682  -16.7286 C   0  0  0  0  0  0  0  0  0  0  0  0
    0.1426  -50.6028  -16.9635 C   0  0  0  0  0  0  0  0  0  0  0  0
    3.4432  -47.8408  -17.6237 C   0  0  0  0  0  0  0  0  0  0  0  0
    3.6797  -47.6475  -16.2790 C   0  0  0  0  0  0  0  0  0  0  0  0
    2.5890  -48.2139  -15.6481 C   0  0  0  0  0  0  0  0  0  0  0  0
    1.7368  -48.7259  -16.6151 C   0  0  0  0  0  0  0  0  0  0  0  0
    2.3057  -48.4693  -17.7607 O   0  0  0  0  0  0  0  0  0  0  0  0
    4.3513  -47.3973  -18.7416 C   0  0  0  0  0  0  0  0  0  0  0  0
    6.0961  -48.9058  -19.4380 C   0  0  0  0  0  0  0  0  0  0  0  0
    4.6917  -48.5951  -19.4801 N   0  0  0  0  0  0  0  0  0  0  0  0
    4.1993  -49.3903  -18.9722 H   0  0  0  0  0  0  0  0  0  0  0  0
    3.4723  -46.5576  -19.6635 C   0  0  0  0  0  0  0  0  0  0  0  0
    4.1657  -44.9569  -19.9340 S   0  0  0  0  0  0  0  0  0  0  0  0
    5.9357  -45.0983  -19.8551 C   0  0  0  0  0  0  0  0  0  0  0  0
    3.6409  -44.0406  -18.8759 O   0  0  0  0  0  0  0  0  0  0  0  0
    3.7844  -44.5027  -21.3132 O   0  0  0  0  0  0  0  0  0  0  0  0
   -0.4792  -53.0659  -18.2340 N   0  0  0  0  0  0  0  0  0  0  0  0
    0.3449  -53.6137  -17.8675 H   0  0  0  0  0  0  0  0  0  0  0  0
   -0.5656  -52.9986  -19.6521 C   0  0  0  0  0  0  0  0  0  0  0  0
   -1.3126  -53.8454  -20.4166 C   0  0  0  0  0  0  0  0  0  0  0  0
   -1.3142  -53.7211  -21.8118 C   0  0  0  0  0  0  0  0  0  0  0  0
   -0.5758  -52.7572  -22.4411 C   0  0  0  0  0  0  0  0  0  0  0  0
    0.1724  -51.9059  -21.6947 C   0  0  0  0  0  0  0  0  0  0  0  0
    1.1225  -50.6662  -22.4875 Cl  0  0  0  0  0  0  0  0  0  0  0  0
    0.1790  -52.0219  -20.3291 C   0  0  0  0  0  0  0  0  0  0  0  0
   -0.5898  -52.6472  -23.8468 O   0  0  0  0  0  0  0  0  0  0  0  0
   -0.4840  -53.8209  -24.6355 C   0  0  0  0  0  0  0  0  0  0  0  0
    0.3255  -53.5904  -25.8492 C   0  0  0  0  0  0  0  0  0  0  0  0
    0.1426  -54.2827  -27.0322 C   0  0  0  0  0  0  0  0  0  0  0  0
    0.9288  -54.0290  -28.1433 C   0  0  0  0  0  0  0  0  0  0  0  0
    1.9248  -53.0725  -28.1050 C   0  0  0  0  0  0  0  0  0  0  0  0
    2.1189  -52.3724  -26.9284 C   0  0  0  0  0  0  0  0  0  0  0  0
    3.0990  -51.4308  -26.8895 F   0  0  0  0  0  0  0  0  0  0  0  0
    1.3280  -52.6367  -25.8312 C   0  0  0  0  0  0  0  0  0  0  0  0
 17 18  1  0  0  0
 18 16  1  0  0  0
 16 20  1  0  0  0
 20 21  1  0  0  0
 21 22  1  0  0  0
 21 23  2  0  0  0
 21 24  2  0  0  0
 16 11  1  0  0  0
 11 12  2  0  0  0
 12 13  1  0  0  0
 13 14  2  0  0  0
 14 15  1  0  0  0
 14  1  1  0  0  0
  1  2  2  0  0  0
  2  3  1  0  0  0
  3  4  2  0  0  0
  4  5  1  0  0  0
  5  6  2  0  0  0
  6  7  1  0  0  0
  7  8  2  0  0  0
  8 25  1  0  0  0
 25 27  1  0  0  0
 27 28  2  0  0  0
 28 29  1  0  0  0
 29 30  2  0  0  0
 30 34  1  0  0  0
 34 35  1  0  0  0
 35 36  1  0  0  0
 36 37  2  0  0  0
 37 38  1  0  0  0
 38 39  2  0  0  0
 39 40  1  0  0  0
 40 41  1  0  0  0
 40 42  2  0  0  0
 30 31  1  0  0  0
 31 32  1  0  0  0
 31 33  2  0  0  0
  8  9  1  0  0  0
  9 10  2  0  0  0
 15 11  1  0  0  0
 10  1  1  0  0  0
  9  4  1  0  0  0
 33 27  1  0  0  0
 42 36  1  0  0  0
 18 19  1  0  0  0
 25 26  1  0  0  0
M  END
> <minimizedAffinity>
-7.91508

> <CNNscore>
0.1994966269

> <CNNaffinity>
7.0299544334

> <CNN_VS>
1.4024522305

> <CNNaffinity_variance>
0.1314314604

$$$$
[H]c1nc(N([H])c2c([H])c([H])c(OC([H])([H])c3c([H])c([H])c([H])c(F)c3[H])c(Cl)c2[H])c2c([H])c(-c3oc(C([H])(N([H])C([H])([H])[H])C([H])([H])S(=O)(=O)C([H])([H])[H])c([H])c3[H])c([H])c([H])c2n1


 42 46  0  0  0  0  0  0  0  0999 V2000
   -0.5175  -53.0155  -20.4968 C   0  0  0  0  0  0  0  0  0  0  0  0
   -1.5120  -53.8988  -20.8438 C   0  0  0  0  0  0  0  0  0  0  0  0
   -1.6036  -54.4023  -22.1317 C   0  0  0  0  0  0  0  0  0  0  0  0
   -0.7075  -54.0437  -23.1199 C   0  0  0  0  0  0  0  0  0  0  0  0
   -0.8238  -54.5531  -24.3745 N   0  0  0  0  0  0  0  0  0  0  0  0
    0.0325  -54.2116  -25.3274 C   0  0  0  0  0  0  0  0  0  0  0  0
    1.0100  -53.3542  -25.0179 N   0  0  0  0  0  0  0  0  0  0  0  0
    1.1951  -52.8049  -23.8026 C   0  0  0  0  0  0  0  0  0  0  0  0
    0.3061  -53.1494  -22.7838 C   0  0  0  0  0  0  0  0  0  0  0  0
    0.3809  -52.6602  -21.5003 C   0  0  0  0  0  0  0  0  0  0  0  0
   -0.7170  -52.0843  -17.0360 C   0  0  0  0  0  0  0  0  0  0  0  0
    0.3115  -51.2457  -17.4107 C   0  0  0  0  0  0  0  0  0  0  0  0
    0.5000  -51.5039  -18.7547 C   0  0  0  0  0  0  0  0  0  0  0  0
   -0.4067  -52.4768  -19.1483 C   0  0  0  0  0  0  0  0  0  0  0  0
   -1.0943  -52.7735  -18.0802 O   0  0  0  0  0  0  0  0  0  0  0  0
   -1.3016  -52.1825  -15.6505 C   0  0  0  0  0  0  0  0  0  0  0  0
   -0.3365  -51.0495  -13.7557 C   0  0  0  0  0  0  0  0  0  0  0  0
   -0.1826  -52.0914  -14.7363 N   0  0  0  0  0  0  0  0  0  0  0  0
   -0.1845  -53.0075  -14.1947 H   0  0  0  0  0  0  0  0  0  0  0  0
   -2.1140  -50.9044  -15.4662 C   0  0  0  0  0  0  0  0  0  0  0  0
   -3.8306  -51.2564  -15.2529 S   0  0  0  0  0  0  0  0  0  0  0  0
   -4.6794  -49.7226  -14.9592 C   0  0  0  0  0  0  0  0  0  0  0  0
   -3.9708  -52.1914  -14.0950 O   0  0  0  0  0  0  0  0  0  0  0  0
   -4.3531  -51.8544  -16.5271 O   0  0  0  0  0  0  0  0  0  0  0  0
    2.2562  -51.9296  -23.5046 N   0  0  0  0  0  0  0  0  0  0  0  0
    2.6722  -51.9061  -22.5351 H   0  0  0  0  0  0  0  0  0  0  0  0
    2.8532  -51.0294  -24.4300 C   0  0  0  0  0  0  0  0  0  0  0  0
    2.3805  -50.7959  -25.6875 C   0  0  0  0  0  0  0  0  0  0  0  0
    3.0520  -49.9115  -26.5412 C   0  0  0  0  0  0  0  0  0  0  0  0
    4.1883  -49.2628  -26.1428 C   0  0  0  0  0  0  0  0  0  0  0  0
    4.6714  -49.4835  -24.8939 C   0  0  0  0  0  0  0  0  0  0  0  0
    6.1253  -48.6589  -24.3702 Cl  0  0  0  0  0  0  0  0  0  0  0  0
    4.0196  -50.3478  -24.0534 C   0  0  0  0  0  0  0  0  0  0  0  0
    4.8509  -48.3760  -27.0160 O   0  0  0  0  0  0  0  0  0  0  0  0
    4.1796  -47.2083  -27.4596 C   0  0  0  0  0  0  0  0  0  0  0  0
    4.0294  -46.2201  -26.3724 C   0  0  0  0  0  0  0  0  0  0  0  0
    5.0903  -45.5289  -25.8163 C   0  0  0  0  0  0  0  0  0  0  0  0
    4.8967  -44.6116  -24.7975 C   0  0  0  0  0  0  0  0  0  0  0  0
    3.6325  -44.3568  -24.3023 C   0  0  0  0  0  0  0  0  0  0  0  0
    2.5622  -45.0407  -24.8490 C   0  0  0  0  0  0  0  0  0  0  0  0
    1.3174  -44.7907  -24.3623 F   0  0  0  0  0  0  0  0  0  0  0  0
    2.7715  -45.9506  -25.8626 C   0  0  0  0  0  0  0  0  0  0  0  0
 17 18  1  0  0  0
 18 16  1  0  0  0
 16 20  1  0  0  0
 20 21  1  0  0  0
 21 22  1  0  0  0
 21 23  2  0  0  0
 21 24  2  0  0  0
 16 11  1  0  0  0
 11 12  2  0  0  0
 12 13  1  0  0  0
 13 14  2  0  0  0
 14 15  1  0  0  0
 14  1  1  0  0  0
  1  2  2  0  0  0
  2  3  1  0  0  0
  3  4  2  0  0  0
  4  5  1  0  0  0
  5  6  2  0  0  0
  6  7  1  0  0  0
  7  8  2  0  0  0
  8 25  1  0  0  0
 25 27  1  0  0  0
 27 28  2  0  0  0
 28 29  1  0  0  0
 29 30  2  0  0  0
 30 34  1  0  0  0
 34 35  1  0  0  0
 35 36  1  0  0  0
 36 37  2  0  0  0
 37 38  1  0  0  0
 38 39  2  0  0  0
 39 40  1  0  0  0
 40 41  1  0  0  0
 40 42  2  0  0  0
 30 31  1  0  0  0
 31 32  1  0  0  0
 31 33  2  0  0  0
  8  9  1  0  0  0
  9 10  2  0  0  0
 15 11  1  0  0  0
 10  1  1  0  0  0
  9  4  1  0  0  0
 33 27  1  0  0  0
 42 36  1  0  0  0
 18 19  1  0  0  0
 25 26  1  0  0  0
M  END
> <minimizedAffinity>
-7.83975

> <CNNscore>
0.1611324549

> <CNNaffinity>
7.0730390549

> <CNN_VS>
1.1396961212

> <CNNaffinity_variance>
0.1389591694

$$$$
[H]c1nc(N([H])c2c([H])c([H])c(OC([H])([H])c3c([H])c([H])c([H])c(F)c3[H])c(Cl)c2[H])c2c([H])c(-c3oc(C([H])(N([H])C([H])([H])[H])C([H])([H])S(=O)(=O)C([H])([H])[H])c([H])c3[H])c([H])c([H])c2n1


 42 46  0  0  0  0  0  0  0  0999 V2000
    0.2055  -49.7570  -15.8692 C   0  0  0  0  0  0  0  0  0  0  0  0
   -0.7954  -49.3076  -15.0412 C   0  0  0  0  0  0  0  0  0  0  0  0
   -2.0214  -49.9516  -14.9869 C   0  0  0  0  0  0  0  0  0  0  0  0
   -2.2937  -51.0664  -15.7557 C   0  0  0  0  0  0  0  0  0  0  0  0
   -3.5062  -51.6759  -15.6818 N   0  0  0  0  0  0  0  0  0  0  0  0
   -3.7739  -52.7454  -16.4183 C   0  0  0  0  0  0  0  0  0  0  0  0
   -2.8185  -53.2043  -17.2326 N   0  0  0  0  0  0  0  0  0  0  0  0
   -1.5939  -52.6605  -17.3649 C   0  0  0  0  0  0  0  0  0  0  0  0
   -1.2894  -51.5340  -16.5999 C   0  0  0  0  0  0  0  0  0  0  0  0
   -0.0791  -50.8815  -16.6403 C   0  0  0  0  0  0  0  0  0  0  0  0
    3.1659  -47.8499  -16.5649 C   0  0  0  0  0  0  0  0  0  0  0  0
    3.5954  -48.4747  -15.4132 C   0  0  0  0  0  0  0  0  0  0  0  0
    2.5284  -49.2614  -15.0243 C   0  0  0  0  0  0  0  0  0  0  0  0
    1.4994  -49.0922  -15.9387 C   0  0  0  0  0  0  0  0  0  0  0  0
    1.9467  -48.2435  -16.8227 O   0  0  0  0  0  0  0  0  0  0  0  0
    3.9749  -46.8767  -17.3829 C   0  0  0  0  0  0  0  0  0  0  0  0
    3.8067  -46.0986  -19.6570 C   0  0  0  0  0  0  0  0  0  0  0  0
    3.1018  -46.4238  -18.4454 N   0  0  0  0  0  0  0  0  0  0  0  0
    2.4844  -47.2585  -18.6794 H   0  0  0  0  0  0  0  0  0  0  0  0
    4.2014  -45.6758  -16.4697 C   0  0  0  0  0  0  0  0  0  0  0  0
    5.9219  -45.3456  -16.2531 S   0  0  0  0  0  0  0  0  0  0  0  0
    6.0853  -43.8982  -15.2344 C   0  0  0  0  0  0  0  0  0  0  0  0
    6.5266  -45.1366  -17.6041 O   0  0  0  0  0  0  0  0  0  0  0  0
    6.5401  -46.5085  -15.5322 O   0  0  0  0  0  0  0  0  0  0  0  0
   -0.6009  -53.1909  -18.2096 N   0  0  0  0  0  0  0  0  0  0  0  0
    0.1475  -53.8250  -17.8205 H   0  0  0  0  0  0  0  0  0  0  0  0
   -0.5040  -52.9440  -19.6069 C   0  0  0  0  0  0  0  0  0  0  0  0
   -1.0153  -53.7644  -20.5686 C   0  0  0  0  0  0  0  0  0  0  0  0
   -0.8463  -53.4542  -21.9240 C   0  0  0  0  0  0  0  0  0  0  0  0
   -0.1720  -52.3316  -22.3183 C   0  0  0  0  0  0  0  0  0  0  0  0
    0.3423  -51.5041  -21.3737 C   0  0  0  0  0  0  0  0  0  0  0  0
    1.2076  -50.0624  -21.8645 Cl  0  0  0  0  0  0  0  0  0  0  0  0
    0.1811  -51.8016  -20.0456 C   0  0  0  0  0  0  0  0  0  0  0  0
   -0.0118  -52.0355  -23.6876 O   0  0  0  0  0  0  0  0  0  0  0  0
   -0.9091  -52.6006  -24.6291 C   0  0  0  0  0  0  0  0  0  0  0  0
   -0.2802  -52.7542  -25.9566 C   0  0  0  0  0  0  0  0  0  0  0  0
    1.0674  -53.0053  -26.1390 C   0  0  0  0  0  0  0  0  0  0  0  0
    1.6089  -53.1412  -27.4060 C   0  0  0  0  0  0  0  0  0  0  0  0
    0.8170  -53.0297  -28.5324 C   0  0  0  0  0  0  0  0  0  0  0  0
   -0.5325  -52.7787  -28.3650 C   0  0  0  0  0  0  0  0  0  0  0  0
   -1.3130  -52.6686  -29.4730 F   0  0  0  0  0  0  0  0  0  0  0  0
   -1.0563  -52.6460  -27.0972 C   0  0  0  0  0  0  0  0  0  0  0  0
 17 18  1  0  0  0
 18 16  1  0  0  0
 16 20  1  0  0  0
 20 21  1  0  0  0
 21 22  1  0  0  0
 21 23  2  0  0  0
 21 24  2  0  0  0
 16 11  1  0  0  0
 11 12  2  0  0  0
 12 13  1  0  0  0
 13 14  2  0  0  0
 14 15  1  0  0  0
 14  1  1  0  0  0
  1  2  2  0  0  0
  2  3  1  0  0  0
  3  4  2  0  0  0
  4  5  1  0  0  0
  5  6  2  0  0  0
  6  7  1  0  0  0
  7  8  2  0  0  0
  8 25  1  0  0  0
 25 27  1  0  0  0
 27 28  2  0  0  0
 28 29  1  0  0  0
 29 30  2  0  0  0
 30 34  1  0  0  0
 34 35  1  0  0  0
 35 36  1  0  0  0
 36 37  2  0  0  0
 37 38  1  0  0  0
 38 39  2  0  0  0
 39 40  1  0  0  0
 40 41  1  0  0  0
 40 42  2  0  0  0
 30 31  1  0  0  0
 31 32  1  0  0  0
 31 33  2  0  0  0
  8  9  1  0  0  0
  9 10  2  0  0  0
 15 11  1  0  0  0
 10  1  1  0  0  0
  9  4  1  0  0  0
 33 27  1  0  0  0
 42 36  1  0  0  0
 18 19  1  0  0  0
 25 26  1  0  0  0
M  END
> <minimizedAffinity>
-7.93921

> <CNNscore>
0.1463027000

> <CNNaffinity>
6.8891472816

> <CNN_VS>
1.0079008341

> <CNNaffinity_variance>
0.1421795040

$$$$
[H]c1nc(N([H])c2c([H])c([H])c(OC([H])([H])c3c([H])c([H])c([H])c(F)c3[H])c(Cl)c2[H])c2c([H])c(-c3oc(C([H])(N([H])C([H])([H])[H])C([H])([H])S(=O)(=O)C([H])([H])[H])c([H])c3[H])c([H])c([H])c2n1


 42 46  0  0  0  0  0  0  0  0999 V2000
   -0.3992  -52.9552  -20.8356 C   0  0  0  0  0  0  0  0  0  0  0  0
   -1.3937  -53.8348  -21.1917 C   0  0  0  0  0  0  0  0  0  0  0  0
   -1.4625  -54.3550  -22.4743 C   0  0  0  0  0  0  0  0  0  0  0  0
   -0.5428  -54.0174  -23.4481 C   0  0  0  0  0  0  0  0  0  0  0  0
   -0.6370  -54.5429  -24.6979 N   0  0  0  0  0  0  0  0  0  0  0  0
    0.2421  -54.2216  -25.6370 C   0  0  0  0  0  0  0  0  0  0  0  0
    1.2201  -53.3681  -25.3184 N   0  0  0  0  0  0  0  0  0  0  0  0
    1.3843  -52.8039  -24.1070 C   0  0  0  0  0  0  0  0  0  0  0  0
    0.4711  -53.1270  -23.1026 C   0  0  0  0  0  0  0  0  0  0  0  0
    0.5230  -52.6210  -21.8246 C   0  0  0  0  0  0  0  0  0  0  0  0
    0.2089  -51.1637  -17.7851 C   0  0  0  0  0  0  0  0  0  0  0  0
   -0.6577  -52.1151  -17.2901 C   0  0  0  0  0  0  0  0  0  0  0  0
   -0.9822  -52.8943  -18.3838 C   0  0  0  0  0  0  0  0  0  0  0  0
   -0.3122  -52.3990  -19.4925 C   0  0  0  0  0  0  0  0  0  0  0  0
    0.3734  -51.3751  -19.0643 O   0  0  0  0  0  0  0  0  0  0  0  0
    0.8538  -50.0668  -16.9778 C   0  0  0  0  0  0  0  0  0  0  0  0
   -0.2351  -49.3003  -14.9698 C   0  0  0  0  0  0  0  0  0  0  0  0
   -0.2323  -49.2969  -16.4089 N   0  0  0  0  0  0  0  0  0  0  0  0
   -0.0482  -48.2899  -16.7001 H   0  0  0  0  0  0  0  0  0  0  0  0
    1.5370  -50.7752  -15.8120 C   0  0  0  0  0  0  0  0  0  0  0  0
    3.2685  -50.4333  -15.7750 S   0  0  0  0  0  0  0  0  0  0  0  0
    3.5094  -48.7366  -16.2464 C   0  0  0  0  0  0  0  0  0  0  0  0
    3.9451  -51.3680  -16.7253 O   0  0  0  0  0  0  0  0  0  0  0  0
    3.7561  -50.6108  -14.3661 O   0  0  0  0  0  0  0  0  0  0  0  0
    2.4464  -51.9334  -23.7984 N   0  0  0  0  0  0  0  0  0  0  0  0
    3.1245  -52.1721  -23.0259 H   0  0  0  0  0  0  0  0  0  0  0  0
    2.7084  -50.7022  -24.4606 C   0  0  0  0  0  0  0  0  0  0  0  0
    2.7863  -50.5604  -25.8145 C   0  0  0  0  0  0  0  0  0  0  0  0
    3.0777  -49.3115  -26.3779 C   0  0  0  0  0  0  0  0  0  0  0  0
    3.2894  -48.2099  -25.5955 C   0  0  0  0  0  0  0  0  0  0  0  0
    3.2145  -48.3340  -24.2461 C   0  0  0  0  0  0  0  0  0  0  0  0
    3.4828  -46.9312  -23.2320 Cl  0  0  0  0  0  0  0  0  0  0  0  0
    2.9302  -49.5530  -23.6880 C   0  0  0  0  0  0  0  0  0  0  0  0
    3.5816  -46.9607  -26.1804 O   0  0  0  0  0  0  0  0  0  0  0  0
    4.4971  -46.8981  -27.2615 C   0  0  0  0  0  0  0  0  0  0  0  0
    3.8074  -46.6650  -28.5465 C   0  0  0  0  0  0  0  0  0  0  0  0
    2.6759  -45.8803  -28.6748 C   0  0  0  0  0  0  0  0  0  0  0  0
    2.0658  -45.6928  -29.9035 C   0  0  0  0  0  0  0  0  0  0  0  0
    2.5701  -46.2860  -31.0446 C   0  0  0  0  0  0  0  0  0  0  0  0
    3.7012  -47.0734  -30.9311 C   0  0  0  0  0  0  0  0  0  0  0  0
    4.1984  -47.6579  -32.0536 F   0  0  0  0  0  0  0  0  0  0  0  0
    4.2967  -47.2502  -29.7010 C   0  0  0  0  0  0  0  0  0  0  0  0
 17 18  1  0  0  0
 18 16  1  0  0  0
 16 20  1  0  0  0
 20 21  1  0  0  0
 21 22  1  0  0  0
 21 23  2  0  0  0
 21 24  2  0  0  0
 16 11  1  0  0  0
 11 12  2  0  0  0
 12 13  1  0  0  0
 13 14  2  0  0  0
 14 15  1  0  0  0
 14  1  1  0  0  0
  1  2  2  0  0  0
  2  3  1  0  0  0
  3  4  2  0  0  0
  4  5  1  0  0  0
  5  6  2  0  0  0
  6  7  1  0  0  0
  7  8  2  0  0  0
  8 25  1  0  0  0
 25 27  1  0  0  0
 27 28  2  0  0  0
 28 29  1  0  0  0
 29 30  2  0  0  0
 30 34  1  0  0  0
 34 35  1  0  0  0
 35 36  1  0  0  0
 36 37  2  0  0  0
 37 38  1  0  0  0
 38 39  2  0  0  0
 39 40  1  0  0  0
 40 41  1  0  0  0
 40 42  2  0  0  0
 30 31  1  0  0  0
 31 32  1  0  0  0
 31 33  2  0  0  0
  8  9  1  0  0  0
  9 10  2  0  0  0
 15 11  1  0  0  0
 10  1  1  0  0  0
  9  4  1  0  0  0
 33 27  1  0  0  0
 42 36  1  0  0  0
 18 19  1  0  0  0
 25 26  1  0  0  0
M  END
> <minimizedAffinity>
-8.30357

> <CNNscore>
0.1371365637

> <CNNaffinity>
6.8587560654

> <CNN_VS>
0.9405862093

> <CNNaffinity_variance>
0.1499533355

$$$$
[H]c1nc(N([H])c2c([H])c([H])c(OC([H])([H])c3c([H])c([H])c([H])c(F)c3[H])c(Cl)c2[H])c2c([H])c(-c3oc(C([H])(N([H])C([H])([H])[H])C([H])([H])S(=O)(=O)C([H])([H])[H])c([H])c3[H])c([H])c([H])c2n1


 42 46  0  0  0  0  0  0  0  0999 V2000
   -0.2188  -52.4586  -20.6020 C   0  0  0  0  0  0  0  0  0  0  0  0
   -0.9690  -53.6051  -20.4909 C   0  0  0  0  0  0  0  0  0  0  0  0
   -1.2213  -54.4042  -21.5947 C   0  0  0  0  0  0  0  0  0  0  0  0
   -0.7351  -54.0894  -22.8487 C   0  0  0  0  0  0  0  0  0  0  0  0
   -1.0004  -54.8920  -23.9129 N   0  0  0  0  0  0  0  0  0  0  0  0
   -0.5376  -54.5944  -25.1192 C   0  0  0  0  0  0  0  0  0  0  0  0
    0.1952  -53.4851  -25.2564 N   0  0  0  0  0  0  0  0  0  0  0  0
    0.5033  -52.6381  -24.2561 C   0  0  0  0  0  0  0  0  0  0  0  0
    0.0270  -52.9307  -22.9775 C   0  0  0  0  0  0  0  0  0  0  0  0
    0.2668  -52.1501  -21.8706 C   0  0  0  0  0  0  0  0  0  0  0  0
    0.0614  -50.7445  -17.4607 C   0  0  0  0  0  0  0  0  0  0  0  0
    0.9147  -49.9519  -18.1989 C   0  0  0  0  0  0  0  0  0  0  0  0
    0.9033  -50.5098  -19.4627 C   0  0  0  0  0  0  0  0  0  0  0  0
    0.0558  -51.6076  -19.4526 C   0  0  0  0  0  0  0  0  0  0  0  0
   -0.4072  -51.6869  -18.2356 O   0  0  0  0  0  0  0  0  0  0  0  0
   -0.2694  -50.5488  -16.0036 C   0  0  0  0  0  0  0  0  0  0  0  0
    0.5190  -52.2036  -14.4399 C   0  0  0  0  0  0  0  0  0  0  0  0
    0.8587  -51.0730  -15.2629 N   0  0  0  0  0  0  0  0  0  0  0  0
    1.5355  -51.4378  -15.9987 H   0  0  0  0  0  0  0  0  0  0  0  0
   -0.2613  -49.0383  -15.7895 C   0  0  0  0  0  0  0  0  0  0  0  0
   -1.3182  -48.5702  -14.4553 S   0  0  0  0  0  0  0  0  0  0  0  0
   -2.8441  -47.9692  -15.1406 C   0  0  0  0  0  0  0  0  0  0  0  0
   -0.6201  -47.5139  -13.6607 O   0  0  0  0  0  0  0  0  0  0  0  0
   -1.6127  -49.7918  -13.6337 O   0  0  0  0  0  0  0  0  0  0  0  0
    1.3056  -51.4952  -24.4318 N   0  0  0  0  0  0  0  0  0  0  0  0
    0.9190  -50.6413  -24.9166 H   0  0  0  0  0  0  0  0  0  0  0  0
    2.6542  -51.3726  -23.9965 C   0  0  0  0  0  0  0  0  0  0  0  0
    3.5841  -52.3654  -24.0900 C   0  0  0  0  0  0  0  0  0  0  0  0
    4.8835  -52.1632  -23.6077 C   0  0  0  0  0  0  0  0  0  0  0  0
    5.2538  -50.9771  -23.0361 C   0  0  0  0  0  0  0  0  0  0  0  0
    4.3403  -49.9785  -22.9362 C   0  0  0  0  0  0  0  0  0  0  0  0
    4.8011  -48.4540  -22.2070 Cl  0  0  0  0  0  0  0  0  0  0  0  0
    3.0670  -50.1695  -23.4057 C   0  0  0  0  0  0  0  0  0  0  0  0
    6.5666  -50.7917  -22.5561 O   0  0  0  0  0  0  0  0  0  0  0  0
    7.5928  -50.4291  -23.4651 C   0  0  0  0  0  0  0  0  0  0  0  0
    8.3568  -49.2596  -22.9857 C   0  0  0  0  0  0  0  0  0  0  0  0
    8.5589  -48.9755  -21.6474 C   0  0  0  0  0  0  0  0  0  0  0  0
    9.2836  -47.8651  -21.2490 C   0  0  0  0  0  0  0  0  0  0  0  0
    9.8299  -47.0024  -22.1795 C   0  0  0  0  0  0  0  0  0  0  0  0
    9.6358  -47.2742  -23.5213 C   0  0  0  0  0  0  0  0  0  0  0  0
   10.1730  -46.4257  -24.4381 F   0  0  0  0  0  0  0  0  0  0  0  0
    8.9120  -48.3835  -23.9017 C   0  0  0  0  0  0  0  0  0  0  0  0
 17 18  1  0  0  0
 18 16  1  0  0  0
 16 20  1  0  0  0
 20 21  1  0  0  0
 21 22  1  0  0  0
 21 23  2  0  0  0
 21 24  2  0  0  0
 16 11  1  0  0  0
 11 12  2  0  0  0
 12 13  1  0  0  0
 13 14  2  0  0  0
 14 15  1  0  0  0
 14  1  1  0  0  0
  1  2  2  0  0  0
  2  3  1  0  0  0
  3  4  2  0  0  0
  4  5  1  0  0  0
  5  6  2  0  0  0
  6  7  1  0  0  0
  7  8  2  0  0  0
  8 25  1  0  0  0
 25 27  1  0  0  0
 27 28  2  0  0  0
 28 29  1  0  0  0
 29 30  2  0  0  0
 30 34  1  0  0  0
 34 35  1  0  0  0
 35 36  1  0  0  0
 36 37  2  0  0  0
 37 38  1  0  0  0
 38 39  2  0  0  0
 39 40  1  0  0  0
 40 41  1  0  0  0
 40 42  2  0  0  0
 30 31  1  0  0  0
 31 32  1  0  0  0
 31 33  2  0  0  0
  8  9  1  0  0  0
  9 10  2  0  0  0
 15 11  1  0  0  0
 10  1  1  0  0  0
  9  4  1  0  0  0
 33 27  1  0  0  0
 42 36  1  0  0  0
 18 19  1  0  0  0
 25 26  1  0  0  0
M  END
> <minimizedAffinity>
-7.64245

> <CNNscore>
0.1336654276

> <CNNaffinity>
6.7673749924

> <CNN_VS>
0.9045640826

> <CNNaffinity_variance>
0.1283667088

$$$$
[H]c1nc(N([H])c2c([H])c([H])c(OC([H])([H])c3c([H])c([H])c([H])c(F)c3[H])c(Cl)c2[H])c2c([H])c(-c3oc(C([H])(N([H])C([H])([H])[H])C([H])([H])S(=O)(=O)C([H])([H])[H])c([H])c3[H])c([H])c([H])c2n1


 42 46  0  0  0  0  0  0  0  0999 V2000
    0.6707  -49.5012  -16.6913 C   0  0  0  0  0  0  0  0  0  0  0  0
   -0.1597  -48.8854  -15.7853 C   0  0  0  0  0  0  0  0  0  0  0  0
   -1.3649  -49.4603  -15.4146 C   0  0  0  0  0  0  0  0  0  0  0  0
   -1.7859  -50.6693  -15.9334 C   0  0  0  0  0  0  0  0  0  0  0  0
   -2.9740  -51.2076  -15.5517 N   0  0  0  0  0  0  0  0  0  0  0  0
   -3.3839  -52.3671  -16.0472 C   0  0  0  0  0  0  0  0  0  0  0  0
   -2.5961  -52.9881  -16.9304 N   0  0  0  0  0  0  0  0  0  0  0  0
   -1.4075  -52.5243  -17.3604 C   0  0  0  0  0  0  0  0  0  0  0  0
   -0.9554  -51.3057  -16.8528 C   0  0  0  0  0  0  0  0  0  0  0  0
    0.2371  -50.7196  -17.2087 C   0  0  0  0  0  0  0  0  0  0  0  0
    3.6112  -48.1772  -18.2677 C   0  0  0  0  0  0  0  0  0  0  0  0
    3.9549  -47.9242  -16.9565 C   0  0  0  0  0  0  0  0  0  0  0  0
    2.8859  -48.3947  -16.2186 C   0  0  0  0  0  0  0  0  0  0  0  0
    1.9404  -48.9111  -17.0920 C   0  0  0  0  0  0  0  0  0  0  0  0
    2.4362  -48.7489  -18.2876 O   0  0  0  0  0  0  0  0  0  0  0  0
    4.4564  -47.8458  -19.4705 C   0  0  0  0  0  0  0  0  0  0  0  0
    4.3222  -45.4443  -19.6118 C   0  0  0  0  0  0  0  0  0  0  0  0
    5.0926  -46.5790  -19.1762 N   0  0  0  0  0  0  0  0  0  0  0  0
    5.1280  -46.5201  -18.1142 H   0  0  0  0  0  0  0  0  0  0  0  0
    5.5658  -48.8930  -19.4823 C   0  0  0  0  0  0  0  0  0  0  0  0
    5.4662  -49.9221  -20.9131 S   0  0  0  0  0  0  0  0  0  0  0  0
    4.9920  -48.9083  -22.2939 C   0  0  0  0  0  0  0  0  0  0  0  0
    4.4562  -50.9909  -20.6449 O   0  0  0  0  0  0  0  0  0  0  0  0
    6.8295  -50.4896  -21.1840 O   0  0  0  0  0  0  0  0  0  0  0  0
   -0.5890  -53.2222  -18.2681 N   0  0  0  0  0  0  0  0  0  0  0  0
    0.1381  -53.9017  -17.9172 H   0  0  0  0  0  0  0  0  0  0  0  0
   -0.6507  -53.0953  -19.6834 C   0  0  0  0  0  0  0  0  0  0  0  0
   -1.4170  -53.8819  -20.4918 C   0  0  0  0  0  0  0  0  0  0  0  0
   -1.3923  -53.7022  -21.8807 C   0  0  0  0  0  0  0  0  0  0  0  0
   -0.6085  -52.7429  -22.4603 C   0  0  0  0  0  0  0  0  0  0  0  0
    0.1594  -51.9511  -21.6697 C   0  0  0  0  0  0  0  0  0  0  0  0
    1.1676  -50.7179  -22.3984 Cl  0  0  0  0  0  0  0  0  0  0  0  0
    0.1405  -52.1216  -20.3099 C   0  0  0  0  0  0  0  0  0  0  0  0
   -0.5965  -52.5765  -23.8604 O   0  0  0  0  0  0  0  0  0  0  0  0
   -0.3516  -53.6999  -24.6903 C   0  0  0  0  0  0  0  0  0  0  0  0
    0.6693  -53.4067  -25.7166 C   0  0  0  0  0  0  0  0  0  0  0  0
    1.9715  -53.0492  -25.4184 C   0  0  0  0  0  0  0  0  0  0  0  0
    2.8918  -52.7842  -26.4183 C   0  0  0  0  0  0  0  0  0  0  0  0
    2.5368  -52.8688  -27.7506 C   0  0  0  0  0  0  0  0  0  0  0  0
    1.2380  -53.2252  -28.0635 C   0  0  0  0  0  0  0  0  0  0  0  0
    0.8874  -53.3087  -29.3746 F   0  0  0  0  0  0  0  0  0  0  0  0
    0.3337  -53.4859  -27.0567 C   0  0  0  0  0  0  0  0  0  0  0  0
 17 18  1  0  0  0
 18 16  1  0  0  0
 16 20  1  0  0  0
 20 21  1  0  0  0
 21 22  1  0  0  0
 21 23  2  0  0  0
 21 24  2  0  0  0
 16 11  1  0  0  0
 11 12  2  0  0  0
 12 13  1  0  0  0
 13 14  2  0  0  0
 14 15  1  0  0  0
 14  1  1  0  0  0
  1  2  2  0  0  0
  2  3  1  0  0  0
  3  4  2  0  0  0
  4  5  1  0  0  0
  5  6  2  0  0  0
  6  7  1  0  0  0
  7  8  2  0  0  0
  8 25  1  0  0  0
 25 27  1  0  0  0
 27 28  2  0  0  0
 28 29  1  0  0  0
 29 30  2  0  0  0
 30 34  1  0  0  0
 34 35  1  0  0  0
 35 36  1  0  0  0
 36 37  2  0  0  0
 37 38  1  0  0  0
 38 39  2  0  0  0
 39 40  1  0  0  0
 40 41  1  0  0  0
 40 42  2  0  0  0
 30 31  1  0  0  0
 31 32  1  0  0  0
 31 33  2  0  0  0
  8  9  1  0  0  0
  9 10  2  0  0  0
 15 11  1  0  0  0
 10  1  1  0  0  0
  9  4  1  0  0  0
 33 27  1  0  0  0
 42 36  1  0  0  0
 18 19  1  0  0  0
 25 26  1  0  0  0
M  END
> <minimizedAffinity>
-8.24858

> <CNNscore>
0.1283669323

> <CNNaffinity>
6.8457098007

> <CNN_VS>
0.8787627816

> <CNNaffinity_variance>
0.2607978582

$$$$
[H]c1nc(N([H])c2c([H])c([H])c(OC([H])([H])c3c([H])c([H])c([H])c(F)c3[H])c(Cl)c2[H])c2c([H])c(-c3oc(C([H])(N([H])C([H])([H])[H])C([H])([H])S(=O)(=O)C([H])([H])[H])c([H])c3[H])c([H])c([H])c2n1


 42 46  0  0  0  0  0  0  0  0999 V2000
    0.2346  -49.6945  -15.7705 C   0  0  0  0  0  0  0  0  0  0  0  0
   -0.7485  -49.2464  -14.9206 C   0  0  0  0  0  0  0  0  0  0  0  0
   -1.9769  -49.8839  -14.8490 C   0  0  0  0  0  0  0  0  0  0  0  0
   -2.2696  -50.9909  -15.6217 C   0  0  0  0  0  0  0  0  0  0  0  0
   -3.4841  -51.5941  -15.5306 N   0  0  0  0  0  0  0  0  0  0  0  0
   -3.7713  -52.6560  -16.2707 C   0  0  0  0  0  0  0  0  0  0  0  0
   -2.8337  -53.1136  -17.1061 N   0  0  0  0  0  0  0  0  0  0  0  0
   -1.6086  -52.5756  -17.2564 C   0  0  0  0  0  0  0  0  0  0  0  0
   -1.2836  -51.4570  -16.4880 C   0  0  0  0  0  0  0  0  0  0  0  0
   -0.0705  -50.8111  -16.5453 C   0  0  0  0  0  0  0  0  0  0  0  0
    3.3208  -47.9019  -15.3881 C   0  0  0  0  0  0  0  0  0  0  0  0
    3.4871  -48.3118  -16.6941 C   0  0  0  0  0  0  0  0  0  0  0  0
    2.3437  -49.0318  -16.9819 C   0  0  0  0  0  0  0  0  0  0  0  0
    1.5308  -49.0365  -15.8583 C   0  0  0  0  0  0  0  0  0  0  0  0
    2.1721  -48.3490  -14.9539 O   0  0  0  0  0  0  0  0  0  0  0  0
    4.3055  -47.0762  -14.6010 C   0  0  0  0  0  0  0  0  0  0  0  0
    5.0760  -48.7514  -13.0502 C   0  0  0  0  0  0  0  0  0  0  0  0
    5.3746  -47.9775  -14.2261 N   0  0  0  0  0  0  0  0  0  0  0  0
    5.4500  -48.6753  -15.0261 H   0  0  0  0  0  0  0  0  0  0  0  0
    4.9010  -46.0954  -15.6065 C   0  0  0  0  0  0  0  0  0  0  0  0
    4.0435  -44.5525  -15.5881 S   0  0  0  0  0  0  0  0  0  0  0  0
    2.9368  -44.5161  -16.9784 C   0  0  0  0  0  0  0  0  0  0  0  0
    5.0587  -43.4580  -15.6664 O   0  0  0  0  0  0  0  0  0  0  0  0
    3.2299  -44.4780  -14.3286 O   0  0  0  0  0  0  0  0  0  0  0  0
   -0.6342  -53.1045  -18.1234 N   0  0  0  0  0  0  0  0  0  0  0  0
    0.1855  -53.6459  -17.7380 H   0  0  0  0  0  0  0  0  0  0  0  0
   -0.6485  -52.9749  -19.5398 C   0  0  0  0  0  0  0  0  0  0  0  0
   -1.3190  -53.8132  -20.3805 C   0  0  0  0  0  0  0  0  0  0  0  0
   -1.2523  -53.6245  -21.7668 C   0  0  0  0  0  0  0  0  0  0  0  0
   -0.5216  -52.6049  -22.3118 C   0  0  0  0  0  0  0  0  0  0  0  0
    0.1510  -51.7611  -21.4887 C   0  0  0  0  0  0  0  0  0  0  0  0
    1.0902  -50.4505  -22.1730 Cl  0  0  0  0  0  0  0  0  0  0  0  0
    0.0904  -51.9401  -20.1313 C   0  0  0  0  0  0  0  0  0  0  0  0
   -0.4660  -52.4304  -23.7098 O   0  0  0  0  0  0  0  0  0  0  0  0
   -0.2029  -53.5504  -24.5388 C   0  0  0  0  0  0  0  0  0  0  0  0
    0.8814  -53.2722  -25.5022 C   0  0  0  0  0  0  0  0  0  0  0  0
    0.6941  -53.2296  -26.8717 C   0  0  0  0  0  0  0  0  0  0  0  0
    1.7446  -52.9642  -27.7337 C   0  0  0  0  0  0  0  0  0  0  0  0
    3.0181  -52.7328  -27.2510 C   0  0  0  0  0  0  0  0  0  0  0  0
    3.2200  -52.7722  -25.8837 C   0  0  0  0  0  0  0  0  0  0  0  0
    4.4731  -52.5447  -25.4074 F   0  0  0  0  0  0  0  0  0  0  0  0
    2.1640  -53.0377  -25.0389 C   0  0  0  0  0  0  0  0  0  0  0  0
 17 18  1  0  0  0
 18 16  1  0  0  0
 16 20  1  0  0  0
 20 21  1  0  0  0
 21 22  1  0  0  0
 21 23  2  0  0  0
 21 24  2  0  0  0
 16 11  1  0  0  0
 11 12  2  0  0  0
 12 13  1  0  0  0
 13 14  2  0  0  0
 14 15  1  0  0  0
 14  1  1  0  0  0
  1  2  2  0  0  0
  2  3  1  0  0  0
  3  4  2  0  0  0
  4  5  1  0  0  0
  5  6  2  0  0  0
  6  7  1  0  0  0
  7  8  2  0  0  0
  8 25  1  0  0  0
 25 27  1  0  0  0
 27 28  2  0  0  0
 28 29  1  0  0  0
 29 30  2  0  0  0
 30 34  1  0  0  0
 34 35  1  0  0  0
 35 36  1  0  0  0
 36 37  2  0  0  0
 37 38  1  0  0  0
 38 39  2  0  0  0
 39 40  1  0  0  0
 40 41  1  0  0  0
 40 42  2  0  0  0
 30 31  1  0  0  0
 31 32  1  0  0  0
 31 33  2  0  0  0
  8  9  1  0  0  0
  9 10  2  0  0  0
 15 11  1  0  0  0
 10  1  1  0  0  0
  9  4  1  0  0  0
 33 27  1  0  0  0
 42 36  1  0  0  0
 18 19  1  0  0  0
 25 26  1  0  0  0
M  END
> <minimizedAffinity>
-7.70860

> <CNNscore>
0.1263675392

> <CNNaffinity>
6.6262526512

> <CNN_VS>
0.8373432159

> <CNNaffinity_variance>
0.1480362713

$$$$
[H]c1nc2c(c(Oc3c([H])c([H])c4c(c3[H])[C@]3([H])[C@]([H])(O4)[C@@]3([H])N([H])C(=O)c3c([H])c([H])c(C([H])([H])N4C([H])([H])C([H])([H])C([H])([H])[C@@]([H])(N(C([H])([H])[H])C([H])([H])[H])C4([H])[H])c(C(F)(F)F)c3[H])c1[H])C([H])([H])C([H])([H])C(=O)N2[H]


 47 53  0  0  0  0  0  0  0  0999 V2000
    2.6261  -46.2118  -27.4899 C   0  0  0  0  0  0  0  0  0  0  0  0
    1.4121  -45.9624  -27.2898 O   0  0  0  0  0  0  0  0  0  0  0  0
    3.4238  -46.8226  -26.4872 N   0  0  0  0  0  0  0  0  0  0  0  0
    4.4307  -47.0205  -26.6741 H   0  0  0  0  0  0  0  0  0  0  0  0
    2.8422  -47.1612  -25.2276 C   0  0  0  0  0  0  0  0  0  0  0  0
    3.4665  -46.5564  -24.0120 C   0  0  0  0  0  0  0  0  0  0  0  0
    2.6409  -46.4025  -22.8998 O   0  0  0  0  0  0  0  0  0  0  0  0
    2.3129  -47.6689  -22.4493 C   0  0  0  0  0  0  0  0  0  0  0  0
    1.5208  -48.0549  -21.3704 C   0  0  0  0  0  0  0  0  0  0  0  0
    1.3374  -49.3913  -21.1179 C   0  0  0  0  0  0  0  0  0  0  0  0
    1.8905  -50.4013  -21.8689 C   0  0  0  0  0  0  0  0  0  0  0  0
    2.6879  -50.0039  -22.9552 C   0  0  0  0  0  0  0  0  0  0  0  0
    2.8657  -48.6626  -23.1999 C   0  0  0  0  0  0  0  0  0  0  0  0
    3.6522  -47.9873  -24.2743 C   0  0  0  0  0  0  0  0  0  0  0  0
    1.6772  -51.7000  -21.5776 O   0  0  0  0  0  0  0  0  0  0  0  0
    0.6801  -52.5739  -21.7003 C   0  0  0  0  0  0  0  0  0  0  0  0
   -0.0965  -52.8121  -20.5420 C   0  0  0  0  0  0  0  0  0  0  0  0
   -1.1413  -53.7030  -20.5886 C   0  0  0  0  0  0  0  0  0  0  0  0
   -1.4554  -54.3645  -21.7058 N   0  0  0  0  0  0  0  0  0  0  0  0
   -0.7255  -54.1619  -22.8552 C   0  0  0  0  0  0  0  0  0  0  0  0
   -1.0819  -54.9086  -24.0071 N   0  0  0  0  0  0  0  0  0  0  0  0
   -0.3006  -54.7062  -25.1698 C   0  0  0  0  0  0  0  0  0  0  0  0
   -0.2947  -55.5373  -26.1313 O   0  0  0  0  0  0  0  0  0  0  0  0
    0.5495  -53.5075  -25.3165 C   0  0  0  0  0  0  0  0  0  0  0  0
    1.0934  -52.9913  -24.0416 C   0  0  0  0  0  0  0  0  0  0  0  0
    0.3245  -53.2709  -22.8305 C   0  0  0  0  0  0  0  0  0  0  0  0
   -1.8698  -55.5699  -24.0107 H   0  0  0  0  0  0  0  0  0  0  0  0
    4.2569  -45.3135  -31.3452 C   0  0  0  0  0  0  0  0  0  0  0  0
    4.8536  -44.8743  -30.1854 C   0  0  0  0  0  0  0  0  0  0  0  0
    4.3593  -45.1348  -28.9093 C   0  0  0  0  0  0  0  0  0  0  0  0
    3.2182  -45.8667  -28.7771 C   0  0  0  0  0  0  0  0  0  0  0  0
    2.6090  -46.3135  -29.9164 C   0  0  0  0  0  0  0  0  0  0  0  0
    3.0813  -46.0668  -31.2031 C   0  0  0  0  0  0  0  0  0  0  0  0
    2.3564  -46.5740  -32.3712 C   0  0  0  0  0  0  0  0  0  0  0  0
    2.4431  -45.7983  -33.5023 F   0  0  0  0  0  0  0  0  0  0  0  0
    2.6556  -47.9040  -32.6458 F   0  0  0  0  0  0  0  0  0  0  0  0
    0.9948  -46.5886  -32.0590 F   0  0  0  0  0  0  0  0  0  0  0  0
    4.7939  -45.0852  -32.6766 C   0  0  0  0  0  0  0  0  0  0  0  0
    7.4511  -47.0189  -31.8928 C   0  0  0  0  0  0  0  0  0  0  0  0
    7.8772  -45.6259  -31.4990 C   0  0  0  0  0  0  0  0  0  0  0  0
    7.6206  -44.7117  -32.6729 C   0  0  0  0  0  0  0  0  0  0  0  0
    6.8542  -45.4452  -33.7302 C   0  0  0  0  0  0  0  0  0  0  0  0
    5.6635  -46.0960  -33.2194 N   0  0  0  0  0  0  0  0  0  0  0  0
    6.0109  -47.1110  -32.2431 C   0  0  0  0  0  0  0  0  0  0  0  0
    8.9707  -47.5188  -30.1205 C   0  0  0  0  0  0  0  0  0  0  0  0
    7.8331  -47.9887  -30.8675 N   0  0  0  0  0  0  0  0  0  0  0  0
    6.7623  -48.3166  -29.9762 C   0  0  0  0  0  0  0  0  0  0  0  0
 45 46  1  0  0  0
 46 47  1  0  0  0
 46 39  1  0  0  0
 39 40  1  0  0  0
 40 41  1  0  0  0
 41 42  1  0  0  0
 42 43  1  0  0  0
 43 38  1  0  0  0
 38 28  1  0  0  0
 28 29  2  0  0  0
 29 30  1  0  0  0
 30 31  2  0  0  0
 31 32  1  0  0  0
 32 33  2  0  0  0
 33 34  1  0  0  0
 34 35  1  0  0  0
 34 36  1  0  0  0
 34 37  1  0  0  0
 31  1  1  0  0  0
  1  2  2  0  0  0
  1  3  1  0  0  0
  3  5  1  0  0  0
  5  6  1  0  0  0
  6  7  1  0  0  0
  7  8  1  0  0  0
  8  9  2  0  0  0
  9 10  1  0  0  0
 10 11  2  0  0  0
 11 15  1  0  0  0
 15 16  1  0  0  0
 16 17  2  0  0  0
 17 18  1  0  0  0
 18 19  2  0  0  0
 19 20  1  0  0  0
 20 21  1  0  0  0
 21 22  1  0  0  0
 22 23  2  0  0  0
 22 24  1  0  0  0
 24 25  1  0  0  0
 25 26  1  0  0  0
 11 12  1  0  0  0
 12 13  2  0  0  0
 13 14  1  0  0  0
 43 44  1  0  0  0
 44 39  1  0  0  0
 33 28  1  0  0  0
 14  5  1  0  0  0
 14  6  1  0  0  0
 13  8  1  0  0  0
 26 16  1  0  0  0
 26 20  2  0  0  0
  3  4  1  0  0  0
 21 27  1  0  0  0
M  END
> <minimizedAffinity>
-9.44128

> <CNNscore>
0.4663045406

> <CNNaffinity>
7.0099754333

> <CNN_VS>
3.2687833309

> <CNNaffinity_variance>
0.2885867059

$$$$
[H]c1nc2c(c(Oc3c([H])c([H])c4c(c3[H])[C@]3([H])[C@]([H])(O4)[C@@]3([H])N([H])C(=O)c3c([H])c([H])c(C([H])([H])N4C([H])([H])C([H])([H])C([H])([H])[C@@]([H])(N(C([H])([H])[H])C([H])([H])[H])C4([H])[H])c(C(F)(F)F)c3[H])c1[H])C([H])([H])C([H])([H])C(=O)N2[H]


 47 53  0  0  0  0  0  0  0  0999 V2000
    2.4041  -45.9774  -26.9980 C   0  0  0  0  0  0  0  0  0  0  0  0
    1.2061  -45.7087  -26.7363 O   0  0  0  0  0  0  0  0  0  0  0  0
    3.2076  -46.7084  -26.0843 N   0  0  0  0  0  0  0  0  0  0  0  0
    4.2011  -46.9204  -26.3213 H   0  0  0  0  0  0  0  0  0  0  0  0
    2.6505  -47.1480  -24.8450 C   0  0  0  0  0  0  0  0  0  0  0  0
    3.3136  -46.6619  -23.5971 C   0  0  0  0  0  0  0  0  0  0  0  0
    2.5173  -46.5945  -22.4553 O   0  0  0  0  0  0  0  0  0  0  0  0
    2.1788  -47.8906  -22.1096 C   0  0  0  0  0  0  0  0  0  0  0  0
    1.4061  -48.3584  -21.0491 C   0  0  0  0  0  0  0  0  0  0  0  0
    1.2061  -49.7090  -20.9102 C   0  0  0  0  0  0  0  0  0  0  0  0
    1.7241  -50.6570  -21.7606 C   0  0  0  0  0  0  0  0  0  0  0  0
    2.5021  -50.1773  -22.8276 C   0  0  0  0  0  0  0  0  0  0  0  0
    2.6967  -48.8224  -22.9581 C   0  0  0  0  0  0  0  0  0  0  0  0
    3.4688  -48.0668  -23.9885 C   0  0  0  0  0  0  0  0  0  0  0  0
    1.4958  -51.9730  -21.5790 O   0  0  0  0  0  0  0  0  0  0  0  0
    0.5142  -52.8351  -21.8363 C   0  0  0  0  0  0  0  0  0  0  0  0
   -0.3656  -53.1270  -20.7676 C   0  0  0  0  0  0  0  0  0  0  0  0
   -1.4018  -54.0096  -20.9543 C   0  0  0  0  0  0  0  0  0  0  0  0
   -1.6119  -54.6132  -22.1273 N   0  0  0  0  0  0  0  0  0  0  0  0
   -0.7794  -54.3571  -23.1933 C   0  0  0  0  0  0  0  0  0  0  0  0
   -1.0285  -55.0439  -24.4089 N   0  0  0  0  0  0  0  0  0  0  0  0
   -0.1436  -54.7875  -25.4834 C   0  0  0  0  0  0  0  0  0  0  0  0
   -0.0493  -55.5697  -26.4807 O   0  0  0  0  0  0  0  0  0  0  0  0
    0.7165  -53.5869  -25.4913 C   0  0  0  0  0  0  0  0  0  0  0  0
    1.1409  -53.1374  -24.1477 C   0  0  0  0  0  0  0  0  0  0  0  0
    0.2640  -53.4733  -23.0278 C   0  0  0  0  0  0  0  0  0  0  0  0
   -1.8127  -55.7005  -24.5179 H   0  0  0  0  0  0  0  0  0  0  0  0
    4.1820  -44.5621  -30.6264 C   0  0  0  0  0  0  0  0  0  0  0  0
    2.9991  -45.2654  -30.6250 C   0  0  0  0  0  0  0  0  0  0  0  0
    2.3844  -45.7516  -29.4732 C   0  0  0  0  0  0  0  0  0  0  0  0
    2.9712  -45.5290  -28.2644 C   0  0  0  0  0  0  0  0  0  0  0  0
    4.1470  -44.8320  -28.2425 C   0  0  0  0  0  0  0  0  0  0  0  0
    4.7824  -44.3360  -29.3781 C   0  0  0  0  0  0  0  0  0  0  0  0
    6.0499  -43.6096  -29.2635 C   0  0  0  0  0  0  0  0  0  0  0  0
    7.1832  -44.3797  -29.3688 F   0  0  0  0  0  0  0  0  0  0  0  0
    6.1079  -42.5061  -30.1077 F   0  0  0  0  0  0  0  0  0  0  0  0
    6.1163  -43.0608  -27.9805 F   0  0  0  0  0  0  0  0  0  0  0  0
    4.8031  -44.0116  -31.8198 C   0  0  0  0  0  0  0  0  0  0  0  0
    7.2198  -46.2283  -32.6325 C   0  0  0  0  0  0  0  0  0  0  0  0
    7.9753  -44.9767  -32.2585 C   0  0  0  0  0  0  0  0  0  0  0  0
    7.3779  -43.8247  -33.0304 C   0  0  0  0  0  0  0  0  0  0  0  0
    6.1322  -44.2736  -33.7302 C   0  0  0  0  0  0  0  0  0  0  0  0
    5.1945  -44.9403  -32.8479 N   0  0  0  0  0  0  0  0  0  0  0  0
    5.7728  -46.1554  -32.3065 C   0  0  0  0  0  0  0  0  0  0  0  0
    7.7514  -47.3986  -30.6206 C   0  0  0  0  0  0  0  0  0  0  0  0
    7.8567  -47.4116  -32.0564 N   0  0  0  0  0  0  0  0  0  0  0  0
    7.3364  -48.6396  -32.5755 C   0  0  0  0  0  0  0  0  0  0  0  0
 45 46  1  0  0  0
 46 47  1  0  0  0
 46 39  1  0  0  0
 39 40  1  0  0  0
 40 41  1  0  0  0
 41 42  1  0  0  0
 42 43  1  0  0  0
 43 38  1  0  0  0
 38 28  1  0  0  0
 28 29  2  0  0  0
 29 30  1  0  0  0
 30 31  2  0  0  0
 31 32  1  0  0  0
 32 33  2  0  0  0
 33 34  1  0  0  0
 34 35  1  0  0  0
 34 36  1  0  0  0
 34 37  1  0  0  0
 31  1  1  0  0  0
  1  2  2  0  0  0
  1  3  1  0  0  0
  3  5  1  0  0  0
  5  6  1  0  0  0
  6  7  1  0  0  0
  7  8  1  0  0  0
  8  9  2  0  0  0
  9 10  1  0  0  0
 10 11  2  0  0  0
 11 15  1  0  0  0
 15 16  1  0  0  0
 16 17  2  0  0  0
 17 18  1  0  0  0
 18 19  2  0  0  0
 19 20  1  0  0  0
 20 21  1  0  0  0
 21 22  1  0  0  0
 22 23  2  0  0  0
 22 24  1  0  0  0
 24 25  1  0  0  0
 25 26  1  0  0  0
 11 12  1  0  0  0
 12 13  2  0  0  0
 13 14  1  0  0  0
 43 44  1  0  0  0
 44 39  1  0  0  0
 33 28  1  0  0  0
 14  5  1  0  0  0
 14  6  1  0  0  0
 13  8  1  0  0  0
 26 16  1  0  0  0
 26 20  2  0  0  0
  3  4  1  0  0  0
 21 27  1  0  0  0
M  END
> <minimizedAffinity>
-8.42157

> <CNNscore>
0.4542588592

> <CNNaffinity>
6.8938484192

> <CNN_VS>
3.1315917969

> <CNNaffinity_variance>
0.3231970370

$$$$
[H]c1nc2c(c(Oc3c([H])c([H])c4c(c3[H])[C@]3([H])[C@]([H])(O4)[C@@]3([H])N([H])C(=O)c3c([H])c([H])c(C([H])([H])N4C([H])([H])C([H])([H])C([H])([H])[C@@]([H])(N(C([H])([H])[H])C([H])([H])[H])C4([H])[H])c(C(F)(F)F)c3[H])c1[H])C([H])([H])C([H])([H])C(=O)N2[H]


 47 53  0  0  0  0  0  0  0  0999 V2000
    2.6267  -45.7898  -25.4590 C   0  0  0  0  0  0  0  0  0  0  0  0
    1.8721  -44.9774  -24.8704 O   0  0  0  0  0  0  0  0  0  0  0  0
    3.3032  -46.8121  -24.7436 N   0  0  0  0  0  0  0  0  0  0  0  0
    3.9262  -47.4765  -25.2521 H   0  0  0  0  0  0  0  0  0  0  0  0
    3.1273  -46.9237  -23.3307 C   0  0  0  0  0  0  0  0  0  0  0  0
    4.2464  -46.4325  -22.4707 C   0  0  0  0  0  0  0  0  0  0  0  0
    3.9060  -46.0145  -21.1856 O   0  0  0  0  0  0  0  0  0  0  0  0
    3.4805  -47.1301  -20.4865 C   0  0  0  0  0  0  0  0  0  0  0  0
    3.0402  -47.2438  -19.1699 C   0  0  0  0  0  0  0  0  0  0  0  0
    2.6637  -48.4744  -18.6930 C   0  0  0  0  0  0  0  0  0  0  0  0
    2.6895  -49.6306  -19.4363 C   0  0  0  0  0  0  0  0  0  0  0  0
    3.1347  -49.5076  -20.7632 C   0  0  0  0  0  0  0  0  0  0  0  0
    3.5097  -48.2704  -21.2315 C   0  0  0  0  0  0  0  0  0  0  0  0
    4.0105  -47.8757  -22.5815 C   0  0  0  0  0  0  0  0  0  0  0  0
    2.3072  -50.8151  -18.9187 O   0  0  0  0  0  0  0  0  0  0  0  0
    1.1605  -51.4199  -18.6150 C   0  0  0  0  0  0  0  0  0  0  0  0
    0.6459  -51.1825  -17.3187 C   0  0  0  0  0  0  0  0  0  0  0  0
   -0.5317  -51.7737  -16.9299 C   0  0  0  0  0  0  0  0  0  0  0  0
   -1.2196  -52.5789  -17.7441 N   0  0  0  0  0  0  0  0  0  0  0  0
   -0.7542  -52.8363  -19.0138 C   0  0  0  0  0  0  0  0  0  0  0  0
   -1.5068  -53.7192  -19.8295 N   0  0  0  0  0  0  0  0  0  0  0  0
   -0.9955  -53.9925  -21.1207 C   0  0  0  0  0  0  0  0  0  0  0  0
   -1.3745  -54.9999  -21.7967 O   0  0  0  0  0  0  0  0  0  0  0  0
    0.0103  -53.1087  -21.7439 C   0  0  0  0  0  0  0  0  0  0  0  0
    0.9262  -52.4601  -20.7805 C   0  0  0  0  0  0  0  0  0  0  0  0
    0.4233  -52.2513  -19.4242 C   0  0  0  0  0  0  0  0  0  0  0  0
   -2.3854  -54.1479  -19.5096 H   0  0  0  0  0  0  0  0  0  0  0  0
    3.3054  -45.3835  -29.6666 C   0  0  0  0  0  0  0  0  0  0  0  0
    2.0659  -45.7004  -29.1595 C   0  0  0  0  0  0  0  0  0  0  0  0
    1.7960  -45.8495  -27.8009 C   0  0  0  0  0  0  0  0  0  0  0  0
    2.8043  -45.6754  -26.9019 C   0  0  0  0  0  0  0  0  0  0  0  0
    4.0439  -45.3597  -27.3838 C   0  0  0  0  0  0  0  0  0  0  0  0
    4.3406  -45.2056  -28.7357 C   0  0  0  0  0  0  0  0  0  0  0  0
    5.7028  -44.8788  -29.1656 C   0  0  0  0  0  0  0  0  0  0  0  0
    6.3911  -45.9008  -29.7740 F   0  0  0  0  0  0  0  0  0  0  0  0
    5.7560  -43.7128  -29.9215 F   0  0  0  0  0  0  0  0  0  0  0  0
    6.4532  -44.5801  -28.0256 F   0  0  0  0  0  0  0  0  0  0  0  0
    3.5820  -45.1801  -31.0791 C   0  0  0  0  0  0  0  0  0  0  0  0
    5.1262  -47.6764  -32.7519 C   0  0  0  0  0  0  0  0  0  0  0  0
    5.9236  -46.4448  -33.1048 C   0  0  0  0  0  0  0  0  0  0  0  0
    4.9569  -45.3819  -33.5689 C   0  0  0  0  0  0  0  0  0  0  0  0
    3.5497  -45.8345  -33.3275 C   0  0  0  0  0  0  0  0  0  0  0  0
    3.3233  -46.2830  -31.9675 N   0  0  0  0  0  0  0  0  0  0  0  0
    4.1416  -47.4420  -31.6652 C   0  0  0  0  0  0  0  0  0  0  0  0
    7.3745  -48.4784  -32.7918 C   0  0  0  0  0  0  0  0  0  0  0  0
    6.0113  -48.8032  -32.4615 N   0  0  0  0  0  0  0  0  0  0  0  0
    5.9281  -49.2488  -31.1040 C   0  0  0  0  0  0  0  0  0  0  0  0
 45 46  1  0  0  0
 46 47  1  0  0  0
 46 39  1  0  0  0
 39 40  1  0  0  0
 40 41  1  0  0  0
 41 42  1  0  0  0
 42 43  1  0  0  0
 43 38  1  0  0  0
 38 28  1  0  0  0
 28 29  2  0  0  0
 29 30  1  0  0  0
 30 31  2  0  0  0
 31 32  1  0  0  0
 32 33  2  0  0  0
 33 34  1  0  0  0
 34 35  1  0  0  0
 34 36  1  0  0  0
 34 37  1  0  0  0
 31  1  1  0  0  0
  1  2  2  0  0  0
  1  3  1  0  0  0
  3  5  1  0  0  0
  5  6  1  0  0  0
  6  7  1  0  0  0
  7  8  1  0  0  0
  8  9  2  0  0  0
  9 10  1  0  0  0
 10 11  2  0  0  0
 11 15  1  0  0  0
 15 16  1  0  0  0
 16 17  2  0  0  0
 17 18  1  0  0  0
 18 19  2  0  0  0
 19 20  1  0  0  0
 20 21  1  0  0  0
 21 22  1  0  0  0
 22 23  2  0  0  0
 22 24  1  0  0  0
 24 25  1  0  0  0
 25 26  1  0  0  0
 11 12  1  0  0  0
 12 13  2  0  0  0
 13 14  1  0  0  0
 43 44  1  0  0  0
 44 39  1  0  0  0
 33 28  1  0  0  0
 14  5  1  0  0  0
 14  6  1  0  0  0
 13  8  1  0  0  0
 26 16  1  0  0  0
 26 20  2  0  0  0
  3  4  1  0  0  0
 21 27  1  0  0  0
M  END
> <minimizedAffinity>
-8.38030

> <CNNscore>
0.4216551483

> <CNNaffinity>
6.7352218628

> <CNN_VS>
2.8399410248

> <CNNaffinity_variance>
0.2879210413

$$$$
[H]c1nc2c(c(Oc3c([H])c([H])c4c(c3[H])[C@]3([H])[C@]([H])(O4)[C@@]3([H])N([H])C(=O)c3c([H])c([H])c(C([H])([H])N4C([H])([H])C([H])([H])C([H])([H])[C@@]([H])(N(C([H])([H])[H])C([H])([H])[H])C4([H])[H])c(C(F)(F)F)c3[H])c1[H])C([H])([H])C([H])([H])C(=O)N2[H]


 47 53  0  0  0  0  0  0  0  0999 V2000
    2.6125  -45.7220  -25.6314 C   0  0  0  0  0  0  0  0  0  0  0  0
    1.7645  -45.0056  -25.0452 O   0  0  0  0  0  0  0  0  0  0  0  0
    3.3137  -46.7431  -24.9384 N   0  0  0  0  0  0  0  0  0  0  0  0
    4.0148  -47.3267  -25.4444 H   0  0  0  0  0  0  0  0  0  0  0  0
    3.0555  -46.9642  -23.5513 C   0  0  0  0  0  0  0  0  0  0  0  0
    4.0950  -46.4908  -22.5878 C   0  0  0  0  0  0  0  0  0  0  0  0
    3.6563  -46.1817  -21.3016 O   0  0  0  0  0  0  0  0  0  0  0  0
    3.2399  -47.3618  -20.7115 C   0  0  0  0  0  0  0  0  0  0  0  0
    2.7240  -47.5890  -19.4376 C   0  0  0  0  0  0  0  0  0  0  0  0
    2.3755  -48.8654  -19.0735 C   0  0  0  0  0  0  0  0  0  0  0  0
    2.5006  -49.9625  -19.8925 C   0  0  0  0  0  0  0  0  0  0  0  0
    3.0215  -49.7252  -21.1755 C   0  0  0  0  0  0  0  0  0  0  0  0
    3.3678  -48.4428  -21.5308 C   0  0  0  0  0  0  0  0  0  0  0  0
    3.9330  -47.9307  -22.8142 C   0  0  0  0  0  0  0  0  0  0  0  0
    2.1417  -51.1963  -19.4849 O   0  0  0  0  0  0  0  0  0  0  0  0
    1.0772  -51.9878  -19.5996 C   0  0  0  0  0  0  0  0  0  0  0  0
    0.9649  -52.7242  -20.8023 C   0  0  0  0  0  0  0  0  0  0  0  0
   -0.1076  -53.5607  -20.9963 C   0  0  0  0  0  0  0  0  0  0  0  0
   -1.0649  -53.7057  -20.0761 N   0  0  0  0  0  0  0  0  0  0  0  0
   -0.9940  -53.0078  -18.8917 C   0  0  0  0  0  0  0  0  0  0  0  0
   -2.0492  -53.1758  -17.9590 N   0  0  0  0  0  0  0  0  0  0  0  0
   -1.9710  -52.4272  -16.7604 C   0  0  0  0  0  0  0  0  0  0  0  0
   -2.9865  -52.2277  -16.0225 O   0  0  0  0  0  0  0  0  0  0  0  0
   -0.6921  -51.8406  -16.3113 C   0  0  0  0  0  0  0  0  0  0  0  0
    0.2119  -51.4443  -17.4127 C   0  0  0  0  0  0  0  0  0  0  0  0
    0.0745  -52.1658  -18.6763 C   0  0  0  0  0  0  0  0  0  0  0  0
   -2.8405  -53.8094  -18.1334 H   0  0  0  0  0  0  0  0  0  0  0  0
    3.4977  -44.9363  -29.7458 C   0  0  0  0  0  0  0  0  0  0  0  0
    2.4186  -45.7033  -29.3701 C   0  0  0  0  0  0  0  0  0  0  0  0
    2.0924  -45.9922  -28.0469 C   0  0  0  0  0  0  0  0  0  0  0  0
    2.8742  -45.4959  -27.0481 C   0  0  0  0  0  0  0  0  0  0  0  0
    3.9515  -44.7309  -27.3987 C   0  0  0  0  0  0  0  0  0  0  0  0
    4.3000  -44.4278  -28.7125 C   0  0  0  0  0  0  0  0  0  0  0  0
    5.4814  -43.6096  -28.9986 C   0  0  0  0  0  0  0  0  0  0  0  0
    5.3360  -42.6984  -30.0169 F   0  0  0  0  0  0  0  0  0  0  0  0
    6.0035  -43.0126  -27.8563 F   0  0  0  0  0  0  0  0  0  0  0  0
    6.4995  -44.4620  -29.4331 F   0  0  0  0  0  0  0  0  0  0  0  0
    3.8153  -44.5923  -31.1221 C   0  0  0  0  0  0  0  0  0  0  0  0
    6.2435  -46.4538  -32.5548 C   0  0  0  0  0  0  0  0  0  0  0  0
    6.6871  -45.0291  -32.7797 C   0  0  0  0  0  0  0  0  0  0  0  0
    5.5277  -44.2701  -33.3790 C   0  0  0  0  0  0  0  0  0  0  0  0
    4.2953  -45.1208  -33.3525 C   0  0  0  0  0  0  0  0  0  0  0  0
    4.0196  -45.6796  -32.0434 N   0  0  0  0  0  0  0  0  0  0  0  0
    5.0897  -46.5657  -31.6267 C   0  0  0  0  0  0  0  0  0  0  0  0
    7.5733  -47.1990  -30.7174 C   0  0  0  0  0  0  0  0  0  0  0  0
    7.3692  -47.2894  -32.1397 N   0  0  0  0  0  0  0  0  0  0  0  0
    7.2268  -48.6592  -32.5289 C   0  0  0  0  0  0  0  0  0  0  0  0
 45 46  1  0  0  0
 46 47  1  0  0  0
 46 39  1  0  0  0
 39 40  1  0  0  0
 40 41  1  0  0  0
 41 42  1  0  0  0
 42 43  1  0  0  0
 43 38  1  0  0  0
 38 28  1  0  0  0
 28 29  2  0  0  0
 29 30  1  0  0  0
 30 31  2  0  0  0
 31 32  1  0  0  0
 32 33  2  0  0  0
 33 34  1  0  0  0
 34 35  1  0  0  0
 34 36  1  0  0  0
 34 37  1  0  0  0
 31  1  1  0  0  0
  1  2  2  0  0  0
  1  3  1  0  0  0
  3  5  1  0  0  0
  5  6  1  0  0  0
  6  7  1  0  0  0
  7  8  1  0  0  0
  8  9  2  0  0  0
  9 10  1  0  0  0
 10 11  2  0  0  0
 11 15  1  0  0  0
 15 16  1  0  0  0
 16 17  2  0  0  0
 17 18  1  0  0  0
 18 19  2  0  0  0
 19 20  1  0  0  0
 20 21  1  0  0  0
 21 22  1  0  0  0
 22 23  2  0  0  0
 22 24  1  0  0  0
 24 25  1  0  0  0
 25 26  1  0  0  0
 11 12  1  0  0  0
 12 13  2  0  0  0
 13 14  1  0  0  0
 43 44  1  0  0  0
 44 39  1  0  0  0
 33 28  1  0  0  0
 14  5  1  0  0  0
 14  6  1  0  0  0
 13  8  1  0  0  0
 26 16  1  0  0  0
 26 20  2  0  0  0
  3  4  1  0  0  0
 21 27  1  0  0  0
M  END
> <minimizedAffinity>
-7.36645

> <CNNscore>
0.3511200249

> <CNNaffinity>
6.5228447914

> <CNN_VS>
2.2903013229

> <CNNaffinity_variance>
0.3791565597

$$$$
[H]c1nc2c(c(Oc3c([H])c([H])c4c(c3[H])[C@]3([H])[C@]([H])(O4)[C@@]3([H])N([H])C(=O)c3c([H])c([H])c(C([H])([H])N4C([H])([H])C([H])([H])C([H])([H])[C@@]([H])(N(C([H])([H])[H])C([H])([H])[H])C4([H])[H])c(C(F)(F)F)c3[H])c1[H])C([H])([H])C([H])([H])C(=O)N2[H]


 47 53  0  0  0  0  0  0  0  0999 V2000
    3.8480  -46.1052  -25.6899 C   0  0  0  0  0  0  0  0  0  0  0  0
    2.7210  -45.5728  -25.5403 O   0  0  0  0  0  0  0  0  0  0  0  0
    4.3067  -47.1120  -24.8006 N   0  0  0  0  0  0  0  0  0  0  0  0
    5.2469  -47.5409  -24.9427 H   0  0  0  0  0  0  0  0  0  0  0  0
    3.4778  -47.5305  -23.7156 C   0  0  0  0  0  0  0  0  0  0  0  0
    3.9049  -47.1207  -22.3434 C   0  0  0  0  0  0  0  0  0  0  0  0
    2.8989  -47.0134  -21.3849 O   0  0  0  0  0  0  0  0  0  0  0  0
    2.4046  -48.2858  -21.1593 C   0  0  0  0  0  0  0  0  0  0  0  0
    1.3999  -48.7124  -20.2939 C   0  0  0  0  0  0  0  0  0  0  0  0
    1.0792  -50.0459  -20.2446 C   0  0  0  0  0  0  0  0  0  0  0  0
    1.6908  -51.0148  -21.0044 C   0  0  0  0  0  0  0  0  0  0  0  0
    2.7029  -50.5767  -21.8747 C   0  0  0  0  0  0  0  0  0  0  0  0
    3.0168  -49.2386  -21.9167 C   0  0  0  0  0  0  0  0  0  0  0  0
    4.0356  -48.5257  -22.7430 C   0  0  0  0  0  0  0  0  0  0  0  0
    1.3362  -52.3125  -20.9179 O   0  0  0  0  0  0  0  0  0  0  0  0
    0.3089  -53.0683  -21.3004 C   0  0  0  0  0  0  0  0  0  0  0  0
   -0.6384  -53.3974  -20.3024 C   0  0  0  0  0  0  0  0  0  0  0  0
   -1.7248  -54.1765  -20.6190 C   0  0  0  0  0  0  0  0  0  0  0  0
   -1.9223  -54.6434  -21.8549 N   0  0  0  0  0  0  0  0  0  0  0  0
   -1.0248  -54.3464  -22.8556 C   0  0  0  0  0  0  0  0  0  0  0  0
   -1.2650  -54.8886  -24.1439 N   0  0  0  0  0  0  0  0  0  0  0  0
   -0.3149  -54.5945  -25.1509 C   0  0  0  0  0  0  0  0  0  0  0  0
   -0.2301  -55.2790  -26.2185 O   0  0  0  0  0  0  0  0  0  0  0  0
    0.6278  -53.4673  -25.0023 C   0  0  0  0  0  0  0  0  0  0  0  0
    1.0198  -53.1865  -23.6041 C   0  0  0  0  0  0  0  0  0  0  0  0
    0.0699  -53.5646  -22.5598 C   0  0  0  0  0  0  0  0  0  0  0  0
   -2.0880  -55.4702  -24.3502 H   0  0  0  0  0  0  0  0  0  0  0  0
    6.4143  -45.0019  -28.9343 C   0  0  0  0  0  0  0  0  0  0  0  0
    5.5761  -44.0920  -28.3312 C   0  0  0  0  0  0  0  0  0  0  0  0
    4.7192  -44.4030  -27.2777 C   0  0  0  0  0  0  0  0  0  0  0  0
    4.6927  -45.6778  -26.7990 C   0  0  0  0  0  0  0  0  0  0  0  0
    5.5177  -46.5980  -27.3833 C   0  0  0  0  0  0  0  0  0  0  0  0
    6.3826  -46.3141  -28.4372 C   0  0  0  0  0  0  0  0  0  0  0  0
    7.2238  -47.3666  -29.0131 C   0  0  0  0  0  0  0  0  0  0  0  0
    6.9453  -47.6975  -30.3175 F   0  0  0  0  0  0  0  0  0  0  0  0
    8.5805  -47.1208  -28.8322 F   0  0  0  0  0  0  0  0  0  0  0  0
    6.9921  -48.5427  -28.2954 F   0  0  0  0  0  0  0  0  0  0  0  0
    7.3445  -44.6724  -30.0016 C   0  0  0  0  0  0  0  0  0  0  0  0
    6.1041  -45.2988  -33.0812 C   0  0  0  0  0  0  0  0  0  0  0  0
    7.3995  -46.0717  -33.0389 C   0  0  0  0  0  0  0  0  0  0  0  0
    8.4864  -45.1327  -32.5734 C   0  0  0  0  0  0  0  0  0  0  0  0
    7.8816  -43.8386  -32.1232 C   0  0  0  0  0  0  0  0  0  0  0  0
    6.8076  -44.0171  -31.1656 N   0  0  0  0  0  0  0  0  0  0  0  0
    5.7072  -44.7532  -31.7582 C   0  0  0  0  0  0  0  0  0  0  0  0
    4.9024  -47.3606  -33.0135 C   0  0  0  0  0  0  0  0  0  0  0  0
    5.0419  -46.0976  -33.6903 N   0  0  0  0  0  0  0  0  0  0  0  0
    3.7815  -45.4207  -33.7307 C   0  0  0  0  0  0  0  0  0  0  0  0
 45 46  1  0  0  0
 46 47  1  0  0  0
 46 39  1  0  0  0
 39 40  1  0  0  0
 40 41  1  0  0  0
 41 42  1  0  0  0
 42 43  1  0  0  0
 43 38  1  0  0  0
 38 28  1  0  0  0
 28 29  2  0  0  0
 29 30  1  0  0  0
 30 31  2  0  0  0
 31 32  1  0  0  0
 32 33  2  0  0  0
 33 34  1  0  0  0
 34 35  1  0  0  0
 34 36  1  0  0  0
 34 37  1  0  0  0
 31  1  1  0  0  0
  1  2  2  0  0  0
  1  3  1  0  0  0
  3  5  1  0  0  0
  5  6  1  0  0  0
  6  7  1  0  0  0
  7  8  1  0  0  0
  8  9  2  0  0  0
  9 10  1  0  0  0
 10 11  2  0  0  0
 11 15  1  0  0  0
 15 16  1  0  0  0
 16 17  2  0  0  0
 17 18  1  0  0  0
 18 19  2  0  0  0
 19 20  1  0  0  0
 20 21  1  0  0  0
 21 22  1  0  0  0
 22 23  2  0  0  0
 22 24  1  0  0  0
 24 25  1  0  0  0
 25 26  1  0  0  0
 11 12  1  0  0  0
 12 13  2  0  0  0
 13 14  1  0  0  0
 43 44  1  0  0  0
 44 39  1  0  0  0
 33 28  1  0  0  0
 14  5  1  0  0  0
 14  6  1  0  0  0
 13  8  1  0  0  0
 26 16  1  0  0  0
 26 20  2  0  0  0
  3  4  1  0  0  0
 21 27  1  0  0  0
M  END
> <minimizedAffinity>
-7.48608

> <CNNscore>
0.3213155568

> <CNNaffinity>
6.7357473373

> <CNN_VS>
2.1643004417

> <CNNaffinity_variance>
0.7826985121

$$$$
[H]c1nc2c(c(Oc3c([H])c([H])c4c(c3[H])[C@]3([H])[C@]([H])(O4)[C@@]3([H])N([H])C(=O)c3c([H])c([H])c(C([H])([H])N4C([H])([H])C([H])([H])C([H])([H])[C@@]([H])(N(C([H])([H])[H])C([H])([H])[H])C4([H])[H])c(C(F)(F)F)c3[H])c1[H])C([H])([H])C([H])([H])C(=O)N2[H]


 47 53  0  0  0  0  0  0  0  0999 V2000
    4.3111  -47.6754  -21.9660 C   0  0  0  0  0  0  0  0  0  0  0  0
    5.3835  -48.2553  -22.2657 O   0  0  0  0  0  0  0  0  0  0  0  0
    3.9081  -46.4893  -22.6334 N   0  0  0  0  0  0  0  0  0  0  0  0
    3.0134  -46.0230  -22.3684 H   0  0  0  0  0  0  0  0  0  0  0  0
    4.7315  -45.9409  -23.6633 C   0  0  0  0  0  0  0  0  0  0  0  0
    5.6448  -44.8240  -23.2738 C   0  0  0  0  0  0  0  0  0  0  0  0
    6.7947  -44.6631  -24.0447 O   0  0  0  0  0  0  0  0  0  0  0  0
    6.3936  -44.2726  -25.3099 C   0  0  0  0  0  0  0  0  0  0  0  0
    7.1572  -43.9812  -26.4379 C   0  0  0  0  0  0  0  0  0  0  0  0
    6.5247  -43.6106  -27.5981 C   0  0  0  0  0  0  0  0  0  0  0  0
    5.1608  -43.5034  -27.7327 C   0  0  0  0  0  0  0  0  0  0  0  0
    4.3975  -43.7991  -26.5907 C   0  0  0  0  0  0  0  0  0  0  0  0
    5.0406  -44.1693  -25.4332 C   0  0  0  0  0  0  0  0  0  0  0  0
    4.4702  -44.5313  -24.1018 C   0  0  0  0  0  0  0  0  0  0  0  0
    4.5898  -43.1359  -28.8972 O   0  0  0  0  0  0  0  0  0  0  0  0
    4.7552  -43.4066  -30.1903 C   0  0  0  0  0  0  0  0  0  0  0  0
    5.6105  -42.5411  -30.9119 C   0  0  0  0  0  0  0  0  0  0  0  0
    5.8290  -42.7535  -32.2515 C   0  0  0  0  0  0  0  0  0  0  0  0
    5.2529  -43.7635  -32.9090 N   0  0  0  0  0  0  0  0  0  0  0  0
    4.4138  -44.6292  -32.2446 C   0  0  0  0  0  0  0  0  0  0  0  0
    3.8057  -45.6688  -32.9935 N   0  0  0  0  0  0  0  0  0  0  0  0
    2.9244  -46.5300  -32.2971 C   0  0  0  0  0  0  0  0  0  0  0  0
    2.0767  -47.2593  -32.9012 O   0  0  0  0  0  0  0  0  0  0  0  0
    2.9534  -46.6188  -30.8231 C   0  0  0  0  0  0  0  0  0  0  0  0
    3.3380  -45.3602  -30.1483 C   0  0  0  0  0  0  0  0  0  0  0  0
    4.1834  -44.4354  -30.9005 C   0  0  0  0  0  0  0  0  0  0  0  0
    3.9883  -45.8018  -33.9970 H   0  0  0  0  0  0  0  0  0  0  0  0
    1.7576  -49.4157  -19.0028 C   0  0  0  0  0  0  0  0  0  0  0  0
    2.5920  -48.3606  -18.7116 C   0  0  0  0  0  0  0  0  0  0  0  0
    3.4447  -47.7644  -19.6380 C   0  0  0  0  0  0  0  0  0  0  0  0
    3.4708  -48.2373  -20.9151 C   0  0  0  0  0  0  0  0  0  0  0  0
    2.6496  -49.2849  -21.2264 C   0  0  0  0  0  0  0  0  0  0  0  0
    1.7889  -49.8991  -20.3200 C   0  0  0  0  0  0  0  0  0  0  0  0
    0.9516  -51.0270  -20.7369 C   0  0  0  0  0  0  0  0  0  0  0  0
    1.1013  -52.1774  -20.0002 F   0  0  0  0  0  0  0  0  0  0  0  0
   -0.3884  -50.6766  -20.8609 F   0  0  0  0  0  0  0  0  0  0  0  0
    1.3305  -51.3879  -22.0323 F   0  0  0  0  0  0  0  0  0  0  0  0
    0.8317  -50.0104  -18.0531 C   0  0  0  0  0  0  0  0  0  0  0  0
    0.8153  -51.1572  -14.8752 C   0  0  0  0  0  0  0  0  0  0  0  0
   -0.3940  -51.8009  -15.5079 C   0  0  0  0  0  0  0  0  0  0  0  0
   -1.1998  -50.7159  -16.1809 C   0  0  0  0  0  0  0  0  0  0  0  0
   -0.4316  -49.4303  -16.1684 C   0  0  0  0  0  0  0  0  0  0  0  0
    0.9159  -49.5695  -16.6852 N   0  0  0  0  0  0  0  0  0  0  0  0
    1.6931  -50.4729  -15.8584 C   0  0  0  0  0  0  0  0  0  0  0  0
    2.6372  -51.4795  -13.3663 C   0  0  0  0  0  0  0  0  0  0  0  0
    1.5491  -52.1213  -14.0569 N   0  0  0  0  0  0  0  0  0  0  0  0
    0.7163  -52.8156  -13.1227 C   0  0  0  0  0  0  0  0  0  0  0  0
 45 46  1  0  0  0
 46 47  1  0  0  0
 46 39  1  0  0  0
 39 40  1  0  0  0
 40 41  1  0  0  0
 41 42  1  0  0  0
 42 43  1  0  0  0
 43 38  1  0  0  0
 38 28  1  0  0  0
 28 29  2  0  0  0
 29 30  1  0  0  0
 30 31  2  0  0  0
 31 32  1  0  0  0
 32 33  2  0  0  0
 33 34  1  0  0  0
 34 35  1  0  0  0
 34 36  1  0  0  0
 34 37  1  0  0  0
 31  1  1  0  0  0
  1  2  2  0  0  0
  1  3  1  0  0  0
  3  5  1  0  0  0
  5  6  1  0  0  0
  6  7  1  0  0  0
  7  8  1  0  0  0
  8  9  2  0  0  0
  9 10  1  0  0  0
 10 11  2  0  0  0
 11 15  1  0  0  0
 15 16  1  0  0  0
 16 17  2  0  0  0
 17 18  1  0  0  0
 18 19  2  0  0  0
 19 20  1  0  0  0
 20 21  1  0  0  0
 21 22  1  0  0  0
 22 23  2  0  0  0
 22 24  1  0  0  0
 24 25  1  0  0  0
 25 26  1  0  0  0
 11 12  1  0  0  0
 12 13  2  0  0  0
 13 14  1  0  0  0
 43 44  1  0  0  0
 44 39  1  0  0  0
 33 28  1  0  0  0
 14  5  1  0  0  0
 14  6  1  0  0  0
 13  8  1  0  0  0
 26 16  1  0  0  0
 26 20  2  0  0  0
  3  4  1  0  0  0
 21 27  1  0  0  0
M  END
> <minimizedAffinity>
-6.50328

> <CNNscore>
0.1558068246

> <CNNaffinity>
5.8626017570

> <CNN_VS>
0.9134333730

> <CNNaffinity_variance>
0.5949980021

$$$$
[H]c1nc2c(c(Oc3c([H])c([H])c4c(c3[H])[C@]3([H])[C@]([H])(O4)[C@@]3([H])N([H])C(=O)c3c([H])c([H])c(C([H])([H])N4C([H])([H])C([H])([H])C([H])([H])[C@@]([H])(N(C([H])([H])[H])C([H])([H])[H])C4([H])[H])c(C(F)(F)F)c3[H])c1[H])C([H])([H])C([H])([H])C(=O)N2[H]


 47 53  0  0  0  0  0  0  0  0999 V2000
    2.6603  -45.5450  -24.8864 C   0  0  0  0  0  0  0  0  0  0  0  0
    2.0232  -44.6381  -24.2968 O   0  0  0  0  0  0  0  0  0  0  0  0
    3.2825  -46.5941  -24.1606 N   0  0  0  0  0  0  0  0  0  0  0  0
    3.8076  -47.3375  -24.6702 H   0  0  0  0  0  0  0  0  0  0  0  0
    3.1866  -46.6243  -22.7360 C   0  0  0  0  0  0  0  0  0  0  0  0
    4.3759  -46.1435  -21.9695 C   0  0  0  0  0  0  0  0  0  0  0  0
    4.1320  -45.6441  -20.6915 O   0  0  0  0  0  0  0  0  0  0  0  0
    3.6996  -46.7006  -19.9098 C   0  0  0  0  0  0  0  0  0  0  0  0
    3.3341  -46.7252  -18.5658 C   0  0  0  0  0  0  0  0  0  0  0  0
    2.9322  -47.9102  -18.0021 C   0  0  0  0  0  0  0  0  0  0  0  0
    2.8618  -49.1030  -18.6820 C   0  0  0  0  0  0  0  0  0  0  0  0
    3.2319  -49.0700  -20.0369 C   0  0  0  0  0  0  0  0  0  0  0  0
    3.6332  -47.8779  -20.5923 C   0  0  0  0  0  0  0  0  0  0  0  0
    4.0695  -47.5776  -21.9882 C   0  0  0  0  0  0  0  0  0  0  0  0
    2.4585  -50.2397  -18.0799 O   0  0  0  0  0  0  0  0  0  0  0  0
    2.4031  -50.7163  -16.8379 C   0  0  0  0  0  0  0  0  0  0  0  0
    3.6346  -51.0880  -16.2490 C   0  0  0  0  0  0  0  0  0  0  0  0
    3.6590  -51.5912  -14.9708 C   0  0  0  0  0  0  0  0  0  0  0  0
    2.5438  -51.7461  -14.2520 N   0  0  0  0  0  0  0  0  0  0  0  0
    1.3245  -51.3967  -14.7872 C   0  0  0  0  0  0  0  0  0  0  0  0
    0.1678  -51.6059  -13.9938 N   0  0  0  0  0  0  0  0  0  0  0  0
   -1.0778  -51.2667  -14.5739 C   0  0  0  0  0  0  0  0  0  0  0  0
   -2.1775  -51.7136  -14.1194 O   0  0  0  0  0  0  0  0  0  0  0  0
   -1.1533  -50.3687  -15.7441 C   0  0  0  0  0  0  0  0  0  0  0  0
    0.0101  -50.4596  -16.6528 C   0  0  0  0  0  0  0  0  0  0  0  0
    1.2785  -50.8878  -16.0663 C   0  0  0  0  0  0  0  0  0  0  0  0
    0.2180  -51.9860  -13.0393 H   0  0  0  0  0  0  0  0  0  0  0  0
    3.0904  -45.3615  -29.1421 C   0  0  0  0  0  0  0  0  0  0  0  0
    1.9251  -45.7911  -28.5490 C   0  0  0  0  0  0  0  0  0  0  0  0
    1.7382  -45.8743  -27.1710 C   0  0  0  0  0  0  0  0  0  0  0  0
    2.7562  -45.5136  -26.3411 C   0  0  0  0  0  0  0  0  0  0  0  0
    3.9229  -45.0833  -26.9090 C   0  0  0  0  0  0  0  0  0  0  0  0
    4.1360  -44.9915  -28.2822 C   0  0  0  0  0  0  0  0  0  0  0  0
    5.4251  -44.5314  -28.8055 C   0  0  0  0  0  0  0  0  0  0  0  0
    6.1397  -45.4641  -29.5182 F   0  0  0  0  0  0  0  0  0  0  0  0
    5.3179  -43.3341  -29.5045 F   0  0  0  0  0  0  0  0  0  0  0  0
    6.2436  -44.2184  -27.7174 F   0  0  0  0  0  0  0  0  0  0  0  0
    3.2745  -45.2276  -30.5778 C   0  0  0  0  0  0  0  0  0  0  0  0
    4.8743  -47.6934  -32.2437 C   0  0  0  0  0  0  0  0  0  0  0  0
    5.5431  -46.4281  -32.7222 C   0  0  0  0  0  0  0  0  0  0  0  0
    4.4631  -45.4674  -33.1584 C   0  0  0  0  0  0  0  0  0  0  0  0
    3.1187  -46.0084  -32.7802 C   0  0  0  0  0  0  0  0  0  0  0  0
    3.0345  -46.3950  -31.3854 N   0  0  0  0  0  0  0  0  0  0  0  0
    3.9619  -47.4714  -31.0932 C   0  0  0  0  0  0  0  0  0  0  0  0
    7.1441  -48.3773  -32.5262 C   0  0  0  0  0  0  0  0  0  0  0  0
    5.8647  -48.7336  -31.9704 N   0  0  0  0  0  0  0  0  0  0  0  0
    6.0003  -49.0292  -30.5767 C   0  0  0  0  0  0  0  0  0  0  0  0
 45 46  1  0  0  0
 46 47  1  0  0  0
 46 39  1  0  0  0
 39 40  1  0  0  0
 40 41  1  0  0  0
 41 42  1  0  0  0
 42 43  1  0  0  0
 43 38  1  0  0  0
 38 28  1  0  0  0
 28 29  2  0  0  0
 29 30  1  0  0  0
 30 31  2  0  0  0
 31 32  1  0  0  0
 32 33  2  0  0  0
 33 34  1  0  0  0
 34 35  1  0  0  0
 34 36  1  0  0  0
 34 37  1  0  0  0
 31  1  1  0  0  0
  1  2  2  0  0  0
  1  3  1  0  0  0
  3  5  1  0  0  0
  5  6  1  0  0  0
  6  7  1  0  0  0
  7  8  1  0  0  0
  8  9  2  0  0  0
  9 10  1  0  0  0
 10 11  2  0  0  0
 11 15  1  0  0  0
 15 16  1  0  0  0
 16 17  2  0  0  0
 17 18  1  0  0  0
 18 19  2  0  0  0
 19 20  1  0  0  0
 20 21  1  0  0  0
 21 22  1  0  0  0
 22 23  2  0  0  0
 22 24  1  0  0  0
 24 25  1  0  0  0
 25 26  1  0  0  0
 11 12  1  0  0  0
 12 13  2  0  0  0
 13 14  1  0  0  0
 43 44  1  0  0  0
 44 39  1  0  0  0
 33 28  1  0  0  0
 14  5  1  0  0  0
 14  6  1  0  0  0
 13  8  1  0  0  0
 26 16  1  0  0  0
 26 20  2  0  0  0
  3  4  1  0  0  0
 21 27  1  0  0  0
M  END
> <minimizedAffinity>
-7.13044

> <CNNscore>
0.1518961936

> <CNNaffinity>
5.6570997238

> <CNN_VS>
0.8592919111

> <CNNaffinity_variance>
0.1794537455

$$$$
[H]c1nc2c(c(Oc3c([H])c([H])c4c(c3[H])[C@]3([H])[C@]([H])(O4)[C@@]3([H])N([H])C(=O)c3c([H])c([H])c(C([H])([H])N4C([H])([H])C([H])([H])C([H])([H])[C@@]([H])(N(C([H])([H])[H])C([H])([H])[H])C4([H])[H])c(C(F)(F)F)c3[H])c1[H])C([H])([H])C([H])([H])C(=O)N2[H]


 47 53  0  0  0  0  0  0  0  0999 V2000
    3.5579  -49.9839  -24.7128 C   0  0  0  0  0  0  0  0  0  0  0  0
    4.1314  -51.1004  -24.6893 O   0  0  0  0  0  0  0  0  0  0  0  0
    2.4606  -49.7055  -23.8565 N   0  0  0  0  0  0  0  0  0  0  0  0
    1.9980  -48.7713  -23.8926 H   0  0  0  0  0  0  0  0  0  0  0  0
    1.9961  -50.7077  -22.9513 C   0  0  0  0  0  0  0  0  0  0  0  0
    0.7415  -51.4272  -23.3275 C   0  0  0  0  0  0  0  0  0  0  0  0
    0.5822  -52.7117  -22.8107 O   0  0  0  0  0  0  0  0  0  0  0  0
    0.4395  -52.5915  -21.4398 C   0  0  0  0  0  0  0  0  0  0  0  0
    0.2489  -53.5759  -20.4727 C   0  0  0  0  0  0  0  0  0  0  0  0
    0.1338  -53.2082  -19.1556 C   0  0  0  0  0  0  0  0  0  0  0  0
    0.1943  -51.9093  -18.7093 C   0  0  0  0  0  0  0  0  0  0  0  0
    0.3868  -50.9223  -19.6905 C   0  0  0  0  0  0  0  0  0  0  0  0
    0.5008  -51.3009  -21.0074 C   0  0  0  0  0  0  0  0  0  0  0  0
    0.7083  -50.4613  -22.2243 C   0  0  0  0  0  0  0  0  0  0  0  0
    0.0764  -51.6024  -17.4019 O   0  0  0  0  0  0  0  0  0  0  0  0
   -0.6832  -50.8045  -16.6542 C   0  0  0  0  0  0  0  0  0  0  0  0
   -0.1486  -49.5314  -16.3460 C   0  0  0  0  0  0  0  0  0  0  0  0
   -0.8716  -48.6525  -15.5763 C   0  0  0  0  0  0  0  0  0  0  0  0
   -2.0805  -48.9614  -15.0994 N   0  0  0  0  0  0  0  0  0  0  0  0
   -2.6375  -50.1896  -15.3759 C   0  0  0  0  0  0  0  0  0  0  0  0
   -3.9112  -50.4794  -14.8236 N   0  0  0  0  0  0  0  0  0  0  0  0
   -4.4528  -51.7582  -15.0966 C   0  0  0  0  0  0  0  0  0  0  0  0
   -5.3931  -52.2549  -14.4005 O   0  0  0  0  0  0  0  0  0  0  0  0
   -3.9430  -52.5780  -16.2143 C   0  0  0  0  0  0  0  0  0  0  0  0
   -2.5064  -52.3793  -16.5047 C   0  0  0  0  0  0  0  0  0  0  0  0
   -1.9302  -51.0844  -16.1480 C   0  0  0  0  0  0  0  0  0  0  0  0
   -4.4282  -49.8003  -14.2495 H   0  0  0  0  0  0  0  0  0  0  0  0
    4.7933  -46.9191  -27.4350 C   0  0  0  0  0  0  0  0  0  0  0  0
    5.6171  -47.9712  -27.1054 C   0  0  0  0  0  0  0  0  0  0  0  0
    5.2640  -48.9885  -26.2216 C   0  0  0  0  0  0  0  0  0  0  0  0
    4.0342  -48.9612  -25.6368 C   0  0  0  0  0  0  0  0  0  0  0  0
    3.1994  -47.9252  -25.9503 C   0  0  0  0  0  0  0  0  0  0  0  0
    3.5275  -46.8959  -26.8292 C   0  0  0  0  0  0  0  0  0  0  0  0
    2.5747  -45.8157  -27.0982 C   0  0  0  0  0  0  0  0  0  0  0  0
    3.1068  -44.5487  -27.1106 F   0  0  0  0  0  0  0  0  0  0  0  0
    1.8085  -46.0537  -28.2340 F   0  0  0  0  0  0  0  0  0  0  0  0
    1.6432  -45.7951  -26.0572 F   0  0  0  0  0  0  0  0  0  0  0  0
    5.1382  -45.8811  -28.3924 C   0  0  0  0  0  0  0  0  0  0  0  0
    5.8192  -47.1898  -31.4317 C   0  0  0  0  0  0  0  0  0  0  0  0
    7.0700  -46.4284  -31.0672 C   0  0  0  0  0  0  0  0  0  0  0  0
    6.6619  -45.0362  -30.6494 C   0  0  0  0  0  0  0  0  0  0  0  0
    5.1703  -44.9542  -30.5429 C   0  0  0  0  0  0  0  0  0  0  0  0
    4.6014  -46.0057  -29.7224 N   0  0  0  0  0  0  0  0  0  0  0  0
    4.8597  -47.3088  -30.3046 C   0  0  0  0  0  0  0  0  0  0  0  0
    5.9845  -48.4662  -33.4426 C   0  0  0  0  0  0  0  0  0  0  0  0
    6.1525  -48.4894  -32.0128 N   0  0  0  0  0  0  0  0  0  0  0  0
    7.4723  -48.9324  -31.6810 C   0  0  0  0  0  0  0  0  0  0  0  0
 45 46  1  0  0  0
 46 47  1  0  0  0
 46 39  1  0  0  0
 39 40  1  0  0  0
 40 41  1  0  0  0
 41 42  1  0  0  0
 42 43  1  0  0  0
 43 38  1  0  0  0
 38 28  1  0  0  0
 28 29  2  0  0  0
 29 30  1  0  0  0
 30 31  2  0  0  0
 31 32  1  0  0  0
 32 33  2  0  0  0
 33 34  1  0  0  0
 34 35  1  0  0  0
 34 36  1  0  0  0
 34 37  1  0  0  0
 31  1  1  0  0  0
  1  2  2  0  0  0
  1  3  1  0  0  0
  3  5  1  0  0  0
  5  6  1  0  0  0
  6  7  1  0  0  0
  7  8  1  0  0  0
  8  9  2  0  0  0
  9 10  1  0  0  0
 10 11  2  0  0  0
 11 15  1  0  0  0
 15 16  1  0  0  0
 16 17  2  0  0  0
 17 18  1  0  0  0
 18 19  2  0  0  0
 19 20  1  0  0  0
 20 21  1  0  0  0
 21 22  1  0  0  0
 22 23  2  0  0  0
 22 24  1  0  0  0
 24 25  1  0  0  0
 25 26  1  0  0  0
 11 12  1  0  0  0
 12 13  2  0  0  0
 13 14  1  0  0  0
 43 44  1  0  0  0
 44 39  1  0  0  0
 33 28  1  0  0  0
 14  5  1  0  0  0
 14  6  1  0  0  0
 13  8  1  0  0  0
 26 16  1  0  0  0
 26 20  2  0  0  0
  3  4  1  0  0  0
 21 27  1  0  0  0
M  END
> <minimizedAffinity>
-8.23777

> <CNNscore>
0.1433060169

> <CNNaffinity>
6.2592821121

> <CNN_VS>
0.8969928026

> <CNNaffinity_variance>
0.2182427347

$$$$
[H]c1nc2c(c(Oc3c([H])c([H])c4c(c3[H])[C@]3([H])[C@]([H])(O4)[C@@]3([H])N([H])C(=O)c3c([H])c([H])c(C([H])([H])N4C([H])([H])C([H])([H])C([H])([H])[C@@]([H])(N(C([H])([H])[H])C([H])([H])[H])C4([H])[H])c(C(F)(F)F)c3[H])c1[H])C([H])([H])C([H])([H])C(=O)N2[H]


 47 53  0  0  0  0  0  0  0  0999 V2000
    2.9188  -49.9627  -25.0037 C   0  0  0  0  0  0  0  0  0  0  0  0
    3.4302  -49.7877  -23.8707 O   0  0  0  0  0  0  0  0  0  0  0  0
    1.9527  -50.9792  -25.2226 N   0  0  0  0  0  0  0  0  0  0  0  0
    1.5408  -51.1080  -26.1722 H   0  0  0  0  0  0  0  0  0  0  0  0
    1.5517  -51.8206  -24.1406 C   0  0  0  0  0  0  0  0  0  0  0  0
    0.2036  -52.4571  -24.2449 C   0  0  0  0  0  0  0  0  0  0  0  0
    0.0244  -53.6518  -23.5499 O   0  0  0  0  0  0  0  0  0  0  0  0
    0.0959  -53.3598  -22.1994 C   0  0  0  0  0  0  0  0  0  0  0  0
   -0.0245  -54.2024  -21.0967 C   0  0  0  0  0  0  0  0  0  0  0  0
    0.0854  -53.6746  -19.8347 C   0  0  0  0  0  0  0  0  0  0  0  0
    0.3111  -52.3441  -19.5720 C   0  0  0  0  0  0  0  0  0  0  0  0
    0.4314  -51.5008  -20.6893 C   0  0  0  0  0  0  0  0  0  0  0  0
    0.3197  -52.0393  -21.9495 C   0  0  0  0  0  0  0  0  0  0  0  0
    0.4086  -51.3705  -23.2814 C   0  0  0  0  0  0  0  0  0  0  0  0
    0.4120  -51.8773  -18.3115 O   0  0  0  0  0  0  0  0  0  0  0  0
   -0.4201  -51.4749  -17.3531 C   0  0  0  0  0  0  0  0  0  0  0  0
   -1.5142  -52.3257  -17.0691 C   0  0  0  0  0  0  0  0  0  0  0  0
   -2.4184  -51.9775  -16.0951 C   0  0  0  0  0  0  0  0  0  0  0  0
   -2.3012  -50.8456  -15.3955 N   0  0  0  0  0  0  0  0  0  0  0  0
   -1.2511  -49.9896  -15.6400 C   0  0  0  0  0  0  0  0  0  0  0  0
   -1.1867  -48.7880  -14.8894 N   0  0  0  0  0  0  0  0  0  0  0  0
   -0.1152  -47.9090  -15.1767 C   0  0  0  0  0  0  0  0  0  0  0  0
   -0.1367  -46.6852  -14.8344 O   0  0  0  0  0  0  0  0  0  0  0  0
    1.0863  -48.3821  -15.8936 C   0  0  0  0  0  0  0  0  0  0  0  0
    0.8235  -49.4639  -16.8672 C   0  0  0  0  0  0  0  0  0  0  0  0
   -0.3319  -50.3214  -16.6107 C   0  0  0  0  0  0  0  0  0  0  0  0
   -1.8802  -48.5543  -14.1665 H   0  0  0  0  0  0  0  0  0  0  0  0
    3.9851  -47.3315  -28.2083 C   0  0  0  0  0  0  0  0  0  0  0  0
    4.5708  -48.5681  -28.0602 C   0  0  0  0  0  0  0  0  0  0  0  0
    4.2627  -49.4567  -27.0325 C   0  0  0  0  0  0  0  0  0  0  0  0
    3.3284  -49.1019  -26.1073 C   0  0  0  0  0  0  0  0  0  0  0  0
    2.7335  -47.8778  -26.2355 C   0  0  0  0  0  0  0  0  0  0  0  0
    3.0233  -46.9709  -27.2519 C   0  0  0  0  0  0  0  0  0  0  0  0
    2.3459  -45.6727  -27.3056 C   0  0  0  0  0  0  0  0  0  0  0  0
    3.1732  -44.5756  -27.3254 F   0  0  0  0  0  0  0  0  0  0  0  0
    1.3979  -45.6098  -28.3211 F   0  0  0  0  0  0  0  0  0  0  0  0
    1.5995  -45.5285  -26.1335 F   0  0  0  0  0  0  0  0  0  0  0  0
    4.2679  -46.4203  -29.3051 C   0  0  0  0  0  0  0  0  0  0  0  0
    4.9327  -46.5238  -32.6159 C   0  0  0  0  0  0  0  0  0  0  0  0
    5.4299  -45.1673  -32.1801 C   0  0  0  0  0  0  0  0  0  0  0  0
    4.3231  -44.4930  -31.4056 C   0  0  0  0  0  0  0  0  0  0  0  0
    3.2089  -45.4638  -31.1620 C   0  0  0  0  0  0  0  0  0  0  0  0
    3.6609  -46.7113  -30.5777 N   0  0  0  0  0  0  0  0  0  0  0  0
    4.5641  -47.4032  -31.4774 C   0  0  0  0  0  0  0  0  0  0  0  0
    7.0345  -46.3162  -33.7292 C   0  0  0  0  0  0  0  0  0  0  0  0
    5.8883  -47.1620  -33.5198 N   0  0  0  0  0  0  0  0  0  0  0  0
    6.3079  -48.4553  -33.0732 C   0  0  0  0  0  0  0  0  0  0  0  0
 45 46  1  0  0  0
 46 47  1  0  0  0
 46 39  1  0  0  0
 39 40  1  0  0  0
 40 41  1  0  0  0
 41 42  1  0  0  0
 42 43  1  0  0  0
 43 38  1  0  0  0
 38 28  1  0  0  0
 28 29  2  0  0  0
 29 30  1  0  0  0
 30 31  2  0  0  0
 31 32  1  0  0  0
 32 33  2  0  0  0
 33 34  1  0  0  0
 34 35  1  0  0  0
 34 36  1  0  0  0
 34 37  1  0  0  0
 31  1  1  0  0  0
  1  2  2  0  0  0
  1  3  1  0  0  0
  3  5  1  0  0  0
  5  6  1  0  0  0
  6  7  1  0  0  0
  7  8  1  0  0  0
  8  9  2  0  0  0
  9 10  1  0  0  0
 10 11  2  0  0  0
 11 15  1  0  0  0
 15 16  1  0  0  0
 16 17  2  0  0  0
 17 18  1  0  0  0
 18 19  2  0  0  0
 19 20  1  0  0  0
 20 21  1  0  0  0
 21 22  1  0  0  0
 22 23  2  0  0  0
 22 24  1  0  0  0
 24 25  1  0  0  0
 25 26  1  0  0  0
 11 12  1  0  0  0
 12 13  2  0  0  0
 13 14  1  0  0  0
 43 44  1  0  0  0
 44 39  1  0  0  0
 33 28  1  0  0  0
 14  5  1  0  0  0
 14  6  1  0  0  0
 13  8  1  0  0  0
 26 16  1  0  0  0
 26 20  2  0  0  0
  3  4  1  0  0  0
 21 27  1  0  0  0
M  END
> <minimizedAffinity>
-8.67445

> <CNNscore>
0.1365415454

> <CNNaffinity>
6.3130264282

> <CNN_VS>
0.8619903922

> <CNNaffinity_variance>
0.1338685900

$$$$
[H]Oc1c([H])c([H])c(O[H])c(/C([H])=C(\[H])N([H])C([H])=O)c1[H]


 16 16  0  0  0  0  0  0  0  0999 V2000
    2.1188  -53.2998  -28.9016 O   0  0  0  0  0  0  0  0  0  0  0  0
    0.8488  -53.0357  -28.3709 C   0  0  0  0  0  0  0  0  0  0  0  0
   -0.2053  -52.8950  -29.2460 C   0  0  0  0  0  0  0  0  0  0  0  0
   -1.4428  -52.6357  -28.6980 C   0  0  0  0  0  0  0  0  0  0  0  0
   -1.5986  -52.5255  -27.3314 C   0  0  0  0  0  0  0  0  0  0  0  0
   -2.8673  -52.2603  -26.7802 O   0  0  0  0  0  0  0  0  0  0  0  0
   -0.5356  -52.6667  -26.4366 C   0  0  0  0  0  0  0  0  0  0  0  0
    0.6848  -52.9227  -26.9830 C   0  0  0  0  0  0  0  0  0  0  0  0
    2.3909  -54.2466  -29.0297 H   0  0  0  0  0  0  0  0  0  0  0  0
   -3.6817  -52.1458  -27.3577 H   0  0  0  0  0  0  0  0  0  0  0  0
   -0.8019  -52.5330  -25.0155 C   0  0  0  0  0  0  0  0  0  0  0  0
   -0.3003  -53.3224  -24.0844 C   0  0  0  0  0  0  0  0  0  0  0  0
   -0.5954  -53.1460  -22.6999 N   0  0  0  0  0  0  0  0  0  0  0  0
   -1.2287  -54.1379  -21.9129 C   0  0  0  0  0  0  0  0  0  0  0  0
   -1.5513  -55.2395  -22.4629 O   0  0  0  0  0  0  0  0  0  0  0  0
   -0.3333  -52.2521  -22.2547 H   0  0  0  0  0  0  0  0  0  0  0  0
  1  2  1  0  0  0
  2  3  2  0  0  0
  3  4  1  0  0  0
  4  5  2  0  0  0
  5  6  1  0  0  0
  5  7  1  0  0  0
  7 11  1  0  0  0
 11 12  2  0  0  0
 12 13  1  0  0  0
 13 14  1  0  0  0
 14 15  2  0  0  0
  7  8  2  0  0  0
  8  2  1  0  0  0
  1  9  1  0  0  0
  6 10  1  0  0  0
 13 16  1  0  0  0
M  END
> <minimizedAffinity>
-6.55731

> <CNNscore>
0.8289500475

> <CNNaffinity>
4.7593946457

> <CNN_VS>
3.9453003407

> <CNNaffinity_variance>
0.0567177422

$$$$
[H]Oc1c([H])c([H])c(O[H])c(/C([H])=C(\[H])N([H])C([H])=O)c1[H]


 16 16  0  0  0  0  0  0  0  0999 V2000
   -3.4333  -52.1576  -27.9999 O   0  0  0  0  0  0  0  0  0  0  0  0
   -2.0948  -52.4679  -27.7240 C   0  0  0  0  0  0  0  0  0  0  0  0
   -1.2523  -52.7145  -28.7851 C   0  0  0  0  0  0  0  0  0  0  0  0
    0.0583  -53.0172  -28.4860 C   0  0  0  0  0  0  0  0  0  0  0  0
    0.4882  -53.0663  -27.1757 C   0  0  0  0  0  0  0  0  0  0  0  0
    1.8298  -53.3766  -26.8794 O   0  0  0  0  0  0  0  0  0  0  0  0
   -0.3588  -52.8178  -26.0935 C   0  0  0  0  0  0  0  0  0  0  0  0
   -1.6526  -52.5192  -26.3944 C   0  0  0  0  0  0  0  0  0  0  0  0
   -3.6817  -51.2043  -28.1284 H   0  0  0  0  0  0  0  0  0  0  0  0
    2.5008  -53.5679  -27.6026 H   0  0  0  0  0  0  0  0  0  0  0  0
    0.1892  -52.8939  -24.7511 C   0  0  0  0  0  0  0  0  0  0  0  0
   -0.4061  -53.4885  -23.7342 C   0  0  0  0  0  0  0  0  0  0  0  0
    0.1781  -53.5340  -22.4336 N   0  0  0  0  0  0  0  0  0  0  0  0
   -0.4381  -54.1759  -21.3324 C   0  0  0  0  0  0  0  0  0  0  0  0
   -1.5657  -54.7397  -21.5073 O   0  0  0  0  0  0  0  0  0  0  0  0
    1.0929  -53.0764  -22.2927 H   0  0  0  0  0  0  0  0  0  0  0  0
  1  2  1  0  0  0
  2  3  2  0  0  0
  3  4  1  0  0  0
  4  5  2  0  0  0
  5  6  1  0  0  0
  5  7  1  0  0  0
  7 11  1  0  0  0
 11 12  2  0  0  0
 12 13  1  0  0  0
 13 14  1  0  0  0
 14 15  2  0  0  0
  7  8  2  0  0  0
  8  2  1  0  0  0
  1  9  1  0  0  0
  6 10  1  0  0  0
 13 16  1  0  0  0
M  END
> <minimizedAffinity>
-6.47467

> <CNNscore>
0.8179317117

> <CNNaffinity>
4.6741013527

> <CNN_VS>
3.8230957985

> <CNNaffinity_variance>
0.0579115823

$$$$
[H]Oc1c([H])c([H])c(O[H])c(/C([H])=C(\[H])N([H])C([H])=O)c1[H]


 16 16  0  0  0  0  0  0  0  0999 V2000
    1.6232  -51.4622  -20.8806 O   0  0  0  0  0  0  0  0  0  0  0  0
    0.7512  -52.4614  -21.3339 C   0  0  0  0  0  0  0  0  0  0  0  0
    0.1913  -53.3075  -20.4025 C   0  0  0  0  0  0  0  0  0  0  0  0
   -0.6622  -54.2808  -20.8748 C   0  0  0  0  0  0  0  0  0  0  0  0
   -0.9312  -54.3869  -22.2241 C   0  0  0  0  0  0  0  0  0  0  0  0
   -1.8050  -55.3849  -22.6978 O   0  0  0  0  0  0  0  0  0  0  0  0
   -0.3683  -53.5335  -23.1756 C   0  0  0  0  0  0  0  0  0  0  0  0
    0.4742  -52.5738  -22.7038 C   0  0  0  0  0  0  0  0  0  0  0  0
    1.2433  -50.5775  -20.6359 H   0  0  0  0  0  0  0  0  0  0  0  0
   -2.2498  -56.0373  -22.0762 H   0  0  0  0  0  0  0  0  0  0  0  0
   -0.7143  -53.7265  -24.5724 C   0  0  0  0  0  0  0  0  0  0  0  0
    0.1404  -54.0905  -25.5099 C   0  0  0  0  0  0  0  0  0  0  0  0
   -0.2536  -54.2659  -26.8697 N   0  0  0  0  0  0  0  0  0  0  0  0
    0.6340  -54.0940  -27.9591 C   0  0  0  0  0  0  0  0  0  0  0  0
    1.8404  -53.7677  -27.7179 O   0  0  0  0  0  0  0  0  0  0  0  0
   -1.2324  -54.5306  -27.0643 H   0  0  0  0  0  0  0  0  0  0  0  0
  1  2  1  0  0  0
  2  3  2  0  0  0
  3  4  1  0  0  0
  4  5  2  0  0  0
  5  6  1  0  0  0
  5  7  1  0  0  0
  7 11  1  0  0  0
 11 12  2  0  0  0
 12 13  1  0  0  0
 13 14  1  0  0  0
 14 15  2  0  0  0
  7  8  2  0  0  0
  8  2  1  0  0  0
  1  9  1  0  0  0
  6 10  1  0  0  0
 13 16  1  0  0  0
M  END
> <minimizedAffinity>
-6.12495

> <CNNscore>
0.7918860912

> <CNNaffinity>
4.5969290733

> <CNN_VS>
3.6402442455

> <CNNaffinity_variance>
0.0459200367

$$$$
[H]Oc1c([H])c([H])c(O[H])c(/C([H])=C(\[H])N([H])C([H])=O)c1[H]


 16 16  0  0  0  0  0  0  0  0999 V2000
    1.2478  -51.4190  -24.6023 O   0  0  0  0  0  0  0  0  0  0  0  0
    0.4569  -52.4501  -24.0776 C   0  0  0  0  0  0  0  0  0  0  0  0
    0.0984  -53.4843  -24.9134 C   0  0  0  0  0  0  0  0  0  0  0  0
   -0.6794  -54.4849  -24.3723 C   0  0  0  0  0  0  0  0  0  0  0  0
   -1.0713  -54.4350  -23.0502 C   0  0  0  0  0  0  0  0  0  0  0  0
   -1.8663  -55.4623  -22.5057 O   0  0  0  0  0  0  0  0  0  0  0  0
   -0.7125  -53.3904  -22.1954 C   0  0  0  0  0  0  0  0  0  0  0  0
    0.0558  -52.4045  -22.7348 C   0  0  0  0  0  0  0  0  0  0  0  0
    2.2360  -51.5064  -24.5495 H   0  0  0  0  0  0  0  0  0  0  0  0
   -2.1656  -56.2480  -23.0562 H   0  0  0  0  0  0  0  0  0  0  0  0
   -1.1752  -53.4291  -20.8196 C   0  0  0  0  0  0  0  0  0  0  0  0
   -0.4049  -53.2281  -19.7670 C   0  0  0  0  0  0  0  0  0  0  0  0
   -0.9121  -53.2777  -18.4346 N   0  0  0  0  0  0  0  0  0  0  0  0
   -0.7705  -52.2114  -17.5142 C   0  0  0  0  0  0  0  0  0  0  0  0
   -0.1629  -51.1578  -17.8895 O   0  0  0  0  0  0  0  0  0  0  0  0
   -1.4048  -54.1328  -18.1311 H   0  0  0  0  0  0  0  0  0  0  0  0
  1  2  1  0  0  0
  2  3  2  0  0  0
  3  4  1  0  0  0
  4  5  2  0  0  0
  5  6  1  0  0  0
  5  7  1  0  0  0
  7 11  1  0  0  0
 11 12  2  0  0  0
 12 13  1  0  0  0
 13 14  1  0  0  0
 14 15  2  0  0  0
  7  8  2  0  0  0
  8  2  1  0  0  0
  1  9  1  0  0  0
  6 10  1  0  0  0
 13 16  1  0  0  0
M  END
> <minimizedAffinity>
-5.61529

> <CNNscore>
0.7801369429

> <CNNaffinity>
4.2194790840

> <CNN_VS>
3.2917714119

> <CNNaffinity_variance>
0.0341410264

$$$$
[H]Oc1c([H])c([H])c(O[H])c(/C([H])=C(\[H])N([H])C([H])=O)c1[H]


 16 16  0  0  0  0  0  0  0  0999 V2000
   -3.5363  -52.5828  -27.8539 O   0  0  0  0  0  0  0  0  0  0  0  0
   -2.1428  -52.5965  -28.0022 C   0  0  0  0  0  0  0  0  0  0  0  0
   -1.6246  -52.8266  -29.2573 C   0  0  0  0  0  0  0  0  0  0  0  0
   -0.2517  -52.8348  -29.3753 C   0  0  0  0  0  0  0  0  0  0  0  0
    0.5510  -52.6202  -28.2736 C   0  0  0  0  0  0  0  0  0  0  0  0
    1.9534  -52.6303  -28.4038 O   0  0  0  0  0  0  0  0  0  0  0  0
    0.0345  -52.3861  -26.9973 C   0  0  0  0  0  0  0  0  0  0  0  0
   -1.3224  -52.3789  -26.8861 C   0  0  0  0  0  0  0  0  0  0  0  0
   -4.0159  -51.7199  -27.9647 H   0  0  0  0  0  0  0  0  0  0  0  0
    2.4016  -52.7917  -29.2886 H   0  0  0  0  0  0  0  0  0  0  0  0
    0.9624  -52.1712  -25.9014 C   0  0  0  0  0  0  0  0  0  0  0  0
    0.9280  -51.1338  -25.0864 C   0  0  0  0  0  0  0  0  0  0  0  0
    1.8659  -50.9716  -24.0239 N   0  0  0  0  0  0  0  0  0  0  0  0
    3.0612  -50.2247  -24.1563 C   0  0  0  0  0  0  0  0  0  0  0  0
    3.3141  -49.6707  -25.2739 O   0  0  0  0  0  0  0  0  0  0  0  0
    1.6598  -51.4214  -23.1176 H   0  0  0  0  0  0  0  0  0  0  0  0
  1  2  1  0  0  0
  2  3  2  0  0  0
  3  4  1  0  0  0
  4  5  2  0  0  0
  5  6  1  0  0  0
  5  7  1  0  0  0
  7 11  1  0  0  0
 11 12  2  0  0  0
 12 13  1  0  0  0
 13 14  1  0  0  0
 14 15  2  0  0  0
  7  8  2  0  0  0
  8  2  1  0  0  0
  1  9  1  0  0  0
  6 10  1  0  0  0
 13 16  1  0  0  0
M  END
> <minimizedAffinity>
-6.10208

> <CNNscore>
0.7789930105

> <CNNaffinity>
4.4229207039

> <CNN_VS>
3.4454243183

> <CNNaffinity_variance>
0.1005367637

$$$$
[H]Oc1c([H])c([H])c(O[H])c(/C([H])=C(\[H])N([H])C([H])=O)c1[H]


 16 16  0  0  0  0  0  0  0  0999 V2000
    0.1746  -53.4050  -25.4780 O   0  0  0  0  0  0  0  0  0  0  0  0
   -0.2729  -53.6644  -24.1754 C   0  0  0  0  0  0  0  0  0  0  0  0
   -1.0019  -54.8118  -23.9546 C   0  0  0  0  0  0  0  0  0  0  0  0
   -1.4296  -55.0428  -22.6652 C   0  0  0  0  0  0  0  0  0  0  0  0
   -1.1309  -54.1524  -21.6543 C   0  0  0  0  0  0  0  0  0  0  0  0
   -1.5723  -54.3967  -20.3392 O   0  0  0  0  0  0  0  0  0  0  0  0
   -0.3924  -52.9865  -21.8687 C   0  0  0  0  0  0  0  0  0  0  0  0
    0.0277  -52.7631  -23.1443 C   0  0  0  0  0  0  0  0  0  0  0  0
    1.0635  -53.7540  -25.7516 H   0  0  0  0  0  0  0  0  0  0  0  0
   -2.1087  -55.2133  -20.1041 H   0  0  0  0  0  0  0  0  0  0  0  0
   -0.1305  -52.1129  -20.7390 C   0  0  0  0  0  0  0  0  0  0  0  0
    1.0032  -52.0850  -20.0639 C   0  0  0  0  0  0  0  0  0  0  0  0
    1.2078  -51.2052  -18.9598 N   0  0  0  0  0  0  0  0  0  0  0  0
    2.4836  -50.9504  -18.4016 C   0  0  0  0  0  0  0  0  0  0  0  0
    3.4975  -51.5315  -18.9057 O   0  0  0  0  0  0  0  0  0  0  0  0
    0.3846  -50.7342  -18.5515 H   0  0  0  0  0  0  0  0  0  0  0  0
  1  2  1  0  0  0
  2  3  2  0  0  0
  3  4  1  0  0  0
  4  5  2  0  0  0
  5  6  1  0  0  0
  5  7  1  0  0  0
  7 11  1  0  0  0
 11 12  2  0  0  0
 12 13  1  0  0  0
 13 14  1  0  0  0
 14 15  2  0  0  0
  7  8  2  0  0  0
  8  2  1  0  0  0
  1  9  1  0  0  0
  6 10  1  0  0  0
 13 16  1  0  0  0
M  END
> <minimizedAffinity>
-5.54924

> <CNNscore>
0.7559052706

> <CNNaffinity>
4.0750050545

> <CNN_VS>
3.0803177357

> <CNNaffinity_variance>
0.0435736552

$$$$
[H]Oc1c([H])c([H])c(O[H])c(/C([H])=C(\[H])N([H])C([H])=O)c1[H]


 16 16  0  0  0  0  0  0  0  0999 V2000
   -3.6909  -52.5680  -27.8588 O   0  0  0  0  0  0  0  0  0  0  0  0
   -2.2908  -52.5051  -27.8453 C   0  0  0  0  0  0  0  0  0  0  0  0
   -1.6156  -52.7939  -29.0104 C   0  0  0  0  0  0  0  0  0  0  0  0
   -0.2400  -52.7247  -28.9697 C   0  0  0  0  0  0  0  0  0  0  0  0
    0.4134  -52.3797  -27.8044 C   0  0  0  0  0  0  0  0  0  0  0  0
    1.8199  -52.3115  -27.7721 O   0  0  0  0  0  0  0  0  0  0  0  0
   -0.2628  -52.0852  -26.6184 C   0  0  0  0  0  0  0  0  0  0  0  0
   -1.6217  -52.1551  -26.6639 C   0  0  0  0  0  0  0  0  0  0  0  0
   -4.1995  -51.7473  -28.0926 H   0  0  0  0  0  0  0  0  0  0  0  0
    2.3780  -52.5090  -28.5841 H   0  0  0  0  0  0  0  0  0  0  0  0
    0.5155  -51.7327  -25.4445 C   0  0  0  0  0  0  0  0  0  0  0  0
    0.2043  -52.0809  -24.2101 C   0  0  0  0  0  0  0  0  0  0  0  0
    1.0058  -51.7069  -23.0909 N   0  0  0  0  0  0  0  0  0  0  0  0
    0.4976  -51.6178  -21.7725 C   0  0  0  0  0  0  0  0  0  0  0  0
   -0.7311  -51.8831  -21.5728 O   0  0  0  0  0  0  0  0  0  0  0  0
    2.0025  -51.4919  -23.2539 H   0  0  0  0  0  0  0  0  0  0  0  0
  1  2  1  0  0  0
  2  3  2  0  0  0
  3  4  1  0  0  0
  4  5  2  0  0  0
  5  6  1  0  0  0
  5  7  1  0  0  0
  7 11  1  0  0  0
 11 12  2  0  0  0
 12 13  1  0  0  0
 13 14  1  0  0  0
 14 15  2  0  0  0
  7  8  2  0  0  0
  8  2  1  0  0  0
  1  9  1  0  0  0
  6 10  1  0  0  0
 13 16  1  0  0  0
M  END
> <minimizedAffinity>
-6.44138

> <CNNscore>
0.7435083985

> <CNNaffinity>
4.4704174995

> <CNN_VS>
3.3237929344

> <CNNaffinity_variance>
0.0414599776

$$$$
[H]Oc1c([H])c([H])c(O[H])c(/C([H])=C(\[H])N([H])C([H])=O)c1[H]


 16 16  0  0  0  0  0  0  0  0999 V2000
    3.0615  -53.3852  -27.4987 O   0  0  0  0  0  0  0  0  0  0  0  0
    1.7011  -53.1297  -27.2788 C   0  0  0  0  0  0  0  0  0  0  0  0
    0.8731  -53.0283  -28.3746 C   0  0  0  0  0  0  0  0  0  0  0  0
   -0.4595  -52.7766  -28.1305 C   0  0  0  0  0  0  0  0  0  0  0  0
   -0.9243  -52.6357  -26.8389 C   0  0  0  0  0  0  0  0  0  0  0  0
   -2.2882  -52.3787  -26.5989 O   0  0  0  0  0  0  0  0  0  0  0  0
   -0.0922  -52.7370  -25.7219 C   0  0  0  0  0  0  0  0  0  0  0  0
    1.2234  -52.9856  -25.9685 C   0  0  0  0  0  0  0  0  0  0  0  0
    3.3660  -54.3301  -27.5352 H   0  0  0  0  0  0  0  0  0  0  0  0
   -2.9505  -52.2920  -27.3497 H   0  0  0  0  0  0  0  0  0  0  0  0
   -0.6773  -52.5731  -24.4031 C   0  0  0  0  0  0  0  0  0  0  0  0
   -0.1109  -52.9730  -23.2801 C   0  0  0  0  0  0  0  0  0  0  0  0
   -0.7310  -52.7867  -22.0090 N   0  0  0  0  0  0  0  0  0  0  0  0
   -1.4690  -53.8017  -21.3537 C   0  0  0  0  0  0  0  0  0  0  0  0
   -1.5869  -54.9343  -21.9222 O   0  0  0  0  0  0  0  0  0  0  0  0
   -0.6347  -51.8676  -21.5486 H   0  0  0  0  0  0  0  0  0  0  0  0
  1  2  1  0  0  0
  2  3  2  0  0  0
  3  4  1  0  0  0
  4  5  2  0  0  0
  5  6  1  0  0  0
  5  7  1  0  0  0
  7 11  1  0  0  0
 11 12  2  0  0  0
 12 13  1  0  0  0
 13 14  1  0  0  0
 14 15  2  0  0  0
  7  8  2  0  0  0
  8  2  1  0  0  0
  1  9  1  0  0  0
  6 10  1  0  0  0
 13 16  1  0  0  0
M  END
> <minimizedAffinity>
-5.96415

> <CNNscore>
0.7287113070

> <CNNaffinity>
4.5121545792

> <CNN_VS>
3.2880580425

> <CNNaffinity_variance>
0.0399384722

$$$$
[H]Oc1c([H])c([H])c(O[H])c(/C([H])=C(\[H])N([H])C([H])=O)c1[H]


 16 16  0  0  0  0  0  0  0  0999 V2000
   -1.7205  -51.6202  -26.0404 O   0  0  0  0  0  0  0  0  0  0  0  0
   -0.6545  -52.2045  -26.7378 C   0  0  0  0  0  0  0  0  0  0  0  0
   -0.9091  -52.7507  -27.9762 C   0  0  0  0  0  0  0  0  0  0  0  0
    0.1563  -53.3187  -28.6404 C   0  0  0  0  0  0  0  0  0  0  0  0
    1.4143  -53.3299  -28.0735 C   0  0  0  0  0  0  0  0  0  0  0  0
    2.4975  -53.9128  -28.7597 O   0  0  0  0  0  0  0  0  0  0  0  0
    1.6818  -52.7786  -26.8185 C   0  0  0  0  0  0  0  0  0  0  0  0
    0.6259  -52.2187  -26.1665 C   0  0  0  0  0  0  0  0  0  0  0  0
   -1.9048  -50.6540  -26.1799 H   0  0  0  0  0  0  0  0  0  0  0  0
    2.3862  -54.3301  -29.6671 H   0  0  0  0  0  0  0  0  0  0  0  0
    3.0398  -52.8403  -26.3081 C   0  0  0  0  0  0  0  0  0  0  0  0
    3.5616  -51.9675  -25.4670 C   0  0  0  0  0  0  0  0  0  0  0  0
    4.9040  -52.0756  -24.9965 N   0  0  0  0  0  0  0  0  0  0  0  0
    5.2422  -52.0823  -23.6218 C   0  0  0  0  0  0  0  0  0  0  0  0
    4.3078  -51.9875  -22.7629 O   0  0  0  0  0  0  0  0  0  0  0  0
    5.6613  -52.1526  -25.6941 H   0  0  0  0  0  0  0  0  0  0  0  0
  1  2  1  0  0  0
  2  3  2  0  0  0
  3  4  1  0  0  0
  4  5  2  0  0  0
  5  6  1  0  0  0
  5  7  1  0  0  0
  7 11  1  0  0  0
 11 12  2  0  0  0
 12 13  1  0  0  0
 13 14  1  0  0  0
 14 15  2  0  0  0
  7  8  2  0  0  0
  8  2  1  0  0  0
  1  9  1  0  0  0
  6 10  1  0  0  0
 13 16  1  0  0  0
M  END
> <minimizedAffinity>
-5.44128

> <CNNscore>
0.7090394497

> <CNNaffinity>
4.2151870728

> <CNN_VS>
2.9887340069

> <CNNaffinity_variance>
0.1731487215

$$$$
[H]/C(C(=O)N1C([H])([H])c2sc3nc([H])nc(N([H])c4c([H])c([H])c(Cl)c(Cl)c4[H])c3c2C([H])([H])C([H])([H])C1([H])[H])=C(/[H])C([H])([H])N1C([H])([H])C([H])([H])OC([H])([H])C([H])([H])C1([H])[H]


 36 40  0  0  0  0  0  0  0  0999 V2000
   -0.6965  -53.4482  -22.0395 C   0  0  0  0  0  0  0  0  0  0  0  0
   -1.2346  -54.7056  -22.0179 N   0  0  0  0  0  0  0  0  0  0  0  0
   -1.3782  -55.5001  -23.0513 C   0  0  0  0  0  0  0  0  0  0  0  0
   -0.9569  -55.0274  -24.2284 N   0  0  0  0  0  0  0  0  0  0  0  0
   -0.4042  -53.7780  -24.3315 C   0  0  0  0  0  0  0  0  0  0  0  0
    0.2219  -52.9211  -25.6588 S   0  0  0  0  0  0  0  0  0  0  0  0
    0.6893  -51.5042  -24.8575 C   0  0  0  0  0  0  0  0  0  0  0  0
    1.3428  -50.3087  -25.5403 C   0  0  0  0  0  0  0  0  0  0  0  0
    2.6848  -50.2396  -24.9826 N   0  0  0  0  0  0  0  0  0  0  0  0
    2.9455  -50.2130  -23.5568 C   0  0  0  0  0  0  0  0  0  0  0  0
    1.7267  -49.7253  -22.8238 C   0  0  0  0  0  0  0  0  0  0  0  0
    0.6803  -50.7114  -22.4847 C   0  0  0  0  0  0  0  0  0  0  0  0
    0.3443  -51.7281  -23.5532 C   0  0  0  0  0  0  0  0  0  0  0  0
   -0.2419  -52.9287  -23.2592 C   0  0  0  0  0  0  0  0  0  0  0  0
    3.7350  -50.1961  -25.8778 C   0  0  0  0  0  0  0  0  0  0  0  0
    3.4833  -50.1983  -27.1281 O   0  0  0  0  0  0  0  0  0  0  0  0
   -0.8090  -52.7551  -20.8309 N   0  0  0  0  0  0  0  0  0  0  0  0
   -1.6864  -52.6040  -20.3426 H   0  0  0  0  0  0  0  0  0  0  0  0
    3.6847  -50.4516  -17.6139 Cl  0  0  0  0  0  0  0  0  0  0  0  0
    2.3984  -51.1403  -18.5804 C   0  0  0  0  0  0  0  0  0  0  0  0
    2.6399  -52.1195  -19.5101 C   0  0  0  0  0  0  0  0  0  0  0  0
    1.6176  -52.6818  -20.2929 C   0  0  0  0  0  0  0  0  0  0  0  0
    0.3443  -52.2421  -20.1238 C   0  0  0  0  0  0  0  0  0  0  0  0
    0.1164  -51.2574  -19.1863 C   0  0  0  0  0  0  0  0  0  0  0  0
    1.1044  -50.6924  -18.4089 C   0  0  0  0  0  0  0  0  0  0  0  0
    0.7464  -49.4445  -17.2358 Cl  0  0  0  0  0  0  0  0  0  0  0  0
    5.1147  -50.1487  -25.4423 C   0  0  0  0  0  0  0  0  0  0  0  0
    5.7189  -49.0178  -25.1070 C   0  0  0  0  0  0  0  0  0  0  0  0
    7.1296  -49.0773  -24.6767 C   0  0  0  0  0  0  0  0  0  0  0  0
    7.3001  -48.8371  -23.2466 N   0  0  0  0  0  0  0  0  0  0  0  0
    7.3279  -50.1419  -22.6241 C   0  0  0  0  0  0  0  0  0  0  0  0
    7.5888  -50.0997  -21.1416 C   0  0  0  0  0  0  0  0  0  0  0  0
    7.6500  -48.7122  -20.5851 C   0  0  0  0  0  0  0  0  0  0  0  0
    6.3745  -48.2424  -20.3907 O   0  0  0  0  0  0  0  0  0  0  0  0
    5.6077  -48.5308  -21.4958 C   0  0  0  0  0  0  0  0  0  0  0  0
    6.2915  -47.9752  -22.7247 C   0  0  0  0  0  0  0  0  0  0  0  0
 19 20  1  0  0  0
 20 21  2  0  0  0
 21 22  1  0  0  0
 22 23  2  0  0  0
 23 17  1  0  0  0
 17  1  1  0  0  0
  1  2  2  0  0  0
  2  3  1  0  0  0
  3  4  2  0  0  0
  4  5  1  0  0  0
  5  6  1  0  0  0
  6  7  1  0  0  0
  7  8  1  0  0  0
  8  9  1  0  0  0
  9 10  1  0  0  0
 10 11  1  0  0  0
 11 12  1  0  0  0
 12 13  1  0  0  0
 13 14  1  0  0  0
  9 15  1  0  0  0
 15 16  2  0  0  0
 15 27  1  0  0  0
 27 28  2  0  0  0
 28 29  1  0  0  0
 29 30  1  0  0  0
 30 31  1  0  0  0
 31 32  1  0  0  0
 32 33  1  0  0  0
 33 34  1  0  0  0
 34 35  1  0  0  0
 35 36  1  0  0  0
 23 24  1  0  0  0
 24 25  2  0  0  0
 25 26  1  0  0  0
 25 20  1  0  0  0
 14  1  1  0  0  0
 36 30  1  0  0  0
 14  5  2  0  0  0
 13  7  2  0  0  0
 17 18  1  0  0  0
M  END
> <minimizedAffinity>
-6.99823

> <CNNscore>
0.4190129042

> <CNNaffinity>
7.2588491440

> <CNN_VS>
3.0415513515

> <CNNaffinity_variance>
0.1701488197

$$$$
[H]/C(C(=O)N1C([H])([H])c2sc3nc([H])nc(N([H])c4c([H])c([H])c(Cl)c(Cl)c4[H])c3c2C([H])([H])C([H])([H])C1([H])[H])=C(/[H])C([H])([H])N1C([H])([H])C([H])([H])OC([H])([H])C([H])([H])C1([H])[H]


 36 40  0  0  0  0  0  0  0  0999 V2000
   -0.0443  -53.4766  -22.4815 C   0  0  0  0  0  0  0  0  0  0  0  0
   -1.1544  -53.9873  -21.8668 N   0  0  0  0  0  0  0  0  0  0  0  0
   -1.6007  -53.6526  -20.6800 C   0  0  0  0  0  0  0  0  0  0  0  0
   -0.8984  -52.7268  -20.0196 N   0  0  0  0  0  0  0  0  0  0  0  0
    0.2241  -52.1657  -20.5692 C   0  0  0  0  0  0  0  0  0  0  0  0
    1.2984  -50.9818  -19.9928 S   0  0  0  0  0  0  0  0  0  0  0  0
    2.3456  -50.9105  -21.3220 C   0  0  0  0  0  0  0  0  0  0  0  0
    3.5596  -49.9935  -21.4091 C   0  0  0  0  0  0  0  0  0  0  0  0
    3.2538  -49.0593  -22.4817 N   0  0  0  0  0  0  0  0  0  0  0  0
    2.8455  -49.4856  -23.8058 C   0  0  0  0  0  0  0  0  0  0  0  0
    3.3051  -50.8958  -24.0525 C   0  0  0  0  0  0  0  0  0  0  0  0
    2.4477  -51.9988  -23.5723 C   0  0  0  0  0  0  0  0  0  0  0  0
    1.8318  -51.8227  -22.2020 C   0  0  0  0  0  0  0  0  0  0  0  0
    0.7086  -52.5007  -21.8144 C   0  0  0  0  0  0  0  0  0  0  0  0
    3.3697  -47.7139  -22.1943 C   0  0  0  0  0  0  0  0  0  0  0  0
    3.7514  -47.3601  -21.0299 O   0  0  0  0  0  0  0  0  0  0  0  0
    0.2994  -54.1212  -23.6732 N   0  0  0  0  0  0  0  0  0  0  0  0
    0.7780  -55.0157  -23.7172 H   0  0  0  0  0  0  0  0  0  0  0  0
   -0.9508  -52.2499  -29.2215 Cl  0  0  0  0  0  0  0  0  0  0  0  0
   -0.6084  -52.7667  -27.5848 C   0  0  0  0  0  0  0  0  0  0  0  0
   -1.3693  -52.3494  -26.5226 C   0  0  0  0  0  0  0  0  0  0  0  0
   -1.1068  -52.7560  -25.2036 C   0  0  0  0  0  0  0  0  0  0  0  0
   -0.0635  -53.5929  -24.9703 C   0  0  0  0  0  0  0  0  0  0  0  0
    0.6928  -54.0039  -26.0472 C   0  0  0  0  0  0  0  0  0  0  0  0
    0.4527  -53.6166  -27.3480 C   0  0  0  0  0  0  0  0  0  0  0  0
    1.4528  -54.1760  -28.6703 Cl  0  0  0  0  0  0  0  0  0  0  0  0
    3.0706  -46.6903  -23.1733 C   0  0  0  0  0  0  0  0  0  0  0  0
    3.9937  -46.1768  -23.9737 C   0  0  0  0  0  0  0  0  0  0  0  0
    3.5856  -45.1361  -24.9377 C   0  0  0  0  0  0  0  0  0  0  0  0
    3.6266  -45.5948  -26.3233 N   0  0  0  0  0  0  0  0  0  0  0  0
    2.2564  -45.5890  -26.7853 C   0  0  0  0  0  0  0  0  0  0  0  0
    2.1064  -45.9525  -28.2390 C   0  0  0  0  0  0  0  0  0  0  0  0
    3.3908  -46.3626  -28.8878 C   0  0  0  0  0  0  0  0  0  0  0  0
    3.6636  -47.6707  -28.5718 O   0  0  0  0  0  0  0  0  0  0  0  0
    3.4523  -47.8699  -27.2272 C   0  0  0  0  0  0  0  0  0  0  0  0
    4.2676  -46.8620  -26.4489 C   0  0  0  0  0  0  0  0  0  0  0  0
 19 20  1  0  0  0
 20 21  2  0  0  0
 21 22  1  0  0  0
 22 23  2  0  0  0
 23 17  1  0  0  0
 17  1  1  0  0  0
  1  2  2  0  0  0
  2  3  1  0  0  0
  3  4  2  0  0  0
  4  5  1  0  0  0
  5  6  1  0  0  0
  6  7  1  0  0  0
  7  8  1  0  0  0
  8  9  1  0  0  0
  9 10  1  0  0  0
 10 11  1  0  0  0
 11 12  1  0  0  0
 12 13  1  0  0  0
 13 14  1  0  0  0
  9 15  1  0  0  0
 15 16  2  0  0  0
 15 27  1  0  0  0
 27 28  2  0  0  0
 28 29  1  0  0  0
 29 30  1  0  0  0
 30 31  1  0  0  0
 31 32  1  0  0  0
 32 33  1  0  0  0
 33 34  1  0  0  0
 34 35  1  0  0  0
 35 36  1  0  0  0
 23 24  1  0  0  0
 24 25  2  0  0  0
 25 26  1  0  0  0
 25 20  1  0  0  0
 14  1  1  0  0  0
 36 30  1  0  0  0
 14  5  2  0  0  0
 13  7  2  0  0  0
 17 18  1  0  0  0
M  END
> <minimizedAffinity>
-8.49819

> <CNNscore>
0.3395749927

> <CNNaffinity>
7.4094696045

> <CNN_VS>
2.5160706043

> <CNNaffinity_variance>
0.1903196722

$$$$
[H]/C(C(=O)N1C([H])([H])c2sc3nc([H])nc(N([H])c4c([H])c([H])c(Cl)c(Cl)c4[H])c3c2C([H])([H])C([H])([H])C1([H])[H])=C(/[H])C([H])([H])N1C([H])([H])C([H])([H])OC([H])([H])C([H])([H])C1([H])[H]


 36 40  0  0  0  0  0  0  0  0999 V2000
   -0.4596  -52.3050  -21.5886 C   0  0  0  0  0  0  0  0  0  0  0  0
   -1.1132  -53.5037  -21.6729 N   0  0  0  0  0  0  0  0  0  0  0  0
   -0.9489  -54.4067  -22.6095 C   0  0  0  0  0  0  0  0  0  0  0  0
   -0.0588  -54.1189  -23.5641 N   0  0  0  0  0  0  0  0  0  0  0  0
    0.6382  -52.9395  -23.5482 C   0  0  0  0  0  0  0  0  0  0  0  0
    1.8196  -52.3064  -24.5929 S   0  0  0  0  0  0  0  0  0  0  0  0
    2.1156  -50.8421  -23.7952 C   0  0  0  0  0  0  0  0  0  0  0  0
    3.1185  -49.7960  -24.2668 C   0  0  0  0  0  0  0  0  0  0  0  0
    4.1462  -49.7640  -23.2376 N   0  0  0  0  0  0  0  0  0  0  0  0
    3.8478  -49.5809  -21.8308 C   0  0  0  0  0  0  0  0  0  0  0  0
    2.5106  -48.9113  -21.6756 C   0  0  0  0  0  0  0  0  0  0  0  0
    1.3029  -49.7620  -21.6901 C   0  0  0  0  0  0  0  0  0  0  0  0
    1.2772  -50.8741  -22.7151 C   0  0  0  0  0  0  0  0  0  0  0  0
    0.4830  -51.9788  -22.5732 C   0  0  0  0  0  0  0  0  0  0  0  0
    5.4545  -49.9152  -23.6522 C   0  0  0  0  0  0  0  0  0  0  0  0
    5.6978  -50.0531  -24.8965 O   0  0  0  0  0  0  0  0  0  0  0  0
   -0.9376  -51.4603  -20.5828 N   0  0  0  0  0  0  0  0  0  0  0  0
   -1.6440  -50.7458  -20.7296 H   0  0  0  0  0  0  0  0  0  0  0  0
    1.0452  -51.5606  -14.9342 Cl  0  0  0  0  0  0  0  0  0  0  0  0
    0.4477  -51.5673  -16.5792 C   0  0  0  0  0  0  0  0  0  0  0  0
   -0.5644  -52.4041  -16.9755 C   0  0  0  0  0  0  0  0  0  0  0  0
   -1.0546  -52.4205  -18.2921 C   0  0  0  0  0  0  0  0  0  0  0  0
   -0.5087  -51.5779  -19.2061 C   0  0  0  0  0  0  0  0  0  0  0  0
    0.5079  -50.7429  -18.7939 C   0  0  0  0  0  0  0  0  0  0  0  0
    1.0034  -50.7114  -17.5081 C   0  0  0  0  0  0  0  0  0  0  0  0
    2.2970  -49.6256  -17.0507 Cl  0  0  0  0  0  0  0  0  0  0  0  0
    6.5607  -49.9228  -22.7184 C   0  0  0  0  0  0  0  0  0  0  0  0
    7.4558  -48.9470  -22.6643 C   0  0  0  0  0  0  0  0  0  0  0  0
    8.5471  -49.0506  -21.6758 C   0  0  0  0  0  0  0  0  0  0  0  0
    8.5650  -47.9402  -20.7277 N   0  0  0  0  0  0  0  0  0  0  0  0
    7.9318  -48.4334  -19.5249 C   0  0  0  0  0  0  0  0  0  0  0  0
    7.9372  -47.4445  -18.3892 C   0  0  0  0  0  0  0  0  0  0  0  0
    8.4902  -46.1060  -18.7652 C   0  0  0  0  0  0  0  0  0  0  0  0
    7.5229  -45.3795  -19.4149 O   0  0  0  0  0  0  0  0  0  0  0  0
    6.9004  -46.1775  -20.3466 C   0  0  0  0  0  0  0  0  0  0  0  0
    7.9480  -46.7710  -21.2612 C   0  0  0  0  0  0  0  0  0  0  0  0
 19 20  1  0  0  0
 20 21  2  0  0  0
 21 22  1  0  0  0
 22 23  2  0  0  0
 23 17  1  0  0  0
 17  1  1  0  0  0
  1  2  2  0  0  0
  2  3  1  0  0  0
  3  4  2  0  0  0
  4  5  1  0  0  0
  5  6  1  0  0  0
  6  7  1  0  0  0
  7  8  1  0  0  0
  8  9  1  0  0  0
  9 10  1  0  0  0
 10 11  1  0  0  0
 11 12  1  0  0  0
 12 13  1  0  0  0
 13 14  1  0  0  0
  9 15  1  0  0  0
 15 16  2  0  0  0
 15 27  1  0  0  0
 27 28  2  0  0  0
 28 29  1  0  0  0
 29 30  1  0  0  0
 30 31  1  0  0  0
 31 32  1  0  0  0
 32 33  1  0  0  0
 33 34  1  0  0  0
 34 35  1  0  0  0
 35 36  1  0  0  0
 23 24  1  0  0  0
 24 25  2  0  0  0
 25 26  1  0  0  0
 25 20  1  0  0  0
 14  1  1  0  0  0
 36 30  1  0  0  0
 14  5  2  0  0  0
 13  7  2  0  0  0
 17 18  1  0  0  0
M  END
> <minimizedAffinity>
-5.69255

> <CNNscore>
0.3375003934

> <CNNaffinity>
6.9422936440

> <CNN_VS>
2.3430268764

> <CNNaffinity_variance>
0.4952970147

$$$$
[H]/C(C(=O)N1C([H])([H])c2sc3nc([H])nc(N([H])c4c([H])c([H])c(Cl)c(Cl)c4[H])c3c2C([H])([H])C([H])([H])C1([H])[H])=C(/[H])C([H])([H])N1C([H])([H])C([H])([H])OC([H])([H])C([H])([H])C1([H])[H]


 36 40  0  0  0  0  0  0  0  0999 V2000
    0.9451  -52.0898  -23.0734 C   0  0  0  0  0  0  0  0  0  0  0  0
   -0.1620  -52.5988  -22.4519 N   0  0  0  0  0  0  0  0  0  0  0  0
   -0.7735  -52.0754  -21.4166 C   0  0  0  0  0  0  0  0  0  0  0  0
   -0.2592  -50.9406  -20.9328 N   0  0  0  0  0  0  0  0  0  0  0  0
    0.8472  -50.3669  -21.5019 C   0  0  0  0  0  0  0  0  0  0  0  0
    1.7091  -48.9507  -21.1283 S   0  0  0  0  0  0  0  0  0  0  0  0
    2.8839  -49.0316  -22.3455 C   0  0  0  0  0  0  0  0  0  0  0  0
    3.9884  -48.0000  -22.5413 C   0  0  0  0  0  0  0  0  0  0  0  0
    3.7011  -47.3746  -23.8231 N   0  0  0  0  0  0  0  0  0  0  0  0
    3.4948  -48.1327  -25.0415 C   0  0  0  0  0  0  0  0  0  0  0  0
    4.1357  -49.4868  -24.9150 C   0  0  0  0  0  0  0  0  0  0  0  0
    3.3604  -50.5634  -24.2653 C   0  0  0  0  0  0  0  0  0  0  0  0
    2.5786  -50.1759  -23.0296 C   0  0  0  0  0  0  0  0  0  0  0  0
    1.5031  -50.8983  -22.5905 C   0  0  0  0  0  0  0  0  0  0  0  0
    3.6309  -45.9959  -23.8471 C   0  0  0  0  0  0  0  0  0  0  0  0
    3.8371  -45.3466  -22.7689 O   0  0  0  0  0  0  0  0  0  0  0  0
    1.4911  -52.9275  -24.0499 N   0  0  0  0  0  0  0  0  0  0  0  0
    2.1900  -53.6395  -23.8610 H   0  0  0  0  0  0  0  0  0  0  0  0
   -0.7020  -52.6092  -29.6121 Cl  0  0  0  0  0  0  0  0  0  0  0  0
   -0.0279  -52.7210  -28.0009 C   0  0  0  0  0  0  0  0  0  0  0  0
    1.3017  -52.9862  -27.7921 C   0  0  0  0  0  0  0  0  0  0  0  0
    1.8570  -53.0786  -26.5049 C   0  0  0  0  0  0  0  0  0  0  0  0
    1.0504  -52.8983  -25.4277 C   0  0  0  0  0  0  0  0  0  0  0  0
   -0.2836  -52.6329  -25.6525 C   0  0  0  0  0  0  0  0  0  0  0  0
   -0.8482  -52.5387  -26.9063 C   0  0  0  0  0  0  0  0  0  0  0  0
   -2.5511  -52.1988  -27.1214 Cl  0  0  0  0  0  0  0  0  0  0  0  0
    3.3296  -45.2626  -25.0584 C   0  0  0  0  0  0  0  0  0  0  0  0
    4.2331  -45.0421  -26.0026 C   0  0  0  0  0  0  0  0  0  0  0  0
    3.8246  -44.2820  -27.2001 C   0  0  0  0  0  0  0  0  0  0  0  0
    3.8499  -45.0835  -28.4203 N   0  0  0  0  0  0  0  0  0  0  0  0
    2.4691  -45.3792  -28.7311 C   0  0  0  0  0  0  0  0  0  0  0  0
    2.2874  -46.1327  -30.0222 C   0  0  0  0  0  0  0  0  0  0  0  0
    3.5770  -46.5299  -30.6686 C   0  0  0  0  0  0  0  0  0  0  0  0
    4.0636  -47.6597  -30.0585 O   0  0  0  0  0  0  0  0  0  0  0  0
    3.9673  -47.5196  -28.6934 C   0  0  0  0  0  0  0  0  0  0  0  0
    4.6666  -46.2437  -28.2817 C   0  0  0  0  0  0  0  0  0  0  0  0
 19 20  1  0  0  0
 20 21  2  0  0  0
 21 22  1  0  0  0
 22 23  2  0  0  0
 23 17  1  0  0  0
 17  1  1  0  0  0
  1  2  2  0  0  0
  2  3  1  0  0  0
  3  4  2  0  0  0
  4  5  1  0  0  0
  5  6  1  0  0  0
  6  7  1  0  0  0
  7  8  1  0  0  0
  8  9  1  0  0  0
  9 10  1  0  0  0
 10 11  1  0  0  0
 11 12  1  0  0  0
 12 13  1  0  0  0
 13 14  1  0  0  0
  9 15  1  0  0  0
 15 16  2  0  0  0
 15 27  1  0  0  0
 27 28  2  0  0  0
 28 29  1  0  0  0
 29 30  1  0  0  0
 30 31  1  0  0  0
 31 32  1  0  0  0
 32 33  1  0  0  0
 33 34  1  0  0  0
 34 35  1  0  0  0
 35 36  1  0  0  0
 23 24  1  0  0  0
 24 25  2  0  0  0
 25 26  1  0  0  0
 25 20  1  0  0  0
 14  1  1  0  0  0
 36 30  1  0  0  0
 14  5  2  0  0  0
 13  7  2  0  0  0
 17 18  1  0  0  0
M  END
> <minimizedAffinity>
-8.42617

> <CNNscore>
0.2464856207

> <CNNaffinity>
7.1272025108

> <CNN_VS>
1.7567529678

> <CNNaffinity_variance>
0.2574962676

$$$$
[H]/C(C(=O)N1C([H])([H])c2sc3nc([H])nc(N([H])c4c([H])c([H])c(Cl)c(Cl)c4[H])c3c2C([H])([H])C([H])([H])C1([H])[H])=C(/[H])C([H])([H])N1C([H])([H])C([H])([H])OC([H])([H])C([H])([H])C1([H])[H]


 36 40  0  0  0  0  0  0  0  0999 V2000
    0.0521  -52.0608  -22.1357 C   0  0  0  0  0  0  0  0  0  0  0  0
   -0.7081  -53.1030  -21.6809 N   0  0  0  0  0  0  0  0  0  0  0  0
   -0.4864  -53.8016  -20.5934 C   0  0  0  0  0  0  0  0  0  0  0  0
    0.5833  -53.4545  -19.8710 N   0  0  0  0  0  0  0  0  0  0  0  0
    1.3930  -52.4197  -20.2592 C   0  0  0  0  0  0  0  0  0  0  0  0
    2.7886  -51.7481  -19.5599 S   0  0  0  0  0  0  0  0  0  0  0  0
    3.0885  -50.5284  -20.6959 C   0  0  0  0  0  0  0  0  0  0  0  0
    4.2519  -49.5474  -20.6140 C   0  0  0  0  0  0  0  0  0  0  0  0
    3.6368  -48.2449  -20.4096 N   0  0  0  0  0  0  0  0  0  0  0  0
    2.5935  -47.7221  -21.2698 C   0  0  0  0  0  0  0  0  0  0  0  0
    2.6478  -48.4023  -22.6095 C   0  0  0  0  0  0  0  0  0  0  0  0
    1.9479  -49.6945  -22.7604 C   0  0  0  0  0  0  0  0  0  0  0  0
    2.0821  -50.6689  -21.6112 C   0  0  0  0  0  0  0  0  0  0  0  0
    1.1771  -51.6719  -21.3958 C   0  0  0  0  0  0  0  0  0  0  0  0
    4.0909  -47.4970  -19.3416 C   0  0  0  0  0  0  0  0  0  0  0  0
    5.0246  -47.9656  -18.6099 O   0  0  0  0  0  0  0  0  0  0  0  0
   -0.3113  -51.5954  -23.4025 N   0  0  0  0  0  0  0  0  0  0  0  0
   -0.8772  -50.7675  -23.5624 H   0  0  0  0  0  0  0  0  0  0  0  0
    1.2898  -53.9816  -28.6552 Cl  0  0  0  0  0  0  0  0  0  0  0  0
    0.8510  -53.3058  -27.1016 C   0  0  0  0  0  0  0  0  0  0  0  0
    1.6909  -53.3801  -26.0196 C   0  0  0  0  0  0  0  0  0  0  0  0
    1.3525  -52.8421  -24.7666 C   0  0  0  0  0  0  0  0  0  0  0  0
    0.1519  -52.2255  -24.6197 C   0  0  0  0  0  0  0  0  0  0  0  0
   -0.6822  -52.1586  -25.7154 C   0  0  0  0  0  0  0  0  0  0  0  0
   -0.3698  -52.6800  -26.9525 C   0  0  0  0  0  0  0  0  0  0  0  0
   -1.4757  -52.5606  -28.3032 Cl  0  0  0  0  0  0  0  0  0  0  0  0
    3.5400  -46.1964  -19.0245 C   0  0  0  0  0  0  0  0  0  0  0  0
    3.6806  -45.6327  -17.8334 C   0  0  0  0  0  0  0  0  0  0  0  0
    3.0796  -44.3030  -17.6115 C   0  0  0  0  0  0  0  0  0  0  0  0
    2.9320  -43.9728  -16.1968 N   0  0  0  0  0  0  0  0  0  0  0  0
    4.0816  -44.5453  -15.5323 C   0  0  0  0  0  0  0  0  0  0  0  0
    4.1505  -44.2285  -14.0617 C   0  0  0  0  0  0  0  0  0  0  0  0
    2.9557  -43.4843  -13.5544 C   0  0  0  0  0  0  0  0  0  0  0  0
    1.9286  -44.3682  -13.3327 O   0  0  0  0  0  0  0  0  0  0  0  0
    1.8277  -45.2291  -14.4008 C   0  0  0  0  0  0  0  0  0  0  0  0
    1.6849  -44.4199  -15.6701 C   0  0  0  0  0  0  0  0  0  0  0  0
 19 20  1  0  0  0
 20 21  2  0  0  0
 21 22  1  0  0  0
 22 23  2  0  0  0
 23 17  1  0  0  0
 17  1  1  0  0  0
  1  2  2  0  0  0
  2  3  1  0  0  0
  3  4  2  0  0  0
  4  5  1  0  0  0
  5  6  1  0  0  0
  6  7  1  0  0  0
  7  8  1  0  0  0
  8  9  1  0  0  0
  9 10  1  0  0  0
 10 11  1  0  0  0
 11 12  1  0  0  0
 12 13  1  0  0  0
 13 14  1  0  0  0
  9 15  1  0  0  0
 15 16  2  0  0  0
 15 27  1  0  0  0
 27 28  2  0  0  0
 28 29  1  0  0  0
 29 30  1  0  0  0
 30 31  1  0  0  0
 31 32  1  0  0  0
 32 33  1  0  0  0
 33 34  1  0  0  0
 34 35  1  0  0  0
 35 36  1  0  0  0
 23 24  1  0  0  0
 24 25  2  0  0  0
 25 26  1  0  0  0
 25 20  1  0  0  0
 14  1  1  0  0  0
 36 30  1  0  0  0
 14  5  2  0  0  0
 13  7  2  0  0  0
 17 18  1  0  0  0
M  END
> <minimizedAffinity>
-6.80977

> <CNNscore>
0.2333375365

> <CNNaffinity>
6.7318201065

> <CNN_VS>
1.5707863569

> <CNNaffinity_variance>
0.4555924833

$$$$
[H]/C(C(=O)N1C([H])([H])c2sc3nc([H])nc(N([H])c4c([H])c([H])c(Cl)c(Cl)c4[H])c3c2C([H])([H])C([H])([H])C1([H])[H])=C(/[H])C([H])([H])N1C([H])([H])C([H])([H])OC([H])([H])C([H])([H])C1([H])[H]


 36 40  0  0  0  0  0  0  0  0999 V2000
    0.6932  -52.8022  -22.3050 C   0  0  0  0  0  0  0  0  0  0  0  0
   -0.5023  -53.4072  -22.0298 N   0  0  0  0  0  0  0  0  0  0  0  0
   -1.1651  -53.3264  -20.9011 C   0  0  0  0  0  0  0  0  0  0  0  0
   -0.6123  -52.5820  -19.9385 N   0  0  0  0  0  0  0  0  0  0  0  0
    0.5826  -51.9421  -20.1380 C   0  0  0  0  0  0  0  0  0  0  0  0
    1.5121  -50.9364  -19.1318 S   0  0  0  0  0  0  0  0  0  0  0  0
    2.7848  -50.6044  -20.1988 C   0  0  0  0  0  0  0  0  0  0  0  0
    3.9784  -49.7192  -19.8609 C   0  0  0  0  0  0  0  0  0  0  0  0
    3.8596  -48.5684  -20.7431 N   0  0  0  0  0  0  0  0  0  0  0  0
    3.7093  -48.6887  -22.1800 C   0  0  0  0  0  0  0  0  0  0  0  0
    4.2303  -50.0228  -22.6378 C   0  0  0  0  0  0  0  0  0  0  0  0
    3.3180  -51.1830  -22.5736 C   0  0  0  0  0  0  0  0  0  0  0  0
    2.4574  -51.2925  -21.3345 C   0  0  0  0  0  0  0  0  0  0  0  0
    1.2937  -52.0115  -21.3158 C   0  0  0  0  0  0  0  0  0  0  0  0
    3.8977  -47.3199  -20.1547 C   0  0  0  0  0  0  0  0  0  0  0  0
    4.0524  -47.2351  -18.8916 O   0  0  0  0  0  0  0  0  0  0  0  0
    1.2614  -53.1820  -23.5242 N   0  0  0  0  0  0  0  0  0  0  0  0
    2.1278  -53.7047  -23.6084 H   0  0  0  0  0  0  0  0  0  0  0  0
   -1.1688  -52.4219  -28.9431 Cl  0  0  0  0  0  0  0  0  0  0  0  0
   -0.4803  -52.6125  -27.3455 C   0  0  0  0  0  0  0  0  0  0  0  0
   -1.0481  -52.0296  -26.2411 C   0  0  0  0  0  0  0  0  0  0  0  0
   -0.5069  -52.1740  -24.9526 C   0  0  0  0  0  0  0  0  0  0  0  0
    0.6178  -52.9175  -24.7927 C   0  0  0  0  0  0  0  0  0  0  0  0
    1.1777  -53.4970  -25.9113 C   0  0  0  0  0  0  0  0  0  0  0  0
    0.6634  -53.3674  -27.1835 C   0  0  0  0  0  0  0  0  0  0  0  0
    1.4248  -54.1304  -28.5619 Cl  0  0  0  0  0  0  0  0  0  0  0  0
    3.7667  -46.1022  -20.9265 C   0  0  0  0  0  0  0  0  0  0  0  0
    4.7923  -45.5365  -21.5467 C   0  0  0  0  0  0  0  0  0  0  0  0
    4.5532  -44.2944  -22.3075 C   0  0  0  0  0  0  0  0  0  0  0  0
    4.9319  -44.4049  -23.7133 N   0  0  0  0  0  0  0  0  0  0  0  0
    5.2725  -45.7940  -23.9259 C   0  0  0  0  0  0  0  0  0  0  0  0
    5.6076  -46.1228  -25.3567 C   0  0  0  0  0  0  0  0  0  0  0  0
    5.6374  -44.9255  -26.2535 C   0  0  0  0  0  0  0  0  0  0  0  0
    6.8372  -44.2745  -26.1048 O   0  0  0  0  0  0  0  0  0  0  0  0
    7.1359  -44.1664  -24.7663 C   0  0  0  0  0  0  0  0  0  0  0  0
    5.9779  -43.4998  -24.0585 C   0  0  0  0  0  0  0  0  0  0  0  0
 19 20  1  0  0  0
 20 21  2  0  0  0
 21 22  1  0  0  0
 22 23  2  0  0  0
 23 17  1  0  0  0
 17  1  1  0  0  0
  1  2  2  0  0  0
  2  3  1  0  0  0
  3  4  2  0  0  0
  4  5  1  0  0  0
  5  6  1  0  0  0
  6  7  1  0  0  0
  7  8  1  0  0  0
  8  9  1  0  0  0
  9 10  1  0  0  0
 10 11  1  0  0  0
 11 12  1  0  0  0
 12 13  1  0  0  0
 13 14  1  0  0  0
  9 15  1  0  0  0
 15 16  2  0  0  0
 15 27  1  0  0  0
 27 28  2  0  0  0
 28 29  1  0  0  0
 29 30  1  0  0  0
 30 31  1  0  0  0
 31 32  1  0  0  0
 32 33  1  0  0  0
 33 34  1  0  0  0
 34 35  1  0  0  0
 35 36  1  0  0  0
 23 24  1  0  0  0
 24 25  2  0  0  0
 25 26  1  0  0  0
 25 20  1  0  0  0
 14  1  1  0  0  0
 36 30  1  0  0  0
 14  5  2  0  0  0
 13  7  2  0  0  0
 17 18  1  0  0  0
M  END
> <minimizedAffinity>
-7.24570

> <CNNscore>
0.2279753089

> <CNNaffinity>
7.0663213730

> <CNN_VS>
1.6109467745

> <CNNaffinity_variance>
0.4166209102

$$$$
[H]/C(C(=O)N1C([H])([H])c2sc3nc([H])nc(N([H])c4c([H])c([H])c(Cl)c(Cl)c4[H])c3c2C([H])([H])C([H])([H])C1([H])[H])=C(/[H])C([H])([H])N1C([H])([H])C([H])([H])OC([H])([H])C([H])([H])C1([H])[H]


 36 40  0  0  0  0  0  0  0  0999 V2000
    0.1582  -51.4508  -19.0461 C   0  0  0  0  0  0  0  0  0  0  0  0
   -0.3867  -52.7023  -18.9586 N   0  0  0  0  0  0  0  0  0  0  0  0
   -0.5220  -53.5546  -19.9460 C   0  0  0  0  0  0  0  0  0  0  0  0
   -0.0838  -53.1529  -21.1430 N   0  0  0  0  0  0  0  0  0  0  0  0
    0.4768  -51.9141  -21.3114 C   0  0  0  0  0  0  0  0  0  0  0  0
    1.1236  -51.1385  -22.6780 S   0  0  0  0  0  0  0  0  0  0  0  0
    1.5888  -49.6797  -21.9543 C   0  0  0  0  0  0  0  0  0  0  0  0
    2.2569  -48.5287  -22.6968 C   0  0  0  0  0  0  0  0  0  0  0  0
    3.5923  -48.4336  -22.1274 N   0  0  0  0  0  0  0  0  0  0  0  0
    3.8358  -48.3258  -20.7023 C   0  0  0  0  0  0  0  0  0  0  0  0
    2.6107  -47.7908  -20.0141 C   0  0  0  0  0  0  0  0  0  0  0  0
    1.5550  -48.7507  -19.6317 C   0  0  0  0  0  0  0  0  0  0  0  0
    1.2266  -49.8261  -20.6436 C   0  0  0  0  0  0  0  0  0  0  0  0
    0.6305  -51.0049  -20.2880 C   0  0  0  0  0  0  0  0  0  0  0  0
    4.6536  -48.4470  -23.0104 C   0  0  0  0  0  0  0  0  0  0  0  0
    4.4172  -48.5204  -24.2615 O   0  0  0  0  0  0  0  0  0  0  0  0
    0.0347  -50.6883  -17.8811 N   0  0  0  0  0  0  0  0  0  0  0  0
   -0.7925  -50.1515  -17.6390 H   0  0  0  0  0  0  0  0  0  0  0  0
    3.9876  -50.4977  -13.3882 Cl  0  0  0  0  0  0  0  0  0  0  0  0
    2.8631  -50.5561  -14.7279 C   0  0  0  0  0  0  0  0  0  0  0  0
    3.2460  -50.9865  -15.9728 C   0  0  0  0  0  0  0  0  0  0  0  0
    2.3546  -51.0392  -17.0575 C   0  0  0  0  0  0  0  0  0  0  0  0
    1.0673  -50.6514  -16.8684 C   0  0  0  0  0  0  0  0  0  0  0  0
    0.6966  -50.2208  -15.6123 C   0  0  0  0  0  0  0  0  0  0  0  0
    1.5550  -50.1610  -14.5356 C   0  0  0  0  0  0  0  0  0  0  0  0
    1.0189  -49.6038  -12.9659 Cl  0  0  0  0  0  0  0  0  0  0  0  0
    6.0282  -48.3808  -22.5611 C   0  0  0  0  0  0  0  0  0  0  0  0
    6.6913  -47.2380  -22.4586 C   0  0  0  0  0  0  0  0  0  0  0  0
    8.0908  -47.2789  -21.9909 C   0  0  0  0  0  0  0  0  0  0  0  0
    8.2411  -46.8495  -20.6035 N   0  0  0  0  0  0  0  0  0  0  0  0
    8.3138  -48.0610  -19.8175 C   0  0  0  0  0  0  0  0  0  0  0  0
    8.5617  -47.8178  -18.3521 C   0  0  0  0  0  0  0  0  0  0  0  0
    8.5658  -46.3687  -17.9796 C   0  0  0  0  0  0  0  0  0  0  0  0
    7.2718  -45.9276  -17.8508 O   0  0  0  0  0  0  0  0  0  0  0  0
    6.5250  -46.3857  -18.9114 C   0  0  0  0  0  0  0  0  0  0  0  0
    7.1964  -45.9673  -20.2000 C   0  0  0  0  0  0  0  0  0  0  0  0
 19 20  1  0  0  0
 20 21  2  0  0  0
 21 22  1  0  0  0
 22 23  2  0  0  0
 23 17  1  0  0  0
 17  1  1  0  0  0
  1  2  2  0  0  0
  2  3  1  0  0  0
  3  4  2  0  0  0
  4  5  1  0  0  0
  5  6  1  0  0  0
  6  7  1  0  0  0
  7  8  1  0  0  0
  8  9  1  0  0  0
  9 10  1  0  0  0
 10 11  1  0  0  0
 11 12  1  0  0  0
 12 13  1  0  0  0
 13 14  1  0  0  0
  9 15  1  0  0  0
 15 16  2  0  0  0
 15 27  1  0  0  0
 27 28  2  0  0  0
 28 29  1  0  0  0
 29 30  1  0  0  0
 30 31  1  0  0  0
 31 32  1  0  0  0
 32 33  1  0  0  0
 33 34  1  0  0  0
 34 35  1  0  0  0
 35 36  1  0  0  0
 23 24  1  0  0  0
 24 25  2  0  0  0
 25 26  1  0  0  0
 25 20  1  0  0  0
 14  1  1  0  0  0
 36 30  1  0  0  0
 14  5  2  0  0  0
 13  7  2  0  0  0
 17 18  1  0  0  0
M  END
> <minimizedAffinity>
-5.71274

> <CNNscore>
0.1695011407

> <CNNaffinity>
6.5397095680

> <CNN_VS>
1.1084882021

> <CNNaffinity_variance>
0.6627289057

$$$$
[H]/C(C(=O)N1C([H])([H])c2sc3nc([H])nc(N([H])c4c([H])c([H])c(Cl)c(Cl)c4[H])c3c2C([H])([H])C([H])([H])C1([H])[H])=C(/[H])C([H])([H])N1C([H])([H])C([H])([H])OC([H])([H])C([H])([H])C1([H])[H]


 36 40  0  0  0  0  0  0  0  0999 V2000
    0.4682  -52.5527  -19.5634 C   0  0  0  0  0  0  0  0  0  0  0  0
    0.0164  -53.8170  -19.8252 N   0  0  0  0  0  0  0  0  0  0  0  0
   -0.1817  -54.3336  -21.0142 C   0  0  0  0  0  0  0  0  0  0  0  0
    0.0855  -53.5434  -22.0584 N   0  0  0  0  0  0  0  0  0  0  0  0
    0.5438  -52.2649  -21.8784 C   0  0  0  0  0  0  0  0  0  0  0  0
    0.9743  -51.0484  -22.9842 S   0  0  0  0  0  0  0  0  0  0  0  0
    1.4303  -49.8448  -21.8834 C   0  0  0  0  0  0  0  0  0  0  0  0
    1.9326  -48.4627  -22.2833 C   0  0  0  0  0  0  0  0  0  0  0  0
    3.3176  -48.4190  -21.8400 N   0  0  0  0  0  0  0  0  0  0  0  0
    3.7213  -48.7312  -20.4831 C   0  0  0  0  0  0  0  0  0  0  0  0
    2.5557  -48.5540  -19.5501 C   0  0  0  0  0  0  0  0  0  0  0  0
    1.6146  -49.6820  -19.3938 C   0  0  0  0  0  0  0  0  0  0  0  0
    1.2361  -50.4209  -20.6583 C   0  0  0  0  0  0  0  0  0  0  0  0
    0.7610  -51.7036  -20.6393 C   0  0  0  0  0  0  0  0  0  0  0  0
    4.2654  -48.0581  -22.7770 C   0  0  0  0  0  0  0  0  0  0  0  0
    3.8873  -47.7661  -23.9595 O   0  0  0  0  0  0  0  0  0  0  0  0
    0.4365  -52.2006  -18.2111 N   0  0  0  0  0  0  0  0  0  0  0  0
    1.2537  -51.9182  -17.6787 H   0  0  0  0  0  0  0  0  0  0  0  0
   -4.5473  -51.5517  -14.9570 Cl  0  0  0  0  0  0  0  0  0  0  0  0
   -3.1027  -51.7788  -15.9186 C   0  0  0  0  0  0  0  0  0  0  0  0
   -3.0117  -52.7725  -16.8598 C   0  0  0  0  0  0  0  0  0  0  0  0
   -1.8590  -52.9667  -17.6393 C   0  0  0  0  0  0  0  0  0  0  0  0
   -0.7964  -52.1416  -17.4564 C   0  0  0  0  0  0  0  0  0  0  0  0
   -0.9018  -51.1477  -16.5068 C   0  0  0  0  0  0  0  0  0  0  0  0
   -2.0226  -50.9406  -15.7317 C   0  0  0  0  0  0  0  0  0  0  0  0
   -2.0904  -49.6587  -14.5427 Cl  0  0  0  0  0  0  0  0  0  0  0  0
    5.6768  -48.0012  -22.4600 C   0  0  0  0  0  0  0  0  0  0  0  0
    6.3354  -46.8576  -22.3385 C   0  0  0  0  0  0  0  0  0  0  0  0
    7.7744  -46.9082  -22.0136 C   0  0  0  0  0  0  0  0  0  0  0  0
    8.0351  -46.9047  -20.5769 N   0  0  0  0  0  0  0  0  0  0  0  0
    8.1390  -48.2934  -20.1877 C   0  0  0  0  0  0  0  0  0  0  0  0
    8.4986  -48.4904  -18.7387 C   0  0  0  0  0  0  0  0  0  0  0  0
    8.5612  -47.2144  -17.9599 C   0  0  0  0  0  0  0  0  0  0  0  0
    7.2899  -46.8316  -17.6095 O   0  0  0  0  0  0  0  0  0  0  0  0
    6.4578  -46.9591  -18.6974 C   0  0  0  0  0  0  0  0  0  0  0  0
    7.0420  -46.1806  -19.8546 C   0  0  0  0  0  0  0  0  0  0  0  0
 19 20  1  0  0  0
 20 21  2  0  0  0
 21 22  1  0  0  0
 22 23  2  0  0  0
 23 17  1  0  0  0
 17  1  1  0  0  0
  1  2  2  0  0  0
  2  3  1  0  0  0
  3  4  2  0  0  0
  4  5  1  0  0  0
  5  6  1  0  0  0
  6  7  1  0  0  0
  7  8  1  0  0  0
  8  9  1  0  0  0
  9 10  1  0  0  0
 10 11  1  0  0  0
 11 12  1  0  0  0
 12 13  1  0  0  0
 13 14  1  0  0  0
  9 15  1  0  0  0
 15 16  2  0  0  0
 15 27  1  0  0  0
 27 28  2  0  0  0
 28 29  1  0  0  0
 29 30  1  0  0  0
 30 31  1  0  0  0
 31 32  1  0  0  0
 32 33  1  0  0  0
 33 34  1  0  0  0
 34 35  1  0  0  0
 35 36  1  0  0  0
 23 24  1  0  0  0
 24 25  2  0  0  0
 25 26  1  0  0  0
 25 20  1  0  0  0
 14  1  1  0  0  0
 36 30  1  0  0  0
 14  5  2  0  0  0
 13  7  2  0  0  0
 17 18  1  0  0  0
M  END
> <minimizedAffinity>
-6.59672

> <CNNscore>
0.1449633986

> <CNNaffinity>
6.6684846878

> <CNN_VS>
0.9666861892

> <CNNaffinity_variance>
0.2506241500

$$$$
[H]/C(C(=O)N1C([H])([H])c2sc3nc([H])nc(N([H])c4c([H])c([H])c(Cl)c(Cl)c4[H])c3c2C([H])([H])C([H])([H])C1([H])[H])=C(/[H])C([H])([H])N1C([H])([H])C([H])([H])OC([H])([H])C([H])([H])C1([H])[H]


 36 40  0  0  0  0  0  0  0  0999 V2000
    1.0911  -50.9193  -22.6485 C   0  0  0  0  0  0  0  0  0  0  0  0
    0.6036  -51.5343  -23.7688 N   0  0  0  0  0  0  0  0  0  0  0  0
   -0.0569  -52.6667  -23.8006 C   0  0  0  0  0  0  0  0  0  0  0  0
   -0.2670  -53.2662  -22.6246 N   0  0  0  0  0  0  0  0  0  0  0  0
    0.1880  -52.7118  -21.4573 C   0  0  0  0  0  0  0  0  0  0  0  0
    0.0691  -53.2184  -19.8396 S   0  0  0  0  0  0  0  0  0  0  0  0
    0.8853  -51.9306  -19.1022 C   0  0  0  0  0  0  0  0  0  0  0  0
    1.1136  -51.8073  -17.6005 C   0  0  0  0  0  0  0  0  0  0  0  0
    0.3435  -50.6419  -17.1937 N   0  0  0  0  0  0  0  0  0  0  0  0
    0.4746  -49.3477  -17.8336 C   0  0  0  0  0  0  0  0  0  0  0  0
    1.8089  -49.2503  -18.5198 C   0  0  0  0  0  0  0  0  0  0  0  0
    1.9271  -49.7959  -19.8875 C   0  0  0  0  0  0  0  0  0  0  0  0
    1.2400  -51.1189  -20.1442 C   0  0  0  0  0  0  0  0  0  0  0  0
    0.8813  -51.5227  -21.4011 C   0  0  0  0  0  0  0  0  0  0  0  0
   -0.5413  -50.8085  -16.1470 C   0  0  0  0  0  0  0  0  0  0  0  0
   -0.6258  -51.9494  -15.5832 O   0  0  0  0  0  0  0  0  0  0  0  0
    1.8959  -49.8066  -22.9089 N   0  0  0  0  0  0  0  0  0  0  0  0
    1.5380  -48.8659  -23.0432 H   0  0  0  0  0  0  0  0  0  0  0  0
    7.8302  -50.4777  -23.3363 Cl  0  0  0  0  0  0  0  0  0  0  0  0
    6.1014  -50.2514  -23.1845 C   0  0  0  0  0  0  0  0  0  0  0  0
    5.5684  -49.1125  -22.6363 C   0  0  0  0  0  0  0  0  0  0  0  0
    4.1831  -48.9167  -22.5082 C   0  0  0  0  0  0  0  0  0  0  0  0
    3.3400  -49.8881  -22.9430 C   0  0  0  0  0  0  0  0  0  0  0  0
    3.8896  -51.0274  -23.4913 C   0  0  0  0  0  0  0  0  0  0  0  0
    5.2449  -51.2394  -23.6255 C   0  0  0  0  0  0  0  0  0  0  0  0
    5.8770  -52.7104  -24.3315 Cl  0  0  0  0  0  0  0  0  0  0  0  0
   -1.3779  -49.7283  -15.6684 C   0  0  0  0  0  0  0  0  0  0  0  0
   -1.1883  -49.1455  -14.4933 C   0  0  0  0  0  0  0  0  0  0  0  0
   -2.0981  -48.0526  -14.0977 C   0  0  0  0  0  0  0  0  0  0  0  0
   -1.4050  -46.7878  -13.8705 N   0  0  0  0  0  0  0  0  0  0  0  0
   -1.7249  -45.9491  -15.0041 C   0  0  0  0  0  0  0  0  0  0  0  0
   -1.1645  -44.5551  -14.9029 C   0  0  0  0  0  0  0  0  0  0  0  0
   -0.2889  -44.3487  -13.7073 C   0  0  0  0  0  0  0  0  0  0  0  0
    0.9625  -44.8507  -13.9668 O   0  0  0  0  0  0  0  0  0  0  0  0
    0.8455  -46.0884  -14.5557 C   0  0  0  0  0  0  0  0  0  0  0  0
   -0.0053  -46.9725  -13.6721 C   0  0  0  0  0  0  0  0  0  0  0  0
 19 20  1  0  0  0
 20 21  2  0  0  0
 21 22  1  0  0  0
 22 23  2  0  0  0
 23 17  1  0  0  0
 17  1  1  0  0  0
  1  2  2  0  0  0
  2  3  1  0  0  0
  3  4  2  0  0  0
  4  5  1  0  0  0
  5  6  1  0  0  0
  6  7  1  0  0  0
  7  8  1  0  0  0
  8  9  1  0  0  0
  9 10  1  0  0  0
 10 11  1  0  0  0
 11 12  1  0  0  0
 12 13  1  0  0  0
 13 14  1  0  0  0
  9 15  1  0  0  0
 15 16  2  0  0  0
 15 27  1  0  0  0
 27 28  2  0  0  0
 28 29  1  0  0  0
 29 30  1  0  0  0
 30 31  1  0  0  0
 31 32  1  0  0  0
 32 33  1  0  0  0
 33 34  1  0  0  0
 34 35  1  0  0  0
 35 36  1  0  0  0
 23 24  1  0  0  0
 24 25  2  0  0  0
 25 26  1  0  0  0
 25 20  1  0  0  0
 14  1  1  0  0  0
 36 30  1  0  0  0
 14  5  2  0  0  0
 13  7  2  0  0  0
 17 18  1  0  0  0
M  END
> <minimizedAffinity>
-6.08368

> <CNNscore>
0.1222543642

> <CNNaffinity>
6.6890196800

> <CNN_VS>
0.8177618384

> <CNNaffinity_variance>
0.7054308653

$$$$
[H]OC(=O)/C([H])=C([H])/C([H])=C(\[H])c1c([H])nc(C([H])([H])C([H])([H])C([H])([H])C([H])([H])[H])n1C([H])([H])c1c([H])c([H])c([H])c([H])c1Cl


 25 26  0  0  0  0  0  0  0  0999 V2000
    0.3588  -52.5655  -23.2670 C   0  0  0  0  0  0  0  0  0  0  0  0
    0.7672  -51.4200  -22.6361 N   0  0  0  0  0  0  0  0  0  0  0  0
    1.6103  -50.7874  -23.4080 C   0  0  0  0  0  0  0  0  0  0  0  0
    1.7350  -51.5581  -24.5615 C   0  0  0  0  0  0  0  0  0  0  0  0
    0.9661  -52.6582  -24.4773 N   0  0  0  0  0  0  0  0  0  0  0  0
    2.5628  -51.0474  -25.6532 C   0  0  0  0  0  0  0  0  0  0  0  0
    2.8076  -49.7888  -25.8958 C   0  0  0  0  0  0  0  0  0  0  0  0
    3.6461  -49.3308  -27.0055 C   0  0  0  0  0  0  0  0  0  0  0  0
    3.6245  -48.0750  -27.4175 C   0  0  0  0  0  0  0  0  0  0  0  0
    4.4365  -47.5798  -28.5099 C   0  0  0  0  0  0  0  0  0  0  0  0
    4.0188  -47.7775  -29.8074 O   0  0  0  0  0  0  0  0  0  0  0  0
    5.4978  -46.9831  -28.2846 O   0  0  0  0  0  0  0  0  0  0  0  0
    3.1511  -48.1866  -30.0927 H   0  0  0  0  0  0  0  0  0  0  0  0
   -0.6184  -53.4499  -22.6104 C   0  0  0  0  0  0  0  0  0  0  0  0
   -1.3677  -52.7778  -21.4807 C   0  0  0  0  0  0  0  0  0  0  0  0
    0.0421  -53.0990  -19.5073 C   0  0  0  0  0  0  0  0  0  0  0  0
   -1.2239  -53.4897  -20.1860 C   0  0  0  0  0  0  0  0  0  0  0  0
    0.7242  -53.6241  -25.4658 C   0  0  0  0  0  0  0  0  0  0  0  0
    0.2328  -53.2667  -26.8047 C   0  0  0  0  0  0  0  0  0  0  0  0
    1.0016  -53.6522  -27.9312 C   0  0  0  0  0  0  0  0  0  0  0  0
    0.6846  -53.4222  -29.2224 C   0  0  0  0  0  0  0  0  0  0  0  0
   -0.4983  -52.7479  -29.4869 C   0  0  0  0  0  0  0  0  0  0  0  0
   -1.2848  -52.3500  -28.4294 C   0  0  0  0  0  0  0  0  0  0  0  0
   -0.9153  -52.6119  -27.0942 C   0  0  0  0  0  0  0  0  0  0  0  0
   -2.0735  -52.0364  -25.9180 Cl  0  0  0  0  0  0  0  0  0  0  0  0
 16 17  1  0  0  0
 17 15  1  0  0  0
 15 14  1  0  0  0
 14  1  1  0  0  0
  1  2  2  0  0  0
  2  3  1  0  0  0
  3  4  2  0  0  0
  4  6  1  0  0  0
  6  7  2  0  0  0
  7  8  1  0  0  0
  8  9  2  0  0  0
  9 10  1  0  0  0
 10 11  1  0  0  0
 10 12  2  0  0  0
  4  5  1  0  0  0
  5 18  1  0  0  0
 18 19  1  0  0  0
 19 20  2  0  0  0
 20 21  1  0  0  0
 21 22  2  0  0  0
 22 23  1  0  0  0
 23 24  2  0  0  0
 24 25  1  0  0  0
  5  1  1  0  0  0
 24 19  1  0  0  0
 11 13  1  0  0  0
M  END
> <minimizedAffinity>
-6.52692

> <CNNscore>
0.6606667042

> <CNNaffinity>
6.4924516678

> <CNN_VS>
4.2893466949

> <CNNaffinity_variance>
0.0929369405

$$$$
[H]OC(=O)/C([H])=C([H])/C([H])=C(\[H])c1c([H])nc(C([H])([H])C([H])([H])C([H])([H])C([H])([H])[H])n1C([H])([H])c1c([H])c([H])c([H])c([H])c1Cl


 25 26  0  0  0  0  0  0  0  0999 V2000
   -0.0048  -53.5919  -21.1772 C   0  0  0  0  0  0  0  0  0  0  0  0
   -0.7568  -54.7158  -21.3965 N   0  0  0  0  0  0  0  0  0  0  0  0
   -1.0268  -54.8042  -22.6716 C   0  0  0  0  0  0  0  0  0  0  0  0
   -0.4244  -53.7022  -23.2739 C   0  0  0  0  0  0  0  0  0  0  0  0
    0.2054  -52.9496  -22.3542 N   0  0  0  0  0  0  0  0  0  0  0  0
   -0.4911  -53.5820  -24.7296 C   0  0  0  0  0  0  0  0  0  0  0  0
    0.1475  -54.3340  -25.5836 C   0  0  0  0  0  0  0  0  0  0  0  0
    0.0446  -54.1704  -27.0351 C   0  0  0  0  0  0  0  0  0  0  0  0
   -0.5432  -53.1158  -27.5734 C   0  0  0  0  0  0  0  0  0  0  0  0
   -0.6667  -52.9141  -29.0023 C   0  0  0  0  0  0  0  0  0  0  0  0
    0.4678  -52.7220  -29.7593 O   0  0  0  0  0  0  0  0  0  0  0  0
   -1.7804  -52.9135  -29.5436 O   0  0  0  0  0  0  0  0  0  0  0  0
    1.4120  -52.7698  -29.4310 H   0  0  0  0  0  0  0  0  0  0  0  0
    0.4531  -53.2765  -19.8137 C   0  0  0  0  0  0  0  0  0  0  0  0
   -0.2161  -52.0528  -19.2270 C   0  0  0  0  0  0  0  0  0  0  0  0
   -0.2025  -51.0290  -17.0051 C   0  0  0  0  0  0  0  0  0  0  0  0
   -0.5911  -52.2255  -17.8010 C   0  0  0  0  0  0  0  0  0  0  0  0
    1.0202  -51.8269  -22.5638 C   0  0  0  0  0  0  0  0  0  0  0  0
    2.4658  -51.9438  -22.8057 C   0  0  0  0  0  0  0  0  0  0  0  0
    2.9036  -52.3955  -24.0756 C   0  0  0  0  0  0  0  0  0  0  0  0
    4.1873  -52.5388  -24.4658 C   0  0  0  0  0  0  0  0  0  0  0  0
    5.1799  -52.2189  -23.5513 C   0  0  0  0  0  0  0  0  0  0  0  0
    4.8111  -51.7744  -22.3017 C   0  0  0  0  0  0  0  0  0  0  0  0
    3.4563  -51.6389  -21.9358 C   0  0  0  0  0  0  0  0  0  0  0  0
    3.2232  -51.0377  -20.3107 Cl  0  0  0  0  0  0  0  0  0  0  0  0
 16 17  1  0  0  0
 17 15  1  0  0  0
 15 14  1  0  0  0
 14  1  1  0  0  0
  1  2  2  0  0  0
  2  3  1  0  0  0
  3  4  2  0  0  0
  4  6  1  0  0  0
  6  7  2  0  0  0
  7  8  1  0  0  0
  8  9  2  0  0  0
  9 10  1  0  0  0
 10 11  1  0  0  0
 10 12  2  0  0  0
  4  5  1  0  0  0
  5 18  1  0  0  0
 18 19  1  0  0  0
 19 20  2  0  0  0
 20 21  1  0  0  0
 21 22  2  0  0  0
 22 23  1  0  0  0
 23 24  2  0  0  0
 24 25  1  0  0  0
  5  1  1  0  0  0
 24 19  1  0  0  0
 11 13  1  0  0  0
M  END
> <minimizedAffinity>
-7.30595

> <CNNscore>
0.6024201512

> <CNNaffinity>
6.6371331215

> <CNN_VS>
3.9983427525

> <CNNaffinity_variance>
0.0532734878

$$$$
[H]OC(=O)/C([H])=C([H])/C([H])=C(\[H])c1c([H])nc(C([H])([H])C([H])([H])C([H])([H])C([H])([H])[H])n1C([H])([H])c1c([H])c([H])c([H])c([H])c1Cl


 25 26  0  0  0  0  0  0  0  0999 V2000
   -0.7020  -52.9975  -20.1947 C   0  0  0  0  0  0  0  0  0  0  0  0
   -1.1829  -54.2035  -20.6320 N   0  0  0  0  0  0  0  0  0  0  0  0
   -1.1495  -54.2259  -21.9378 C   0  0  0  0  0  0  0  0  0  0  0  0
   -0.6297  -52.9962  -22.3347 C   0  0  0  0  0  0  0  0  0  0  0  0
   -0.3547  -52.2337  -21.2615 N   0  0  0  0  0  0  0  0  0  0  0  0
   -0.3977  -52.7662  -23.7599 C   0  0  0  0  0  0  0  0  0  0  0  0
    0.5644  -52.0443  -24.2657 C   0  0  0  0  0  0  0  0  0  0  0  0
    0.7518  -51.8465  -25.7045 C   0  0  0  0  0  0  0  0  0  0  0  0
    1.2475  -52.7987  -26.4758 C   0  0  0  0  0  0  0  0  0  0  0  0
    1.4491  -52.6458  -27.9020 C   0  0  0  0  0  0  0  0  0  0  0  0
    2.7310  -52.5669  -28.3996 O   0  0  0  0  0  0  0  0  0  0  0  0
    0.4808  -52.5863  -28.6714 O   0  0  0  0  0  0  0  0  0  0  0  0
    3.5761  -52.6699  -27.8735 H   0  0  0  0  0  0  0  0  0  0  0  0
   -0.6133  -52.7294  -18.7496 C   0  0  0  0  0  0  0  0  0  0  0  0
   -1.8220  -53.2111  -17.9774 C   0  0  0  0  0  0  0  0  0  0  0  0
   -3.5310  -52.4808  -16.3864 C   0  0  0  0  0  0  0  0  0  0  0  0
   -2.0926  -52.4028  -16.7619 C   0  0  0  0  0  0  0  0  0  0  0  0
    0.2801  -50.9829  -21.2270 C   0  0  0  0  0  0  0  0  0  0  0  0
    1.6739  -50.8252  -20.7859 C   0  0  0  0  0  0  0  0  0  0  0  0
    2.7063  -51.3243  -21.6187 C   0  0  0  0  0  0  0  0  0  0  0  0
    4.0305  -51.2435  -21.3730 C   0  0  0  0  0  0  0  0  0  0  0  0
    4.4333  -50.6177  -20.2026 C   0  0  0  0  0  0  0  0  0  0  0  0
    3.4717  -50.1135  -19.3561 C   0  0  0  0  0  0  0  0  0  0  0  0
    2.0974  -50.2196  -19.6525 C   0  0  0  0  0  0  0  0  0  0  0  0
    1.0599  -49.4905  -18.4491 Cl  0  0  0  0  0  0  0  0  0  0  0  0
 16 17  1  0  0  0
 17 15  1  0  0  0
 15 14  1  0  0  0
 14  1  1  0  0  0
  1  2  2  0  0  0
  2  3  1  0  0  0
  3  4  2  0  0  0
  4  6  1  0  0  0
  6  7  2  0  0  0
  7  8  1  0  0  0
  8  9  2  0  0  0
  9 10  1  0  0  0
 10 11  1  0  0  0
 10 12  2  0  0  0
  4  5  1  0  0  0
  5 18  1  0  0  0
 18 19  1  0  0  0
 19 20  2  0  0  0
 20 21  1  0  0  0
 21 22  2  0  0  0
 22 23  1  0  0  0
 23 24  2  0  0  0
 24 25  1  0  0  0
  5  1  1  0  0  0
 24 19  1  0  0  0
 11 13  1  0  0  0
M  END
> <minimizedAffinity>
-6.59246

> <CNNscore>
0.5585179329

> <CNNaffinity>
6.4797530174

> <CNN_VS>
3.6190583706

> <CNNaffinity_variance>
0.1902604401

$$$$
[H]OC(=O)/C([H])=C([H])/C([H])=C(\[H])c1c([H])nc(C([H])([H])C([H])([H])C([H])([H])C([H])([H])[H])n1C([H])([H])c1c([H])c([H])c([H])c([H])c1Cl


 25 26  0  0  0  0  0  0  0  0999 V2000
    0.2526  -53.3935  -21.1515 C   0  0  0  0  0  0  0  0  0  0  0  0
   -0.7718  -54.2787  -21.3607 N   0  0  0  0  0  0  0  0  0  0  0  0
   -1.0303  -54.3346  -22.6401 C   0  0  0  0  0  0  0  0  0  0  0  0
   -0.1396  -53.4583  -23.2555 C   0  0  0  0  0  0  0  0  0  0  0  0
    0.6525  -52.8731  -22.3396 N   0  0  0  0  0  0  0  0  0  0  0  0
   -0.1424  -53.3749  -24.7152 C   0  0  0  0  0  0  0  0  0  0  0  0
    0.0763  -54.3679  -25.5330 C   0  0  0  0  0  0  0  0  0  0  0  0
    0.0616  -54.2291  -26.9906 C   0  0  0  0  0  0  0  0  0  0  0  0
   -0.4751  -53.1750  -27.5806 C   0  0  0  0  0  0  0  0  0  0  0  0
   -0.5112  -52.9973  -29.0177 C   0  0  0  0  0  0  0  0  0  0  0  0
    0.6514  -52.6955  -29.6916 O   0  0  0  0  0  0  0  0  0  0  0  0
   -1.5755  -53.1148  -29.6395 O   0  0  0  0  0  0  0  0  0  0  0  0
    1.5683  -52.6440  -29.2939 H   0  0  0  0  0  0  0  0  0  0  0  0
    0.7520  -53.1669  -19.7849 C   0  0  0  0  0  0  0  0  0  0  0  0
   -0.2616  -52.4988  -18.8818 C   0  0  0  0  0  0  0  0  0  0  0  0
    0.1938  -51.1176  -16.9145 C   0  0  0  0  0  0  0  0  0  0  0  0
    0.1802  -51.1651  -18.4023 C   0  0  0  0  0  0  0  0  0  0  0  0
    1.7455  -52.0207  -22.5571 C   0  0  0  0  0  0  0  0  0  0  0  0
    1.9442  -50.7894  -21.7786 C   0  0  0  0  0  0  0  0  0  0  0  0
    0.8901  -49.8433  -21.7306 C   0  0  0  0  0  0  0  0  0  0  0  0
    0.9017  -48.6787  -21.0494 C   0  0  0  0  0  0  0  0  0  0  0  0
    2.0427  -48.3651  -20.3257 C   0  0  0  0  0  0  0  0  0  0  0  0
    3.0980  -49.2490  -20.3367 C   0  0  0  0  0  0  0  0  0  0  0  0
    3.0430  -50.4564  -21.0626 C   0  0  0  0  0  0  0  0  0  0  0  0
    4.4857  -51.4326  -20.9146 Cl  0  0  0  0  0  0  0  0  0  0  0  0
 16 17  1  0  0  0
 17 15  1  0  0  0
 15 14  1  0  0  0
 14  1  1  0  0  0
  1  2  2  0  0  0
  2  3  1  0  0  0
  3  4  2  0  0  0
  4  6  1  0  0  0
  6  7  2  0  0  0
  7  8  1  0  0  0
  8  9  2  0  0  0
  9 10  1  0  0  0
 10 11  1  0  0  0
 10 12  2  0  0  0
  4  5  1  0  0  0
  5 18  1  0  0  0
 18 19  1  0  0  0
 19 20  2  0  0  0
 20 21  1  0  0  0
 21 22  2  0  0  0
 22 23  1  0  0  0
 23 24  2  0  0  0
 24 25  1  0  0  0
  5  1  1  0  0  0
 24 19  1  0  0  0
 11 13  1  0  0  0
M  END
> <minimizedAffinity>
-6.89306

> <CNNscore>
0.5346292257

> <CNNaffinity>
6.5548009872

> <CNN_VS>
3.5043880939

> <CNNaffinity_variance>
0.1360376775

$$$$
[H]OC(=O)/C([H])=C([H])/C([H])=C(\[H])c1c([H])nc(C([H])([H])C([H])([H])C([H])([H])C([H])([H])[H])n1C([H])([H])c1c([H])c([H])c([H])c([H])c1Cl


 25 26  0  0  0  0  0  0  0  0999 V2000
    0.0123  -53.1815  -22.2959 C   0  0  0  0  0  0  0  0  0  0  0  0
   -1.2353  -53.6487  -21.9765 N   0  0  0  0  0  0  0  0  0  0  0  0
   -1.4059  -53.5559  -20.6847 C   0  0  0  0  0  0  0  0  0  0  0  0
   -0.2294  -53.0115  -20.1753 C   0  0  0  0  0  0  0  0  0  0  0  0
    0.6499  -52.7815  -21.1665 N   0  0  0  0  0  0  0  0  0  0  0  0
   -0.1629  -52.7134  -18.7453 C   0  0  0  0  0  0  0  0  0  0  0  0
   -0.2932  -51.5308  -18.2094 C   0  0  0  0  0  0  0  0  0  0  0  0
   -0.2181  -51.2874  -16.7674 C   0  0  0  0  0  0  0  0  0  0  0  0
    0.4365  -50.2507  -16.2732 C   0  0  0  0  0  0  0  0  0  0  0  0
    0.5359  -49.9724  -14.8552 C   0  0  0  0  0  0  0  0  0  0  0  0
    1.5020  -50.6078  -14.1069 O   0  0  0  0  0  0  0  0  0  0  0  0
   -0.2384  -49.1708  -14.3157 O   0  0  0  0  0  0  0  0  0  0  0  0
    2.2133  -51.2186  -14.4569 H   0  0  0  0  0  0  0  0  0  0  0  0
    0.4427  -53.1573  -23.7039 C   0  0  0  0  0  0  0  0  0  0  0  0
   -0.0677  -51.9526  -24.4639 C   0  0  0  0  0  0  0  0  0  0  0  0
   -1.6183  -52.0437  -26.3540 C   0  0  0  0  0  0  0  0  0  0  0  0
   -0.2028  -52.2018  -25.9211 C   0  0  0  0  0  0  0  0  0  0  0  0
    1.8962  -52.1418  -21.0881 C   0  0  0  0  0  0  0  0  0  0  0  0
    2.0216  -50.7067  -20.7936 C   0  0  0  0  0  0  0  0  0  0  0  0
    1.4442  -49.7791  -21.6963 C   0  0  0  0  0  0  0  0  0  0  0  0
    1.4513  -48.4364  -21.5642 C   0  0  0  0  0  0  0  0  0  0  0  0
    2.0771  -47.9004  -20.4485 C   0  0  0  0  0  0  0  0  0  0  0  0
    2.6550  -48.7561  -19.5379 C   0  0  0  0  0  0  0  0  0  0  0  0
    2.6238  -50.1544  -19.7152 C   0  0  0  0  0  0  0  0  0  0  0  0
    3.3992  -51.0445  -18.4256 Cl  0  0  0  0  0  0  0  0  0  0  0  0
 16 17  1  0  0  0
 17 15  1  0  0  0
 15 14  1  0  0  0
 14  1  1  0  0  0
  1  2  2  0  0  0
  2  3  1  0  0  0
  3  4  2  0  0  0
  4  6  1  0  0  0
  6  7  2  0  0  0
  7  8  1  0  0  0
  8  9  2  0  0  0
  9 10  1  0  0  0
 10 11  1  0  0  0
 10 12  2  0  0  0
  4  5  1  0  0  0
  5 18  1  0  0  0
 18 19  1  0  0  0
 19 20  2  0  0  0
 20 21  1  0  0  0
 21 22  2  0  0  0
 22 23  1  0  0  0
 23 24  2  0  0  0
 24 25  1  0  0  0
  5  1  1  0  0  0
 24 19  1  0  0  0
 11 13  1  0  0  0
M  END
> <minimizedAffinity>
-5.50667

> <CNNscore>
0.5052845478

> <CNNaffinity>
6.2427468300

> <CNN_VS>
3.1543633938

> <CNNaffinity_variance>
0.1985859722

$$$$
[H]OC(=O)/C([H])=C([H])/C([H])=C(\[H])c1c([H])nc(C([H])([H])C([H])([H])C([H])([H])C([H])([H])[H])n1C([H])([H])c1c([H])c([H])c([H])c([H])c1Cl


 25 26  0  0  0  0  0  0  0  0999 V2000
   -0.1129  -53.2952  -21.3764 C   0  0  0  0  0  0  0  0  0  0  0  0
   -1.3788  -53.5838  -20.9392 N   0  0  0  0  0  0  0  0  0  0  0  0
   -1.4965  -53.2007  -19.6958 C   0  0  0  0  0  0  0  0  0  0  0  0
   -0.2667  -52.6523  -19.3398 C   0  0  0  0  0  0  0  0  0  0  0  0
    0.5913  -52.7112  -20.3738 N   0  0  0  0  0  0  0  0  0  0  0  0
   -0.1285  -52.0580  -18.0110 C   0  0  0  0  0  0  0  0  0  0  0  0
    0.0343  -50.7878  -17.7605 C   0  0  0  0  0  0  0  0  0  0  0  0
    0.1676  -50.2444  -16.4073 C   0  0  0  0  0  0  0  0  0  0  0  0
   -0.3519  -49.0749  -16.0762 C   0  0  0  0  0  0  0  0  0  0  0  0
   -0.2440  -48.5005  -14.7509 C   0  0  0  0  0  0  0  0  0  0  0  0
   -1.2695  -48.6814  -13.8494 O   0  0  0  0  0  0  0  0  0  0  0  0
    0.7595  -47.8518  -14.4262 O   0  0  0  0  0  0  0  0  0  0  0  0
   -2.0877  -49.2402  -13.9899 H   0  0  0  0  0  0  0  0  0  0  0  0
    0.2681  -53.6096  -22.7635 C   0  0  0  0  0  0  0  0  0  0  0  0
   -0.2439  -52.5998  -23.7672 C   0  0  0  0  0  0  0  0  0  0  0  0
    0.2222  -51.3167  -25.7973 C   0  0  0  0  0  0  0  0  0  0  0  0
    0.6215  -52.4866  -24.9680 C   0  0  0  0  0  0  0  0  0  0  0  0
    1.8823  -52.1687  -20.4605 C   0  0  0  0  0  0  0  0  0  0  0  0
    2.2868  -51.2848  -21.5638 C   0  0  0  0  0  0  0  0  0  0  0  0
    3.2970  -51.7319  -22.4515 C   0  0  0  0  0  0  0  0  0  0  0  0
    3.7670  -51.0565  -23.5208 C   0  0  0  0  0  0  0  0  0  0  0  0
    3.2214  -49.8096  -23.7882 C   0  0  0  0  0  0  0  0  0  0  0  0
    2.2357  -49.3260  -22.9578 C   0  0  0  0  0  0  0  0  0  0  0  0
    1.7734  -50.0662  -21.8504 C   0  0  0  0  0  0  0  0  0  0  0  0
    0.5043  -49.2682  -20.9510 Cl  0  0  0  0  0  0  0  0  0  0  0  0
 16 17  1  0  0  0
 17 15  1  0  0  0
 15 14  1  0  0  0
 14  1  1  0  0  0
  1  2  2  0  0  0
  2  3  1  0  0  0
  3  4  2  0  0  0
  4  6  1  0  0  0
  6  7  2  0  0  0
  7  8  1  0  0  0
  8  9  2  0  0  0
  9 10  1  0  0  0
 10 11  1  0  0  0
 10 12  2  0  0  0
  4  5  1  0  0  0
  5 18  1  0  0  0
 18 19  1  0  0  0
 19 20  2  0  0  0
 20 21  1  0  0  0
 21 22  2  0  0  0
 22 23  1  0  0  0
 23 24  2  0  0  0
 24 25  1  0  0  0
  5  1  1  0  0  0
 24 19  1  0  0  0
 11 13  1  0  0  0
M  END
> <minimizedAffinity>
-5.35346

> <CNNscore>
0.4996328056

> <CNNaffinity>
6.2054738998

> <CNN_VS>
3.1004583836

> <CNNaffinity_variance>
0.3315031230

$$$$
[H]OC(=O)/C([H])=C([H])/C([H])=C(\[H])c1c([H])nc(C([H])([H])C([H])([H])C([H])([H])C([H])([H])[H])n1C([H])([H])c1c([H])c([H])c([H])c([H])c1Cl


 25 26  0  0  0  0  0  0  0  0999 V2000
   -0.2541  -54.2755  -24.9402 C   0  0  0  0  0  0  0  0  0  0  0  0
   -0.9961  -55.3576  -24.5459 N   0  0  0  0  0  0  0  0  0  0  0  0
   -1.3253  -55.2122  -23.2901 C   0  0  0  0  0  0  0  0  0  0  0  0
   -0.7746  -53.9998  -22.8816 C   0  0  0  0  0  0  0  0  0  0  0  0
   -0.1101  -53.4196  -23.8967 N   0  0  0  0  0  0  0  0  0  0  0  0
   -1.0540  -53.5306  -21.5252 C   0  0  0  0  0  0  0  0  0  0  0  0
   -0.1671  -53.3582  -20.5837 C   0  0  0  0  0  0  0  0  0  0  0  0
   -0.5017  -52.8847  -19.2391 C   0  0  0  0  0  0  0  0  0  0  0  0
    0.0955  -51.8326  -18.7066 C   0  0  0  0  0  0  0  0  0  0  0  0
   -0.2046  -51.3306  -17.3815 C   0  0  0  0  0  0  0  0  0  0  0  0
    0.1657  -50.0477  -17.0439 O   0  0  0  0  0  0  0  0  0  0  0  0
   -0.7890  -52.0446  -16.5558 O   0  0  0  0  0  0  0  0  0  0  0  0
    0.5805  -49.3725  -17.6552 H   0  0  0  0  0  0  0  0  0  0  0  0
    0.2230  -54.1869  -26.3304 C   0  0  0  0  0  0  0  0  0  0  0  0
   -0.5405  -53.1786  -27.1608 C   0  0  0  0  0  0  0  0  0  0  0  0
   -0.6803  -52.7177  -29.5594 C   0  0  0  0  0  0  0  0  0  0  0  0
    0.2069  -52.7346  -28.3642 C   0  0  0  0  0  0  0  0  0  0  0  0
    0.4847  -52.1493  -23.9293 C   0  0  0  0  0  0  0  0  0  0  0  0
    1.8700  -51.9229  -23.4914 C   0  0  0  0  0  0  0  0  0  0  0  0
    2.9086  -52.6358  -24.1407 C   0  0  0  0  0  0  0  0  0  0  0  0
    4.2273  -52.5300  -23.8759 C   0  0  0  0  0  0  0  0  0  0  0  0
    4.6173  -51.6471  -22.8798 C   0  0  0  0  0  0  0  0  0  0  0  0
    3.6493  -50.9277  -22.2159 C   0  0  0  0  0  0  0  0  0  0  0  0
    2.2811  -51.0692  -22.5255 C   0  0  0  0  0  0  0  0  0  0  0  0
    1.2345  -50.0425  -21.5731 Cl  0  0  0  0  0  0  0  0  0  0  0  0
 16 17  1  0  0  0
 17 15  1  0  0  0
 15 14  1  0  0  0
 14  1  1  0  0  0
  1  2  2  0  0  0
  2  3  1  0  0  0
  3  4  2  0  0  0
  4  6  1  0  0  0
  6  7  2  0  0  0
  7  8  1  0  0  0
  8  9  2  0  0  0
  9 10  1  0  0  0
 10 11  1  0  0  0
 10 12  2  0  0  0
  4  5  1  0  0  0
  5 18  1  0  0  0
 18 19  1  0  0  0
 19 20  2  0  0  0
 20 21  1  0  0  0
 21 22  2  0  0  0
 22 23  1  0  0  0
 23 24  2  0  0  0
 24 25  1  0  0  0
  5  1  1  0  0  0
 24 19  1  0  0  0
 11 13  1  0  0  0
M  END
> <minimizedAffinity>
-7.29924

> <CNNscore>
0.4682870805

> <CNNaffinity>
6.4451971054

> <CNN_VS>
3.0182025433

> <CNNaffinity_variance>
0.1133326739

$$$$
[H]OC(=O)/C([H])=C([H])/C([H])=C(\[H])c1c([H])nc(C([H])([H])C([H])([H])C([H])([H])C([H])([H])[H])n1C([H])([H])c1c([H])c([H])c([H])c([H])c1Cl


 25 26  0  0  0  0  0  0  0  0999 V2000
   -0.3628  -53.1018  -23.5538 C   0  0  0  0  0  0  0  0  0  0  0  0
   -0.9975  -53.8998  -22.6388 N   0  0  0  0  0  0  0  0  0  0  0  0
   -0.6759  -53.5053  -21.4356 C   0  0  0  0  0  0  0  0  0  0  0  0
    0.1868  -52.4241  -21.5985 C   0  0  0  0  0  0  0  0  0  0  0  0
    0.3850  -52.1734  -22.9049 N   0  0  0  0  0  0  0  0  0  0  0  0
    0.6502  -51.7178  -20.4050 C   0  0  0  0  0  0  0  0  0  0  0  0
    0.1202  -51.8075  -19.2160 C   0  0  0  0  0  0  0  0  0  0  0  0
    0.6252  -51.0765  -18.0519 C   0  0  0  0  0  0  0  0  0  0  0  0
    1.0604  -49.8322  -18.1508 C   0  0  0  0  0  0  0  0  0  0  0  0
    1.5674  -49.0728  -17.0264 C   0  0  0  0  0  0  0  0  0  0  0  0
    0.7064  -48.2769  -16.3039 O   0  0  0  0  0  0  0  0  0  0  0  0
    2.7638  -49.1353  -16.7134 O   0  0  0  0  0  0  0  0  0  0  0  0
   -0.2836  -48.2082  -16.4334 H   0  0  0  0  0  0  0  0  0  0  0  0
   -0.5809  -53.3274  -24.9925 C   0  0  0  0  0  0  0  0  0  0  0  0
    0.5681  -54.0459  -25.6653 C   0  0  0  0  0  0  0  0  0  0  0  0
    0.7873  -53.8160  -28.0910 C   0  0  0  0  0  0  0  0  0  0  0  0
    0.1998  -54.6195  -26.9841 C   0  0  0  0  0  0  0  0  0  0  0  0
    1.0900  -51.1084  -23.4856 C   0  0  0  0  0  0  0  0  0  0  0  0
    2.5594  -51.0722  -23.5251 C   0  0  0  0  0  0  0  0  0  0  0  0
    3.2553  -52.2603  -23.8609 C   0  0  0  0  0  0  0  0  0  0  0  0
    4.5944  -52.3921  -23.9613 C   0  0  0  0  0  0  0  0  0  0  0  0
    5.3739  -51.2713  -23.7161 C   0  0  0  0  0  0  0  0  0  0  0  0
    4.7498  -50.0896  -23.3857 C   0  0  0  0  0  0  0  0  0  0  0  0
    3.3461  -49.9963  -23.2924 C   0  0  0  0  0  0  0  0  0  0  0  0
    2.7731  -48.3964  -22.8822 Cl  0  0  0  0  0  0  0  0  0  0  0  0
 16 17  1  0  0  0
 17 15  1  0  0  0
 15 14  1  0  0  0
 14  1  1  0  0  0
  1  2  2  0  0  0
  2  3  1  0  0  0
  3  4  2  0  0  0
  4  6  1  0  0  0
  6  7  2  0  0  0
  7  8  1  0  0  0
  8  9  2  0  0  0
  9 10  1  0  0  0
 10 11  1  0  0  0
 10 12  2  0  0  0
  4  5  1  0  0  0
  5 18  1  0  0  0
 18 19  1  0  0  0
 19 20  2  0  0  0
 20 21  1  0  0  0
 21 22  2  0  0  0
 22 23  1  0  0  0
 23 24  2  0  0  0
 24 25  1  0  0  0
  5  1  1  0  0  0
 24 19  1  0  0  0
 11 13  1  0  0  0
M  END
> <minimizedAffinity>
-5.99076

> <CNNscore>
0.3891121447

> <CNNaffinity>
6.3099031448

> <CNN_VS>
2.4552600384

> <CNNaffinity_variance>
0.3479779661

$$$$
[H]OC(=O)/C([H])=C([H])/C([H])=C(\[H])c1c([H])nc(C([H])([H])C([H])([H])C([H])([H])C([H])([H])[H])n1C([H])([H])c1c([H])c([H])c([H])c([H])c1Cl


 25 26  0  0  0  0  0  0  0  0999 V2000
    0.2502  -53.7881  -25.8543 C   0  0  0  0  0  0  0  0  0  0  0  0
   -0.6203  -54.8098  -25.5800 N   0  0  0  0  0  0  0  0  0  0  0  0
   -0.9166  -54.7856  -24.3079 C   0  0  0  0  0  0  0  0  0  0  0  0
   -0.2119  -53.7139  -23.7649 C   0  0  0  0  0  0  0  0  0  0  0  0
    0.5120  -53.0971  -24.7158 N   0  0  0  0  0  0  0  0  0  0  0  0
   -0.4165  -53.3902  -22.3538 C   0  0  0  0  0  0  0  0  0  0  0  0
   -1.1638  -54.0620  -21.5213 C   0  0  0  0  0  0  0  0  0  0  0  0
   -1.3342  -53.6933  -20.1144 C   0  0  0  0  0  0  0  0  0  0  0  0
   -0.4920  -52.8764  -19.5055 C   0  0  0  0  0  0  0  0  0  0  0  0
   -0.6229  -52.4856  -18.1170 C   0  0  0  0  0  0  0  0  0  0  0  0
   -1.1618  -53.3731  -17.2120 O   0  0  0  0  0  0  0  0  0  0  0  0
   -0.2549  -51.3644  -17.7417 O   0  0  0  0  0  0  0  0  0  0  0  0
   -1.4271  -54.3197  -17.3994 H   0  0  0  0  0  0  0  0  0  0  0  0
    0.7219  -53.5836  -27.2341 C   0  0  0  0  0  0  0  0  0  0  0  0
   -0.0113  -52.4756  -27.9580 C   0  0  0  0  0  0  0  0  0  0  0  0
   -2.4349  -52.5143  -28.2893 C   0  0  0  0  0  0  0  0  0  0  0  0
   -1.1190  -52.9750  -28.8110 C   0  0  0  0  0  0  0  0  0  0  0  0
    1.2639  -51.9178  -24.6040 C   0  0  0  0  0  0  0  0  0  0  0  0
    2.4918  -51.8466  -23.7983 C   0  0  0  0  0  0  0  0  0  0  0  0
    3.6505  -52.5104  -24.2731 C   0  0  0  0  0  0  0  0  0  0  0  0
    4.8570  -52.5269  -23.6693 C   0  0  0  0  0  0  0  0  0  0  0  0
    4.9907  -51.8360  -22.4741 C   0  0  0  0  0  0  0  0  0  0  0  0
    3.8964  -51.1724  -21.9665 C   0  0  0  0  0  0  0  0  0  0  0  0
    2.6532  -51.1810  -22.6314 C   0  0  0  0  0  0  0  0  0  0  0  0
    1.4137  -50.2549  -21.8175 Cl  0  0  0  0  0  0  0  0  0  0  0  0
 16 17  1  0  0  0
 17 15  1  0  0  0
 15 14  1  0  0  0
 14  1  1  0  0  0
  1  2  2  0  0  0
  2  3  1  0  0  0
  3  4  2  0  0  0
  4  6  1  0  0  0
  6  7  2  0  0  0
  7  8  1  0  0  0
  8  9  2  0  0  0
  9 10  1  0  0  0
 10 11  1  0  0  0
 10 12  2  0  0  0
  4  5  1  0  0  0
  5 18  1  0  0  0
 18 19  1  0  0  0
 19 20  2  0  0  0
 20 21  1  0  0  0
 21 22  2  0  0  0
 22 23  1  0  0  0
 23 24  2  0  0  0
 24 25  1  0  0  0
  5  1  1  0  0  0
 24 19  1  0  0  0
 11 13  1  0  0  0
M  END
> <minimizedAffinity>
-7.59862

> <CNNscore>
0.3755405247

> <CNNaffinity>
6.4863753319

> <CNN_VS>
2.4358968735

> <CNNaffinity_variance>
0.1406716406

$$$$
[H]C([H])=C([H])C(=O)N1C([H])([H])C([H])([H])[C@@]([H])(Oc2nc(N([H])c3c([H])c([H])c(N4C([H])([H])C([H])([H])C([H])(N5C([H])([H])C([H])([H])N(C([H])([H])[H])C([H])([H])C5([H])[H])C([H])([H])C4([H])[H])c([H])c3[H])c(C(=O)N([H])[H])nc2C([H])([H])C([H])([H])[H])C1([H])[H]


 44 48  0  0  0  0  0  0  0  0999 V2000
    0.2605  -52.2961  -25.0649 C   0  0  0  0  0  0  0  0  0  0  0  0
   -0.5038  -53.2197  -24.5095 N   0  0  0  0  0  0  0  0  0  0  0  0
   -0.4237  -53.6036  -23.1948 C   0  0  0  0  0  0  0  0  0  0  0  0
    0.5380  -52.9463  -22.4454 C   0  0  0  0  0  0  0  0  0  0  0  0
    1.3100  -52.0002  -23.0454 N   0  0  0  0  0  0  0  0  0  0  0  0
    1.2411  -51.6289  -24.2940 C   0  0  0  0  0  0  0  0  0  0  0  0
   -1.3133  -54.6210  -22.7049 C   0  0  0  0  0  0  0  0  0  0  0  0
   -1.5830  -55.7207  -23.6113 N   0  0  0  0  0  0  0  0  0  0  0  0
   -1.9070  -54.7397  -21.6276 O   0  0  0  0  0  0  0  0  0  0  0  0
   -2.5066  -55.8360  -24.0249 H   0  0  0  0  0  0  0  0  0  0  0  0
   -0.8092  -56.3624  -23.8059 H   0  0  0  0  0  0  0  0  0  0  0  0
   -1.2035  -52.4860  -26.9826 C   0  0  0  0  0  0  0  0  0  0  0  0
    0.1435  -51.9375  -26.5054 C   0  0  0  0  0  0  0  0  0  0  0  0
    0.7070  -53.2751  -21.0893 N   0  0  0  0  0  0  0  0  0  0  0  0
    1.0362  -54.2421  -20.8470 H   0  0  0  0  0  0  0  0  0  0  0  0
    0.4976  -52.4438  -19.9610 C   0  0  0  0  0  0  0  0  0  0  0  0
    1.1020  -51.2277  -19.7600 C   0  0  0  0  0  0  0  0  0  0  0  0
    0.8301  -50.4721  -18.6034 C   0  0  0  0  0  0  0  0  0  0  0  0
   -0.0294  -50.8845  -17.6287 C   0  0  0  0  0  0  0  0  0  0  0  0
   -0.6335  -52.1114  -17.8402 C   0  0  0  0  0  0  0  0  0  0  0  0
   -0.3859  -52.8608  -18.9508 C   0  0  0  0  0  0  0  0  0  0  0  0
   -0.2771  -50.1397  -16.4828 N   0  0  0  0  0  0  0  0  0  0  0  0
    0.6167  -49.0943  -16.0634 C   0  0  0  0  0  0  0  0  0  0  0  0
    0.4653  -48.8697  -14.5505 C   0  0  0  0  0  0  0  0  0  0  0  0
   -0.9128  -48.4944  -14.1879 C   0  0  0  0  0  0  0  0  0  0  0  0
   -1.9117  -48.9734  -15.2315 C   0  0  0  0  0  0  0  0  0  0  0  0
   -1.4408  -50.3702  -15.6688 C   0  0  0  0  0  0  0  0  0  0  0  0
   -1.1055  -47.1435  -13.8132 N   0  0  0  0  0  0  0  0  0  0  0  0
    0.1072  -46.3646  -13.6649 C   0  0  0  0  0  0  0  0  0  0  0  0
    0.2454  -45.2613  -14.6666 C   0  0  0  0  0  0  0  0  0  0  0  0
   -0.8318  -44.2923  -14.4332 N   0  0  0  0  0  0  0  0  0  0  0  0
   -0.8782  -43.3739  -15.5435 C   0  0  0  0  0  0  0  0  0  0  0  0
   -2.1077  -44.9678  -14.2669 C   0  0  0  0  0  0  0  0  0  0  0  0
   -1.9620  -46.4334  -14.7108 C   0  0  0  0  0  0  0  0  0  0  0  0
    1.9929  -50.6956  -24.9358 O   0  0  0  0  0  0  0  0  0  0  0  0
    3.2462  -50.8033  -25.5163 C   0  0  0  0  0  0  0  0  0  0  0  0
    3.9330  -52.0589  -25.0088 C   0  0  0  0  0  0  0  0  0  0  0  0
    4.9568  -51.5659  -23.9680 C   0  0  0  0  0  0  0  0  0  0  0  0
    4.3869  -50.2593  -23.6036 N   0  0  0  0  0  0  0  0  0  0  0  0
    4.0766  -49.6719  -24.8926 C   0  0  0  0  0  0  0  0  0  0  0  0
    4.1853  -49.7486  -22.2939 C   0  0  0  0  0  0  0  0  0  0  0  0
    3.6869  -48.5964  -22.1123 O   0  0  0  0  0  0  0  0  0  0  0  0
    4.5356  -50.5190  -21.1173 C   0  0  0  0  0  0  0  0  0  0  0  0
    4.6066  -49.9717  -19.9316 C   0  0  0  0  0  0  0  0  0  0  0  0
 12 13  1  0  0  0
 13  1  1  0  0  0
  1  2  2  0  0  0
  2  3  1  0  0  0
  3  7  1  0  0  0
  7  8  1  0  0  0
  7  9  2  0  0  0
  3  4  2  0  0  0
  4 14  1  0  0  0
 14 16  1  0  0  0
 16 17  2  0  0  0
 17 18  1  0  0  0
 18 19  2  0  0  0
 19 20  1  0  0  0
 20 21  2  0  0  0
 19 22  1  0  0  0
 22 23  1  0  0  0
 23 24  1  0  0  0
 24 25  1  0  0  0
 25 26  1  0  0  0
 26 27  1  0  0  0
 25 28  1  0  0  0
 28 29  1  0  0  0
 29 30  1  0  0  0
 30 31  1  0  0  0
 31 32  1  0  0  0
 31 33  1  0  0  0
 33 34  1  0  0  0
  4  5  1  0  0  0
  5  6  2  0  0  0
  6 35  1  0  0  0
 35 36  1  0  0  0
 36 37  1  0  0  0
 37 38  1  0  0  0
 38 39  1  0  0  0
 39 40  1  0  0  0
 39 41  1  0  0  0
 41 42  2  0  0  0
 41 43  1  0  0  0
 43 44  2  0  0  0
  6  1  1  0  0  0
 40 36  1  0  0  0
 21 16  1  0  0  0
 27 22  1  0  0  0
 34 28  1  0  0  0
  8 10  1  0  0  0
  8 11  1  0  0  0
 14 15  1  0  0  0
M  END
> <minimizedAffinity>
-8.10714

> <CNNscore>
0.9450964928

> <CNNaffinity>
7.9516549110

> <CNN_VS>
7.5150814056

> <CNNaffinity_variance>
0.0210420378

$$$$
[H]C([H])=C([H])C(=O)N1C([H])([H])C([H])([H])[C@@]([H])(Oc2nc(N([H])c3c([H])c([H])c(N4C([H])([H])C([H])([H])C([H])(N5C([H])([H])C([H])([H])N(C([H])([H])[H])C([H])([H])C5([H])[H])C([H])([H])C4([H])[H])c([H])c3[H])c(C(=O)N([H])[H])nc2C([H])([H])C([H])([H])[H])C1([H])[H]


 44 48  0  0  0  0  0  0  0  0999 V2000
    0.3208  -52.7763  -25.9841 C   0  0  0  0  0  0  0  0  0  0  0  0
   -0.3438  -53.7522  -25.3911 N   0  0  0  0  0  0  0  0  0  0  0  0
   -0.4562  -53.8985  -24.0316 C   0  0  0  0  0  0  0  0  0  0  0  0
    0.1877  -52.9306  -23.2785 C   0  0  0  0  0  0  0  0  0  0  0  0
    0.8643  -51.9382  -23.9177 N   0  0  0  0  0  0  0  0  0  0  0  0
    0.9765  -51.7913  -25.2090 C   0  0  0  0  0  0  0  0  0  0  0  0
   -1.2095  -55.0033  -23.5041 C   0  0  0  0  0  0  0  0  0  0  0  0
   -1.2132  -56.2117  -24.3063 N   0  0  0  0  0  0  0  0  0  0  0  0
   -1.8718  -55.1218  -22.4675 O   0  0  0  0  0  0  0  0  0  0  0  0
   -2.0642  -56.5206  -24.7729 H   0  0  0  0  0  0  0  0  0  0  0  0
   -0.3310  -56.7270  -24.3735 H   0  0  0  0  0  0  0  0  0  0  0  0
   -1.0035  -52.6002  -28.0020 C   0  0  0  0  0  0  0  0  0  0  0  0
    0.4280  -52.6823  -27.4663 C   0  0  0  0  0  0  0  0  0  0  0  0
    0.1416  -52.9972  -21.8752 N   0  0  0  0  0  0  0  0  0  0  0  0
   -0.3518  -53.8096  -21.4296 H   0  0  0  0  0  0  0  0  0  0  0  0
    0.7024  -52.0888  -20.9433 C   0  0  0  0  0  0  0  0  0  0  0  0
    1.6344  -52.4183  -19.9908 C   0  0  0  0  0  0  0  0  0  0  0  0
    2.1338  -51.4434  -19.1061 C   0  0  0  0  0  0  0  0  0  0  0  0
    1.7373  -50.1393  -19.1331 C   0  0  0  0  0  0  0  0  0  0  0  0
    0.7976  -49.8170  -20.0965 C   0  0  0  0  0  0  0  0  0  0  0  0
    0.2992  -50.7428  -20.9630 C   0  0  0  0  0  0  0  0  0  0  0  0
    2.2228  -49.1890  -18.2441 N   0  0  0  0  0  0  0  0  0  0  0  0
    2.1234  -49.3765  -16.8220 C   0  0  0  0  0  0  0  0  0  0  0  0
    2.1578  -48.0081  -16.1230 C   0  0  0  0  0  0  0  0  0  0  0  0
    3.3984  -47.2714  -16.4224 C   0  0  0  0  0  0  0  0  0  0  0  0
    4.0222  -47.7418  -17.7284 C   0  0  0  0  0  0  0  0  0  0  0  0
    2.8557  -47.9805  -18.7012 C   0  0  0  0  0  0  0  0  0  0  0  0
    4.3314  -47.1788  -15.3625 N   0  0  0  0  0  0  0  0  0  0  0  0
    5.5592  -46.4782  -15.6797 C   0  0  0  0  0  0  0  0  0  0  0  0
    5.7402  -45.1993  -14.9238 C   0  0  0  0  0  0  0  0  0  0  0  0
    5.8726  -45.5237  -13.4987 N   0  0  0  0  0  0  0  0  0  0  0  0
    5.7772  -44.3048  -12.7347 C   0  0  0  0  0  0  0  0  0  0  0  0
    4.8520  -46.4730  -13.0876 C   0  0  0  0  0  0  0  0  0  0  0  0
    3.7837  -46.5712  -14.1901 C   0  0  0  0  0  0  0  0  0  0  0  0
    1.6446  -50.8224  -25.8894 O   0  0  0  0  0  0  0  0  0  0  0  0
    2.9336  -50.8145  -26.3972 C   0  0  0  0  0  0  0  0  0  0  0  0
    3.7170  -51.9742  -25.8080 C   0  0  0  0  0  0  0  0  0  0  0  0
    4.6225  -51.3439  -24.7323 C   0  0  0  0  0  0  0  0  0  0  0  0
    3.8999  -50.0944  -24.4470 N   0  0  0  0  0  0  0  0  0  0  0  0
    3.6047  -49.5830  -25.7714 C   0  0  0  0  0  0  0  0  0  0  0  0
    3.5714  -49.5681  -23.1696 C   0  0  0  0  0  0  0  0  0  0  0  0
    2.9463  -48.4701  -23.0572 O   0  0  0  0  0  0  0  0  0  0  0  0
    3.9318  -50.2607  -21.9484 C   0  0  0  0  0  0  0  0  0  0  0  0
    4.8950  -49.8343  -21.1734 C   0  0  0  0  0  0  0  0  0  0  0  0
 12 13  1  0  0  0
 13  1  1  0  0  0
  1  2  2  0  0  0
  2  3  1  0  0  0
  3  7  1  0  0  0
  7  8  1  0  0  0
  7  9  2  0  0  0
  3  4  2  0  0  0
  4 14  1  0  0  0
 14 16  1  0  0  0
 16 17  2  0  0  0
 17 18  1  0  0  0
 18 19  2  0  0  0
 19 20  1  0  0  0
 20 21  2  0  0  0
 19 22  1  0  0  0
 22 23  1  0  0  0
 23 24  1  0  0  0
 24 25  1  0  0  0
 25 26  1  0  0  0
 26 27  1  0  0  0
 25 28  1  0  0  0
 28 29  1  0  0  0
 29 30  1  0  0  0
 30 31  1  0  0  0
 31 32  1  0  0  0
 31 33  1  0  0  0
 33 34  1  0  0  0
  4  5  1  0  0  0
  5  6  2  0  0  0
  6 35  1  0  0  0
 35 36  1  0  0  0
 36 37  1  0  0  0
 37 38  1  0  0  0
 38 39  1  0  0  0
 39 40  1  0  0  0
 39 41  1  0  0  0
 41 42  2  0  0  0
 41 43  1  0  0  0
 43 44  2  0  0  0
  6  1  1  0  0  0
 40 36  1  0  0  0
 21 16  1  0  0  0
 27 22  1  0  0  0
 34 28  1  0  0  0
  8 10  1  0  0  0
  8 11  1  0  0  0
 14 15  1  0  0  0
M  END
> <minimizedAffinity>
-7.47336

> <CNNscore>
0.8868846893

> <CNNaffinity>
7.7620239258

> <CNN_VS>
6.8840203285

> <CNNaffinity_variance>
0.0106132971

$$$$
[H]C([H])=C([H])C(=O)N1C([H])([H])C([H])([H])[C@@]([H])(Oc2nc(N([H])c3c([H])c([H])c(N4C([H])([H])C([H])([H])C([H])(N5C([H])([H])C([H])([H])N(C([H])([H])[H])C([H])([H])C5([H])[H])C([H])([H])C4([H])[H])c([H])c3[H])c(C(=O)N([H])[H])nc2C([H])([H])C([H])([H])[H])C1([H])[H]


 44 48  0  0  0  0  0  0  0  0999 V2000
    0.5701  -52.0396  -24.5485 C   0  0  0  0  0  0  0  0  0  0  0  0
   -0.2505  -52.9998  -24.1609 N   0  0  0  0  0  0  0  0  0  0  0  0
   -0.3356  -53.4747  -22.8766 C   0  0  0  0  0  0  0  0  0  0  0  0
    0.5165  -52.8714  -21.9664 C   0  0  0  0  0  0  0  0  0  0  0  0
    1.3503  -51.8856  -22.3955 N   0  0  0  0  0  0  0  0  0  0  0  0
    1.4381  -51.4279  -23.6139 C   0  0  0  0  0  0  0  0  0  0  0  0
   -1.2713  -54.5239  -22.5764 C   0  0  0  0  0  0  0  0  0  0  0  0
   -1.5451  -55.4589  -23.6508 N   0  0  0  0  0  0  0  0  0  0  0  0
   -1.9029  -54.7877  -21.5475 O   0  0  0  0  0  0  0  0  0  0  0  0
   -2.4579  -55.4758  -24.1023 H   0  0  0  0  0  0  0  0  0  0  0  0
   -0.7855  -56.0895  -23.9224 H   0  0  0  0  0  0  0  0  0  0  0  0
   -0.6110  -52.1361  -26.6586 C   0  0  0  0  0  0  0  0  0  0  0  0
    0.6349  -51.5811  -25.9637 C   0  0  0  0  0  0  0  0  0  0  0  0
    0.5138  -53.2942  -20.6259 N   0  0  0  0  0  0  0  0  0  0  0  0
    0.7713  -54.2900  -20.4156 H   0  0  0  0  0  0  0  0  0  0  0  0
    0.2111  -52.5271  -19.4734 C   0  0  0  0  0  0  0  0  0  0  0  0
   -0.6977  -52.8860  -18.5092 C   0  0  0  0  0  0  0  0  0  0  0  0
   -0.9315  -52.0550  -17.3968 C   0  0  0  0  0  0  0  0  0  0  0  0
   -0.2887  -50.8681  -17.2049 C   0  0  0  0  0  0  0  0  0  0  0  0
    0.6253  -50.5151  -18.1821 C   0  0  0  0  0  0  0  0  0  0  0  0
    0.8681  -51.3021  -19.2675 C   0  0  0  0  0  0  0  0  0  0  0  0
   -0.5396  -50.0471  -16.1131 N   0  0  0  0  0  0  0  0  0  0  0  0
    0.4209  -49.0702  -15.6764 C   0  0  0  0  0  0  0  0  0  0  0  0
    0.1905  -48.7570  -14.1894 C   0  0  0  0  0  0  0  0  0  0  0  0
   -1.1660  -48.2368  -13.9432 C   0  0  0  0  0  0  0  0  0  0  0  0
   -2.1342  -48.6719  -15.0340 C   0  0  0  0  0  0  0  0  0  0  0  0
   -1.7722  -50.1267  -15.3754 C   0  0  0  0  0  0  0  0  0  0  0  0
   -1.2518  -46.8568  -13.6422 N   0  0  0  0  0  0  0  0  0  0  0  0
    0.0189  -46.1756  -13.4988 C   0  0  0  0  0  0  0  0  0  0  0  0
    0.2746  -45.1417  -14.5501 C   0  0  0  0  0  0  0  0  0  0  0  0
   -0.7213  -44.0749  -14.3961 N   0  0  0  0  0  0  0  0  0  0  0  0
   -0.6626  -43.2152  -15.5519 C   0  0  0  0  0  0  0  0  0  0  0  0
   -2.0538  -44.6313  -14.2325 C   0  0  0  0  0  0  0  0  0  0  0  0
   -2.0229  -46.1252  -14.5982 C   0  0  0  0  0  0  0  0  0  0  0  0
    2.2573  -50.4520  -24.0878 O   0  0  0  0  0  0  0  0  0  0  0  0
    3.4053  -49.9045  -23.5384 C   0  0  0  0  0  0  0  0  0  0  0  0
    3.1489  -48.4534  -23.1721 C   0  0  0  0  0  0  0  0  0  0  0  0
    3.8326  -47.6306  -24.2813 C   0  0  0  0  0  0  0  0  0  0  0  0
    3.8956  -48.6173  -25.3710 N   0  0  0  0  0  0  0  0  0  0  0  0
    4.3997  -49.8023  -24.7043 C   0  0  0  0  0  0  0  0  0  0  0  0
    3.5203  -48.4207  -26.7264 C   0  0  0  0  0  0  0  0  0  0  0  0
    3.6291  -49.3564  -27.5759 O   0  0  0  0  0  0  0  0  0  0  0  0
    2.9977  -47.1516  -27.1923 C   0  0  0  0  0  0  0  0  0  0  0  0
    3.2554  -46.6993  -28.3919 C   0  0  0  0  0  0  0  0  0  0  0  0
 12 13  1  0  0  0
 13  1  1  0  0  0
  1  2  2  0  0  0
  2  3  1  0  0  0
  3  7  1  0  0  0
  7  8  1  0  0  0
  7  9  2  0  0  0
  3  4  2  0  0  0
  4 14  1  0  0  0
 14 16  1  0  0  0
 16 17  2  0  0  0
 17 18  1  0  0  0
 18 19  2  0  0  0
 19 20  1  0  0  0
 20 21  2  0  0  0
 19 22  1  0  0  0
 22 23  1  0  0  0
 23 24  1  0  0  0
 24 25  1  0  0  0
 25 26  1  0  0  0
 26 27  1  0  0  0
 25 28  1  0  0  0
 28 29  1  0  0  0
 29 30  1  0  0  0
 30 31  1  0  0  0
 31 32  1  0  0  0
 31 33  1  0  0  0
 33 34  1  0  0  0
  4  5  1  0  0  0
  5  6  2  0  0  0
  6 35  1  0  0  0
 35 36  1  0  0  0
 36 37  1  0  0  0
 37 38  1  0  0  0
 38 39  1  0  0  0
 39 40  1  0  0  0
 39 41  1  0  0  0
 41 42  2  0  0  0
 41 43  1  0  0  0
 43 44  2  0  0  0
  6  1  1  0  0  0
 40 36  1  0  0  0
 21 16  1  0  0  0
 27 22  1  0  0  0
 34 28  1  0  0  0
  8 10  1  0  0  0
  8 11  1  0  0  0
 14 15  1  0  0  0
M  END
> <minimizedAffinity>
-8.29826

> <CNNscore>
0.8792199492

> <CNNaffinity>
7.6537804604

> <CNN_VS>
6.7293562889

> <CNNaffinity_variance>
0.0086536407

$$$$
[H]C([H])=C([H])C(=O)N1C([H])([H])C([H])([H])[C@@]([H])(Oc2nc(N([H])c3c([H])c([H])c(N4C([H])([H])C([H])([H])C([H])(N5C([H])([H])C([H])([H])N(C([H])([H])[H])C([H])([H])C5([H])[H])C([H])([H])C4([H])[H])c([H])c3[H])c(C(=O)N([H])[H])nc2C([H])([H])C([H])([H])[H])C1([H])[H]


 44 48  0  0  0  0  0  0  0  0999 V2000
    0.8880  -51.9264  -24.3206 C   0  0  0  0  0  0  0  0  0  0  0  0
    0.1076  -52.9818  -24.1705 N   0  0  0  0  0  0  0  0  0  0  0  0
   -0.2537  -53.5120  -22.9578 C   0  0  0  0  0  0  0  0  0  0  0  0
    0.2606  -52.8576  -21.8506 C   0  0  0  0  0  0  0  0  0  0  0  0
    1.0616  -51.7738  -22.0371 N   0  0  0  0  0  0  0  0  0  0  0  0
    1.4104  -51.2630  -23.1856 C   0  0  0  0  0  0  0  0  0  0  0  0
   -1.1120  -54.6647  -22.9230 C   0  0  0  0  0  0  0  0  0  0  0  0
   -1.2547  -55.3896  -24.1710 N   0  0  0  0  0  0  0  0  0  0  0  0
   -1.7683  -55.1691  -22.0053 O   0  0  0  0  0  0  0  0  0  0  0  0
   -2.1401  -55.3844  -24.6744 H   0  0  0  0  0  0  0  0  0  0  0  0
   -0.4329  -55.8984  -24.5090 H   0  0  0  0  0  0  0  0  0  0  0  0
    2.4065  -52.2978  -26.1680 C   0  0  0  0  0  0  0  0  0  0  0  0
    1.2657  -51.4097  -25.6651 C   0  0  0  0  0  0  0  0  0  0  0  0
   -0.0421  -53.3295  -20.5616 N   0  0  0  0  0  0  0  0  0  0  0  0
   -0.2047  -54.3585  -20.4317 H   0  0  0  0  0  0  0  0  0  0  0  0
   -0.1497  -52.5788  -19.3645 C   0  0  0  0  0  0  0  0  0  0  0  0
    0.5220  -51.4091  -19.1094 C   0  0  0  0  0  0  0  0  0  0  0  0
    0.3500  -50.7334  -17.8862 C   0  0  0  0  0  0  0  0  0  0  0  0
   -0.4735  -51.1816  -16.8964 C   0  0  0  0  0  0  0  0  0  0  0  0
   -1.1461  -52.3613  -17.1628 C   0  0  0  0  0  0  0  0  0  0  0  0
   -0.9956  -53.0333  -18.3385 C   0  0  0  0  0  0  0  0  0  0  0  0
   -0.6225  -50.5168  -15.6860 N   0  0  0  0  0  0  0  0  0  0  0  0
    0.3996  -49.6380  -15.1855 C   0  0  0  0  0  0  0  0  0  0  0  0
    0.2784  -49.5323  -13.6570 C   0  0  0  0  0  0  0  0  0  0  0  0
   -1.0393  -49.0156  -13.2467 C   0  0  0  0  0  0  0  0  0  0  0  0
   -2.0918  -49.2655  -14.3173 C   0  0  0  0  0  0  0  0  0  0  0  0
   -1.8065  -50.6666  -14.8825 C   0  0  0  0  0  0  0  0  0  0  0  0
   -1.0546  -47.6903  -12.7511 N   0  0  0  0  0  0  0  0  0  0  0  0
    0.2309  -47.0222  -12.7339 C   0  0  0  0  0  0  0  0  0  0  0  0
    0.3188  -45.8524  -13.6632 C   0  0  0  0  0  0  0  0  0  0  0  0
   -0.6225  -44.8265  -13.1994 N   0  0  0  0  0  0  0  0  0  0  0  0
   -0.7488  -43.8170  -14.2209 C   0  0  0  0  0  0  0  0  0  0  0  0
   -1.9153  -45.4134  -12.8894 C   0  0  0  0  0  0  0  0  0  0  0  0
   -1.9666  -46.8433  -13.4543 C   0  0  0  0  0  0  0  0  0  0  0  0
    2.2101  -50.1888  -23.4193 O   0  0  0  0  0  0  0  0  0  0  0  0
    2.3205  -48.9910  -22.7319 C   0  0  0  0  0  0  0  0  0  0  0  0
    3.1937  -48.0324  -23.5220 C   0  0  0  0  0  0  0  0  0  0  0  0
    4.5582  -48.0465  -22.8062 C   0  0  0  0  0  0  0  0  0  0  0  0
    4.4973  -49.3362  -22.1007 N   0  0  0  0  0  0  0  0  0  0  0  0
    3.1781  -49.3127  -21.4991 C   0  0  0  0  0  0  0  0  0  0  0  0
    5.5005  -50.3407  -22.0653 C   0  0  0  0  0  0  0  0  0  0  0  0
    5.3270  -51.4134  -21.4109 O   0  0  0  0  0  0  0  0  0  0  0  0
    6.7555  -50.1845  -22.7733 C   0  0  0  0  0  0  0  0  0  0  0  0
    7.0172  -50.8521  -23.8669 C   0  0  0  0  0  0  0  0  0  0  0  0
 12 13  1  0  0  0
 13  1  1  0  0  0
  1  2  2  0  0  0
  2  3  1  0  0  0
  3  7  1  0  0  0
  7  8  1  0  0  0
  7  9  2  0  0  0
  3  4  2  0  0  0
  4 14  1  0  0  0
 14 16  1  0  0  0
 16 17  2  0  0  0
 17 18  1  0  0  0
 18 19  2  0  0  0
 19 20  1  0  0  0
 20 21  2  0  0  0
 19 22  1  0  0  0
 22 23  1  0  0  0
 23 24  1  0  0  0
 24 25  1  0  0  0
 25 26  1  0  0  0
 26 27  1  0  0  0
 25 28  1  0  0  0
 28 29  1  0  0  0
 29 30  1  0  0  0
 30 31  1  0  0  0
 31 32  1  0  0  0
 31 33  1  0  0  0
 33 34  1  0  0  0
  4  5  1  0  0  0
  5  6  2  0  0  0
  6 35  1  0  0  0
 35 36  1  0  0  0
 36 37  1  0  0  0
 37 38  1  0  0  0
 38 39  1  0  0  0
 39 40  1  0  0  0
 39 41  1  0  0  0
 41 42  2  0  0  0
 41 43  1  0  0  0
 43 44  2  0  0  0
  6  1  1  0  0  0
 40 36  1  0  0  0
 21 16  1  0  0  0
 27 22  1  0  0  0
 34 28  1  0  0  0
  8 10  1  0  0  0
  8 11  1  0  0  0
 14 15  1  0  0  0
M  END
> <minimizedAffinity>
-7.54833

> <CNNscore>
0.7944879532

> <CNNaffinity>
7.5284528732

> <CNN_VS>
5.9812650681

> <CNNaffinity_variance>
0.0378748663

$$$$
[H]C([H])=C([H])C(=O)N1C([H])([H])C([H])([H])[C@@]([H])(Oc2nc(N([H])c3c([H])c([H])c(N4C([H])([H])C([H])([H])C([H])(N5C([H])([H])C([H])([H])N(C([H])([H])[H])C([H])([H])C5([H])[H])C([H])([H])C4([H])[H])c([H])c3[H])c(C(=O)N([H])[H])nc2C([H])([H])C([H])([H])[H])C1([H])[H]


 44 48  0  0  0  0  0  0  0  0999 V2000
    0.0090  -51.9071  -24.4079 C   0  0  0  0  0  0  0  0  0  0  0  0
   -0.6360  -52.9042  -23.8288 N   0  0  0  0  0  0  0  0  0  0  0  0
   -0.4700  -53.2774  -22.5190 C   0  0  0  0  0  0  0  0  0  0  0  0
    0.4454  -52.5246  -21.8021 C   0  0  0  0  0  0  0  0  0  0  0  0
    1.0942  -51.5043  -22.4261 N   0  0  0  0  0  0  0  0  0  0  0  0
    0.9429  -51.1425  -23.6702 C   0  0  0  0  0  0  0  0  0  0  0  0
   -1.2323  -54.3807  -22.0012 C   0  0  0  0  0  0  0  0  0  0  0  0
   -1.5935  -55.4092  -22.9578 N   0  0  0  0  0  0  0  0  0  0  0  0
   -1.6485  -54.6257  -20.8637 O   0  0  0  0  0  0  0  0  0  0  0  0
   -2.5641  -55.5375  -23.2383 H   0  0  0  0  0  0  0  0  0  0  0  0
   -0.8335  -55.9885  -23.3258 H   0  0  0  0  0  0  0  0  0  0  0  0
   -1.6068  -52.0315  -26.2052 C   0  0  0  0  0  0  0  0  0  0  0  0
   -0.1956  -51.5629  -25.8421 C   0  0  0  0  0  0  0  0  0  0  0  0
    0.6956  -52.8338  -20.4540 N   0  0  0  0  0  0  0  0  0  0  0  0
    1.1391  -53.7580  -20.2275 H   0  0  0  0  0  0  0  0  0  0  0  0
    0.4322  -52.0325  -19.3153 C   0  0  0  0  0  0  0  0  0  0  0  0
    0.9992  -50.8063  -19.0713 C   0  0  0  0  0  0  0  0  0  0  0  0
    0.6745  -50.0829  -17.9077 C   0  0  0  0  0  0  0  0  0  0  0  0
   -0.2020  -50.5375  -16.9677 C   0  0  0  0  0  0  0  0  0  0  0  0
   -0.7681  -51.7743  -17.2225 C   0  0  0  0  0  0  0  0  0  0  0  0
   -0.4692  -52.4931  -18.3407 C   0  0  0  0  0  0  0  0  0  0  0  0
   -0.5019  -49.8241  -15.8143 N   0  0  0  0  0  0  0  0  0  0  0  0
    0.4400  -48.9018  -15.2401 C   0  0  0  0  0  0  0  0  0  0  0  0
    0.1402  -48.7322  -13.7423 C   0  0  0  0  0  0  0  0  0  0  0  0
   -1.2248  -48.2274  -13.5109 C   0  0  0  0  0  0  0  0  0  0  0  0
   -2.1413  -48.5470  -14.6832 C   0  0  0  0  0  0  0  0  0  0  0  0
   -1.7685  -49.9648  -15.1468 C   0  0  0  0  0  0  0  0  0  0  0  0
   -1.3200  -46.8824  -13.0817 N   0  0  0  0  0  0  0  0  0  0  0  0
   -0.0615  -46.2541  -12.7346 C   0  0  0  0  0  0  0  0  0  0  0  0
    0.3246  -45.1281  -13.6416 C   0  0  0  0  0  0  0  0  0  0  0  0
   -0.6644  -44.0549  -13.4871 N   0  0  0  0  0  0  0  0  0  0  0  0
   -0.4657  -43.0863  -14.5363 C   0  0  0  0  0  0  0  0  0  0  0  0
   -2.0158  -44.5880  -13.5245 C   0  0  0  0  0  0  0  0  0  0  0  0
   -1.9700  -46.0383  -14.0351 C   0  0  0  0  0  0  0  0  0  0  0  0
    1.5715  -50.1371  -24.3352 O   0  0  0  0  0  0  0  0  0  0  0  0
    2.9110  -49.7847  -24.3622 C   0  0  0  0  0  0  0  0  0  0  0  0
    3.2412  -49.1520  -25.7025 C   0  0  0  0  0  0  0  0  0  0  0  0
    3.9807  -50.2476  -26.4944 C   0  0  0  0  0  0  0  0  0  0  0  0
    3.5178  -51.4612  -25.8033 N   0  0  0  0  0  0  0  0  0  0  0  0
    3.6761  -51.1157  -24.4039 C   0  0  0  0  0  0  0  0  0  0  0  0
    3.0213  -52.6499  -26.4009 C   0  0  0  0  0  0  0  0  0  0  0  0
    2.6572  -53.6351  -25.6897 O   0  0  0  0  0  0  0  0  0  0  0  0
    2.9078  -52.7853  -27.8395 C   0  0  0  0  0  0  0  0  0  0  0  0
    1.8827  -53.3757  -28.3970 C   0  0  0  0  0  0  0  0  0  0  0  0
 12 13  1  0  0  0
 13  1  1  0  0  0
  1  2  2  0  0  0
  2  3  1  0  0  0
  3  7  1  0  0  0
  7  8  1  0  0  0
  7  9  2  0  0  0
  3  4  2  0  0  0
  4 14  1  0  0  0
 14 16  1  0  0  0
 16 17  2  0  0  0
 17 18  1  0  0  0
 18 19  2  0  0  0
 19 20  1  0  0  0
 20 21  2  0  0  0
 19 22  1  0  0  0
 22 23  1  0  0  0
 23 24  1  0  0  0
 24 25  1  0  0  0
 25 26  1  0  0  0
 26 27  1  0  0  0
 25 28  1  0  0  0
 28 29  1  0  0  0
 29 30  1  0  0  0
 30 31  1  0  0  0
 31 32  1  0  0  0
 31 33  1  0  0  0
 33 34  1  0  0  0
  4  5  1  0  0  0
  5  6  2  0  0  0
  6 35  1  0  0  0
 35 36  1  0  0  0
 36 37  1  0  0  0
 37 38  1  0  0  0
 38 39  1  0  0  0
 39 40  1  0  0  0
 39 41  1  0  0  0
 41 42  2  0  0  0
 41 43  1  0  0  0
 43 44  2  0  0  0
  6  1  1  0  0  0
 40 36  1  0  0  0
 21 16  1  0  0  0
 27 22  1  0  0  0
 34 28  1  0  0  0
  8 10  1  0  0  0
  8 11  1  0  0  0
 14 15  1  0  0  0
M  END
> <minimizedAffinity>
-7.88624

> <CNNscore>
0.7565057278

> <CNNaffinity>
7.4650511742

> <CNN_VS>
5.6473541260

> <CNNaffinity_variance>
0.0963328257

$$$$
[H]C([H])=C([H])C(=O)N1C([H])([H])C([H])([H])[C@@]([H])(Oc2nc(N([H])c3c([H])c([H])c(N4C([H])([H])C([H])([H])C([H])(N5C([H])([H])C([H])([H])N(C([H])([H])[H])C([H])([H])C5([H])[H])C([H])([H])C4([H])[H])c([H])c3[H])c(C(=O)N([H])[H])nc2C([H])([H])C([H])([H])[H])C1([H])[H]


 44 48  0  0  0  0  0  0  0  0999 V2000
    0.0211  -51.8680  -24.3900 C   0  0  0  0  0  0  0  0  0  0  0  0
   -0.6302  -52.8692  -23.8252 N   0  0  0  0  0  0  0  0  0  0  0  0
   -0.4580  -53.2697  -22.5243 C   0  0  0  0  0  0  0  0  0  0  0  0
    0.4711  -52.5408  -21.8002 C   0  0  0  0  0  0  0  0  0  0  0  0
    1.1260  -51.5156  -22.4094 N   0  0  0  0  0  0  0  0  0  0  0  0
    0.9689  -51.1280  -23.6450 C   0  0  0  0  0  0  0  0  0  0  0  0
   -1.2282  -54.3746  -22.0219 C   0  0  0  0  0  0  0  0  0  0  0  0
   -1.5819  -55.3957  -22.9892 N   0  0  0  0  0  0  0  0  0  0  0  0
   -1.6566  -54.6264  -20.8904 O   0  0  0  0  0  0  0  0  0  0  0  0
   -2.5499  -55.5198  -23.2805 H   0  0  0  0  0  0  0  0  0  0  0  0
   -0.8196  -55.9743  -23.3533 H   0  0  0  0  0  0  0  0  0  0  0  0
   -1.5559  -52.0592  -26.2157 C   0  0  0  0  0  0  0  0  0  0  0  0
   -0.1909  -51.4937  -25.8156 C   0  0  0  0  0  0  0  0  0  0  0  0
    0.7284  -52.8790  -20.4604 N   0  0  0  0  0  0  0  0  0  0  0  0
    0.6071  -53.8792  -20.1655 H   0  0  0  0  0  0  0  0  0  0  0  0
    1.1580  -52.0236  -19.4155 C   0  0  0  0  0  0  0  0  0  0  0  0
    2.4599  -51.6485  -19.1943 C   0  0  0  0  0  0  0  0  0  0  0  0
    2.7898  -50.7924  -18.1262 C   0  0  0  0  0  0  0  0  0  0  0  0
    1.8643  -50.2899  -17.2605 C   0  0  0  0  0  0  0  0  0  0  0  0
    0.5550  -50.6737  -17.4914 C   0  0  0  0  0  0  0  0  0  0  0  0
    0.2113  -51.5014  -18.5178 C   0  0  0  0  0  0  0  0  0  0  0  0
    2.2026  -49.4604  -16.1990 N   0  0  0  0  0  0  0  0  0  0  0  0
    3.3485  -49.7322  -15.3741 C   0  0  0  0  0  0  0  0  0  0  0  0
    3.1533  -49.0774  -13.9974 C   0  0  0  0  0  0  0  0  0  0  0  0
    2.9772  -47.6183  -14.1051 C   0  0  0  0  0  0  0  0  0  0  0  0
    2.4646  -47.2209  -15.4820 C   0  0  0  0  0  0  0  0  0  0  0  0
    1.4319  -48.2878  -15.8811 C   0  0  0  0  0  0  0  0  0  0  0  0
    4.0704  -46.8318  -13.6708 N   0  0  0  0  0  0  0  0  0  0  0  0
    4.9652  -47.4810  -12.7344 C   0  0  0  0  0  0  0  0  0  0  0  0
    6.3420  -47.7135  -13.2729 C   0  0  0  0  0  0  0  0  0  0  0  0
    6.9660  -46.4077  -13.5156 N   0  0  0  0  0  0  0  0  0  0  0  0
    8.1735  -46.6051  -14.2782 C   0  0  0  0  0  0  0  0  0  0  0  0
    6.0522  -45.5199  -14.2147 C   0  0  0  0  0  0  0  0  0  0  0  0
    4.8668  -46.3402  -14.7515 C   0  0  0  0  0  0  0  0  0  0  0  0
    1.6032  -50.1166  -24.2955 O   0  0  0  0  0  0  0  0  0  0  0  0
    2.9462  -49.7779  -24.3261 C   0  0  0  0  0  0  0  0  0  0  0  0
    3.2784  -49.1457  -25.6661 C   0  0  0  0  0  0  0  0  0  0  0  0
    4.0040  -50.2471  -26.4629 C   0  0  0  0  0  0  0  0  0  0  0  0
    3.5309  -51.4574  -25.7729 N   0  0  0  0  0  0  0  0  0  0  0  0
    3.6974  -51.1166  -24.3732 C   0  0  0  0  0  0  0  0  0  0  0  0
    3.0202  -52.6396  -26.3715 C   0  0  0  0  0  0  0  0  0  0  0  0
    2.6483  -53.6225  -25.6611 O   0  0  0  0  0  0  0  0  0  0  0  0
    2.9005  -52.7706  -27.8099 C   0  0  0  0  0  0  0  0  0  0  0  0
    1.8891  -53.3876  -28.3636 C   0  0  0  0  0  0  0  0  0  0  0  0
 12 13  1  0  0  0
 13  1  1  0  0  0
  1  2  2  0  0  0
  2  3  1  0  0  0
  3  7  1  0  0  0
  7  8  1  0  0  0
  7  9  2  0  0  0
  3  4  2  0  0  0
  4 14  1  0  0  0
 14 16  1  0  0  0
 16 17  2  0  0  0
 17 18  1  0  0  0
 18 19  2  0  0  0
 19 20  1  0  0  0
 20 21  2  0  0  0
 19 22  1  0  0  0
 22 23  1  0  0  0
 23 24  1  0  0  0
 24 25  1  0  0  0
 25 26  1  0  0  0
 26 27  1  0  0  0
 25 28  1  0  0  0
 28 29  1  0  0  0
 29 30  1  0  0  0
 30 31  1  0  0  0
 31 32  1  0  0  0
 31 33  1  0  0  0
 33 34  1  0  0  0
  4  5  1  0  0  0
  5  6  2  0  0  0
  6 35  1  0  0  0
 35 36  1  0  0  0
 36 37  1  0  0  0
 37 38  1  0  0  0
 38 39  1  0  0  0
 39 40  1  0  0  0
 39 41  1  0  0  0
 41 42  2  0  0  0
 41 43  1  0  0  0
 43 44  2  0  0  0
  6  1  1  0  0  0
 40 36  1  0  0  0
 21 16  1  0  0  0
 27 22  1  0  0  0
 34 28  1  0  0  0
  8 10  1  0  0  0
  8 11  1  0  0  0
 14 15  1  0  0  0
M  END
> <minimizedAffinity>
-7.52836

> <CNNscore>
0.7406435013

> <CNNaffinity>
7.3320856094

> <CNN_VS>
5.4304614067

> <CNNaffinity_variance>
0.0695905238

$$$$
[H]C([H])=C([H])C(=O)N1C([H])([H])C([H])([H])[C@@]([H])(Oc2nc(N([H])c3c([H])c([H])c(N4C([H])([H])C([H])([H])C([H])(N5C([H])([H])C([H])([H])N(C([H])([H])[H])C([H])([H])C5([H])[H])C([H])([H])C4([H])[H])c([H])c3[H])c(C(=O)N([H])[H])nc2C([H])([H])C([H])([H])[H])C1([H])[H]


 44 48  0  0  0  0  0  0  0  0999 V2000
    0.8031  -52.0765  -24.7479 C   0  0  0  0  0  0  0  0  0  0  0  0
   -0.0168  -53.0284  -24.3388 N   0  0  0  0  0  0  0  0  0  0  0  0
   -0.1642  -53.4145  -23.0306 C   0  0  0  0  0  0  0  0  0  0  0  0
    0.6212  -52.7270  -22.1200 C   0  0  0  0  0  0  0  0  0  0  0  0
    1.4560  -51.7522  -22.5716 N   0  0  0  0  0  0  0  0  0  0  0  0
    1.6028  -51.3786  -23.8127 C   0  0  0  0  0  0  0  0  0  0  0  0
   -1.0920  -54.4642  -22.7085 C   0  0  0  0  0  0  0  0  0  0  0  0
   -1.4541  -55.3500  -23.7984 N   0  0  0  0  0  0  0  0  0  0  0  0
   -1.6540  -54.7635  -21.6493 O   0  0  0  0  0  0  0  0  0  0  0  0
   -2.3963  -55.3371  -24.1848 H   0  0  0  0  0  0  0  0  0  0  0  0
   -0.7246  -55.9775  -24.1485 H   0  0  0  0  0  0  0  0  0  0  0  0
   -0.2531  -52.3517  -26.9078 C   0  0  0  0  0  0  0  0  0  0  0  0
    0.9382  -51.7165  -26.1864 C   0  0  0  0  0  0  0  0  0  0  0  0
    0.5516  -53.0551  -20.7550 N   0  0  0  0  0  0  0  0  0  0  0  0
    0.1779  -53.9987  -20.4864 H   0  0  0  0  0  0  0  0  0  0  0  0
    0.9435  -52.2602  -19.6492 C   0  0  0  0  0  0  0  0  0  0  0  0
    2.2143  -51.7876  -19.4346 C   0  0  0  0  0  0  0  0  0  0  0  0
    2.5081  -51.0034  -18.3026 C   0  0  0  0  0  0  0  0  0  0  0  0
    1.5759  -50.6678  -17.3661 C   0  0  0  0  0  0  0  0  0  0  0  0
    0.2980  -51.1489  -17.5911 C   0  0  0  0  0  0  0  0  0  0  0  0
   -0.0102  -51.9099  -18.6784 C   0  0  0  0  0  0  0  0  0  0  0  0
    1.8799  -49.9085  -16.2435 N   0  0  0  0  0  0  0  0  0  0  0  0
    3.2175  -49.8531  -15.7188 C   0  0  0  0  0  0  0  0  0  0  0  0
    3.1661  -49.4841  -14.2277 C   0  0  0  0  0  0  0  0  0  0  0  0
    2.5123  -48.1819  -14.0082 C   0  0  0  0  0  0  0  0  0  0  0  0
    1.5794  -47.8280  -15.1575 C   0  0  0  0  0  0  0  0  0  0  0  0
    0.8774  -49.1354  -15.5601 C   0  0  0  0  0  0  0  0  0  0  0  0
    3.3679  -47.1170  -13.6389 N   0  0  0  0  0  0  0  0  0  0  0  0
    4.5996  -47.5121  -12.9862 C   0  0  0  0  0  0  0  0  0  0  0  0
    5.8313  -47.2049  -13.7788 C   0  0  0  0  0  0  0  0  0  0  0  0
    5.9451  -45.7470  -13.9028 N   0  0  0  0  0  0  0  0  0  0  0  0
    6.9614  -45.4424  -14.8789 C   0  0  0  0  0  0  0  0  0  0  0  0
    4.6712  -45.1595  -14.2820 C   0  0  0  0  0  0  0  0  0  0  0  0
    3.7191  -46.2771  -14.7411 C   0  0  0  0  0  0  0  0  0  0  0  0
    2.4259  -50.4171  -24.3091 O   0  0  0  0  0  0  0  0  0  0  0  0
    3.5136  -49.7856  -23.7284 C   0  0  0  0  0  0  0  0  0  0  0  0
    3.1117  -48.3899  -23.2854 C   0  0  0  0  0  0  0  0  0  0  0  0
    3.7044  -47.4434  -24.3472 C   0  0  0  0  0  0  0  0  0  0  0  0
    3.8643  -48.3586  -25.4881 N   0  0  0  0  0  0  0  0  0  0  0  0
    4.4888  -49.5201  -24.8848 C   0  0  0  0  0  0  0  0  0  0  0  0
    3.4666  -48.1291  -26.8319 C   0  0  0  0  0  0  0  0  0  0  0  0
    3.6677  -49.0019  -27.7302 O   0  0  0  0  0  0  0  0  0  0  0  0
    2.8158  -46.8968  -27.2303 C   0  0  0  0  0  0  0  0  0  0  0  0
    3.0894  -46.3094  -28.3662 C   0  0  0  0  0  0  0  0  0  0  0  0
 12 13  1  0  0  0
 13  1  1  0  0  0
  1  2  2  0  0  0
  2  3  1  0  0  0
  3  7  1  0  0  0
  7  8  1  0  0  0
  7  9  2  0  0  0
  3  4  2  0  0  0
  4 14  1  0  0  0
 14 16  1  0  0  0
 16 17  2  0  0  0
 17 18  1  0  0  0
 18 19  2  0  0  0
 19 20  1  0  0  0
 20 21  2  0  0  0
 19 22  1  0  0  0
 22 23  1  0  0  0
 23 24  1  0  0  0
 24 25  1  0  0  0
 25 26  1  0  0  0
 26 27  1  0  0  0
 25 28  1  0  0  0
 28 29  1  0  0  0
 29 30  1  0  0  0
 30 31  1  0  0  0
 31 32  1  0  0  0
 31 33  1  0  0  0
 33 34  1  0  0  0
  4  5  1  0  0  0
  5  6  2  0  0  0
  6 35  1  0  0  0
 35 36  1  0  0  0
 36 37  1  0  0  0
 37 38  1  0  0  0
 38 39  1  0  0  0
 39 40  1  0  0  0
 39 41  1  0  0  0
 41 42  2  0  0  0
 41 43  1  0  0  0
 43 44  2  0  0  0
  6  1  1  0  0  0
 40 36  1  0  0  0
 21 16  1  0  0  0
 27 22  1  0  0  0
 34 28  1  0  0  0
  8 10  1  0  0  0
  8 11  1  0  0  0
 14 15  1  0  0  0
M  END
> <minimizedAffinity>
-7.50194

> <CNNscore>
0.7352120876

> <CNNaffinity>
7.4534187317

> <CNN_VS>
5.4798436165

> <CNNaffinity_variance>
0.0349902436

$$$$
[H]C([H])=C([H])C(=O)N1C([H])([H])C([H])([H])[C@@]([H])(Oc2nc(N([H])c3c([H])c([H])c(N4C([H])([H])C([H])([H])C([H])(N5C([H])([H])C([H])([H])N(C([H])([H])[H])C([H])([H])C5([H])[H])C([H])([H])C4([H])[H])c([H])c3[H])c(C(=O)N([H])[H])nc2C([H])([H])C([H])([H])[H])C1([H])[H]


 44 48  0  0  0  0  0  0  0  0999 V2000
    0.9889  -52.5930  -24.3904 C   0  0  0  0  0  0  0  0  0  0  0  0
    0.0687  -53.4009  -23.8944 N   0  0  0  0  0  0  0  0  0  0  0  0
   -0.1716  -53.5713  -22.5544 C   0  0  0  0  0  0  0  0  0  0  0  0
    0.6313  -52.8216  -21.7106 C   0  0  0  0  0  0  0  0  0  0  0  0
    1.5703  -51.9987  -22.2512 N   0  0  0  0  0  0  0  0  0  0  0  0
    1.8059  -51.8305  -23.5231 C   0  0  0  0  0  0  0  0  0  0  0  0
   -1.2041  -54.4798  -22.1361 C   0  0  0  0  0  0  0  0  0  0  0  0
   -1.6837  -55.4056  -23.1442 N   0  0  0  0  0  0  0  0  0  0  0  0
   -1.7752  -54.6258  -21.0499 O   0  0  0  0  0  0  0  0  0  0  0  0
   -2.6260  -55.3185  -23.5207 H   0  0  0  0  0  0  0  0  0  0  0  0
   -1.0358  -56.1380  -23.4478 H   0  0  0  0  0  0  0  0  0  0  0  0
   -0.1482  -52.2126  -26.4925 C   0  0  0  0  0  0  0  0  0  0  0  0
    1.2204  -52.4670  -25.8560 C   0  0  0  0  0  0  0  0  0  0  0  0
    0.4712  -52.9327  -20.3186 N   0  0  0  0  0  0  0  0  0  0  0  0
    0.0388  -53.8085  -19.9338 H   0  0  0  0  0  0  0  0  0  0  0  0
    0.8391  -51.9929  -19.3238 C   0  0  0  0  0  0  0  0  0  0  0  0
   -0.0387  -51.3640  -18.4763 C   0  0  0  0  0  0  0  0  0  0  0  0
    0.4232  -50.4419  -17.5176 C   0  0  0  0  0  0  0  0  0  0  0  0
    1.7391  -50.1183  -17.3682 C   0  0  0  0  0  0  0  0  0  0  0  0
    2.6161  -50.7573  -18.2270 C   0  0  0  0  0  0  0  0  0  0  0  0
    2.1930  -51.6525  -19.1629 C   0  0  0  0  0  0  0  0  0  0  0  0
    2.1825  -49.1938  -16.4313 N   0  0  0  0  0  0  0  0  0  0  0  0
    3.4517  -48.5336  -16.5757 C   0  0  0  0  0  0  0  0  0  0  0  0
    3.9476  -48.0733  -15.1956 C   0  0  0  0  0  0  0  0  0  0  0  0
    2.9977  -47.1478  -14.5533 C   0  0  0  0  0  0  0  0  0  0  0  0
    1.5885  -47.3316  -15.0980 C   0  0  0  0  0  0  0  0  0  0  0  0
    1.3919  -48.8455  -15.2808 C   0  0  0  0  0  0  0  0  0  0  0  0
    3.3997  -45.7921  -14.4980 N   0  0  0  0  0  0  0  0  0  0  0  0
    4.1702  -45.4234  -13.3278 C   0  0  0  0  0  0  0  0  0  0  0  0
    5.5810  -45.0266  -13.6309 C   0  0  0  0  0  0  0  0  0  0  0  0
    5.5493  -43.8012  -14.4378 N   0  0  0  0  0  0  0  0  0  0  0  0
    6.8700  -43.5566  -14.9618 C   0  0  0  0  0  0  0  0  0  0  0  0
    4.5790  -43.9154  -15.5136 C   0  0  0  0  0  0  0  0  0  0  0  0
    4.1473  -45.3858  -15.6469 C   0  0  0  0  0  0  0  0  0  0  0  0
    2.7340  -51.0266  -24.1066 O   0  0  0  0  0  0  0  0  0  0  0  0
    4.1165  -51.1171  -24.1134 C   0  0  0  0  0  0  0  0  0  0  0  0
    4.5994  -51.5919  -22.7543 C   0  0  0  0  0  0  0  0  0  0  0  0
    5.1382  -50.3293  -22.0541 C   0  0  0  0  0  0  0  0  0  0  0  0
    4.4324  -49.2702  -22.7924 N   0  0  0  0  0  0  0  0  0  0  0  0
    4.6140  -49.6655  -24.1758 C   0  0  0  0  0  0  0  0  0  0  0  0
    3.7351  -48.1622  -22.2422 C   0  0  0  0  0  0  0  0  0  0  0  0
    3.1694  -47.3096  -22.9918 O   0  0  0  0  0  0  0  0  0  0  0  0
    3.6387  -47.9621  -20.8099 C   0  0  0  0  0  0  0  0  0  0  0  0
    2.4863  -47.8024  -20.2127 C   0  0  0  0  0  0  0  0  0  0  0  0
 12 13  1  0  0  0
 13  1  1  0  0  0
  1  2  2  0  0  0
  2  3  1  0  0  0
  3  7  1  0  0  0
  7  8  1  0  0  0
  7  9  2  0  0  0
  3  4  2  0  0  0
  4 14  1  0  0  0
 14 16  1  0  0  0
 16 17  2  0  0  0
 17 18  1  0  0  0
 18 19  2  0  0  0
 19 20  1  0  0  0
 20 21  2  0  0  0
 19 22  1  0  0  0
 22 23  1  0  0  0
 23 24  1  0  0  0
 24 25  1  0  0  0
 25 26  1  0  0  0
 26 27  1  0  0  0
 25 28  1  0  0  0
 28 29  1  0  0  0
 29 30  1  0  0  0
 30 31  1  0  0  0
 31 32  1  0  0  0
 31 33  1  0  0  0
 33 34  1  0  0  0
  4  5  1  0  0  0
  5  6  2  0  0  0
  6 35  1  0  0  0
 35 36  1  0  0  0
 36 37  1  0  0  0
 37 38  1  0  0  0
 38 39  1  0  0  0
 39 40  1  0  0  0
 39 41  1  0  0  0
 41 42  2  0  0  0
 41 43  1  0  0  0
 43 44  2  0  0  0
  6  1  1  0  0  0
 40 36  1  0  0  0
 21 16  1  0  0  0
 27 22  1  0  0  0
 34 28  1  0  0  0
  8 10  1  0  0  0
  8 11  1  0  0  0
 14 15  1  0  0  0
M  END
> <minimizedAffinity>
-6.75402

> <CNNscore>
0.7274411917

> <CNNaffinity>
7.4954862595

> <CNN_VS>
5.4525256157

> <CNNaffinity_variance>
0.0292562637

$$$$
[H]C([H])=C([H])C(=O)N1C([H])([H])C([H])([H])[C@@]([H])(Oc2nc(N([H])c3c([H])c([H])c(N4C([H])([H])C([H])([H])C([H])(N5C([H])([H])C([H])([H])N(C([H])([H])[H])C([H])([H])C5([H])[H])C([H])([H])C4([H])[H])c([H])c3[H])c(C(=O)N([H])[H])nc2C([H])([H])C([H])([H])[H])C1([H])[H]


 44 48  0  0  0  0  0  0  0  0999 V2000
    0.0457  -53.2666  -24.7254 C   0  0  0  0  0  0  0  0  0  0  0  0
   -0.4949  -53.8253  -23.6572 N   0  0  0  0  0  0  0  0  0  0  0  0
   -0.4524  -53.2870  -22.3960 C   0  0  0  0  0  0  0  0  0  0  0  0
    0.2124  -52.0762  -22.2929 C   0  0  0  0  0  0  0  0  0  0  0  0
    0.7589  -51.5258  -23.4107 N   0  0  0  0  0  0  0  0  0  0  0  0
    0.7236  -52.0301  -24.6132 C   0  0  0  0  0  0  0  0  0  0  0  0
   -1.0808  -53.9900  -21.3109 C   0  0  0  0  0  0  0  0  0  0  0  0
   -0.2083  -54.3965  -20.2260 N   0  0  0  0  0  0  0  0  0  0  0  0
   -2.2562  -54.3216  -21.1220 O   0  0  0  0  0  0  0  0  0  0  0  0
   -0.0040  -55.3815  -20.0673 H   0  0  0  0  0  0  0  0  0  0  0  0
    0.1805  -53.6527  -19.6394 H   0  0  0  0  0  0  0  0  0  0  0  0
   -0.0427  -55.4214  -25.8234 C   0  0  0  0  0  0  0  0  0  0  0  0
   -0.0121  -53.9105  -26.0668 C   0  0  0  0  0  0  0  0  0  0  0  0
    0.3208  -51.4472  -21.0406 N   0  0  0  0  0  0  0  0  0  0  0  0
   -0.3677  -51.7046  -20.2910 H   0  0  0  0  0  0  0  0  0  0  0  0
    1.2770  -50.4846  -20.6316 C   0  0  0  0  0  0  0  0  0  0  0  0
    1.0749  -49.1268  -20.6380 C   0  0  0  0  0  0  0  0  0  0  0  0
    2.0886  -48.2471  -20.2123 C   0  0  0  0  0  0  0  0  0  0  0  0
    3.3085  -48.6712  -19.7757 C   0  0  0  0  0  0  0  0  0  0  0  0
    3.5027  -50.0413  -19.7730 C   0  0  0  0  0  0  0  0  0  0  0  0
    2.5374  -50.9122  -20.1808 C   0  0  0  0  0  0  0  0  0  0  0  0
    4.3082  -47.7941  -19.3748 N   0  0  0  0  0  0  0  0  0  0  0  0
    4.0482  -46.7510  -18.4199 C   0  0  0  0  0  0  0  0  0  0  0  0
    5.0703  -45.6189  -18.6096 C   0  0  0  0  0  0  0  0  0  0  0  0
    6.4536  -46.0949  -18.4328 C   0  0  0  0  0  0  0  0  0  0  0  0
    6.5626  -47.5917  -18.6858 C   0  0  0  0  0  0  0  0  0  0  0  0
    5.6495  -47.8930  -19.8856 C   0  0  0  0  0  0  0  0  0  0  0  0
    7.0995  -45.6839  -17.2428 N   0  0  0  0  0  0  0  0  0  0  0  0
    6.2165  -45.3603  -16.1407 C   0  0  0  0  0  0  0  0  0  0  0  0
    6.3395  -46.2877  -14.9726 C   0  0  0  0  0  0  0  0  0  0  0  0
    7.6854  -46.1372  -14.4073 N   0  0  0  0  0  0  0  0  0  0  0  0
    7.9136  -47.2024  -13.4629 C   0  0  0  0  0  0  0  0  0  0  0  0
    8.6912  -46.1515  -15.4561 C   0  0  0  0  0  0  0  0  0  0  0  0
    8.0466  -46.6418  -16.7639 C   0  0  0  0  0  0  0  0  0  0  0  0
    1.2587  -51.5203  -25.7542 O   0  0  0  0  0  0  0  0  0  0  0  0
    2.4186  -51.8654  -26.4287 C   0  0  0  0  0  0  0  0  0  0  0  0
    3.3779  -52.5480  -25.4698 C   0  0  0  0  0  0  0  0  0  0  0  0
    4.4344  -51.4798  -25.1276 C   0  0  0  0  0  0  0  0  0  0  0  0
    3.7013  -50.2428  -25.4399 N   0  0  0  0  0  0  0  0  0  0  0  0
    3.1172  -50.5324  -26.7352 C   0  0  0  0  0  0  0  0  0  0  0  0
    3.5975  -49.0815  -24.6293 C   0  0  0  0  0  0  0  0  0  0  0  0
    2.9357  -48.0715  -25.0178 O   0  0  0  0  0  0  0  0  0  0  0  0
    4.2370  -49.0032  -23.3310 C   0  0  0  0  0  0  0  0  0  0  0  0
    5.4192  -48.4657  -23.1768 C   0  0  0  0  0  0  0  0  0  0  0  0
 12 13  1  0  0  0
 13  1  1  0  0  0
  1  2  2  0  0  0
  2  3  1  0  0  0
  3  7  1  0  0  0
  7  8  1  0  0  0
  7  9  2  0  0  0
  3  4  2  0  0  0
  4 14  1  0  0  0
 14 16  1  0  0  0
 16 17  2  0  0  0
 17 18  1  0  0  0
 18 19  2  0  0  0
 19 20  1  0  0  0
 20 21  2  0  0  0
 19 22  1  0  0  0
 22 23  1  0  0  0
 23 24  1  0  0  0
 24 25  1  0  0  0
 25 26  1  0  0  0
 26 27  1  0  0  0
 25 28  1  0  0  0
 28 29  1  0  0  0
 29 30  1  0  0  0
 30 31  1  0  0  0
 31 32  1  0  0  0
 31 33  1  0  0  0
 33 34  1  0  0  0
  4  5  1  0  0  0
  5  6  2  0  0  0
  6 35  1  0  0  0
 35 36  1  0  0  0
 36 37  1  0  0  0
 37 38  1  0  0  0
 38 39  1  0  0  0
 39 40  1  0  0  0
 39 41  1  0  0  0
 41 42  2  0  0  0
 41 43  1  0  0  0
 43 44  2  0  0  0
  6  1  1  0  0  0
 40 36  1  0  0  0
 21 16  1  0  0  0
 27 22  1  0  0  0
 34 28  1  0  0  0
  8 10  1  0  0  0
  8 11  1  0  0  0
 14 15  1  0  0  0
M  END
> <minimizedAffinity>
-6.74768

> <CNNscore>
0.6332731843

> <CNNaffinity>
7.2848968506

> <CNN_VS>
4.6133298874

> <CNNaffinity_variance>
0.0524060056

$$$$
[H]c1nc(N([H])c2c([H])c([H])c(F)c(Cl)c2[H])c2c3c(c(OC4([H])C([H])([H])C([H])([H])OC([H])([H])C4([H])[H])c([H])c2n1)OC([H])([H])C([H])([H])O3


 31 35  0  0  0  0  0  0  0  0999 V2000
   -0.1133  -52.9194  -23.4371 C   0  0  0  0  0  0  0  0  0  0  0  0
   -0.7018  -54.0920  -23.8096 N   0  0  0  0  0  0  0  0  0  0  0  0
   -1.2105  -54.9773  -22.9698 C   0  0  0  0  0  0  0  0  0  0  0  0
   -1.1545  -54.7251  -21.6576 N   0  0  0  0  0  0  0  0  0  0  0  0
   -0.5813  -53.5768  -21.2133 C   0  0  0  0  0  0  0  0  0  0  0  0
   -0.5022  -53.3030  -19.8830 C   0  0  0  0  0  0  0  0  0  0  0  0
    0.0943  -52.1294  -19.3555 C   0  0  0  0  0  0  0  0  0  0  0  0
    0.6024  -51.2582  -20.2626 C   0  0  0  0  0  0  0  0  0  0  0  0
    1.2232  -50.0585  -19.9249 O   0  0  0  0  0  0  0  0  0  0  0  0
    2.3934  -49.6120  -20.5897 C   0  0  0  0  0  0  0  0  0  0  0  0
    2.3784  -49.9402  -22.0460 C   0  0  0  0  0  0  0  0  0  0  0  0
    1.1130  -50.5107  -22.4317 O   0  0  0  0  0  0  0  0  0  0  0  0
    0.5405  -51.5025  -21.6319 C   0  0  0  0  0  0  0  0  0  0  0  0
   -0.0434  -52.6433  -22.1103 C   0  0  0  0  0  0  0  0  0  0  0  0
    0.3074  -52.0188  -24.4324 N   0  0  0  0  0  0  0  0  0  0  0  0
    0.7705  -51.1409  -24.2442 H   0  0  0  0  0  0  0  0  0  0  0  0
   -0.4544  -53.0127  -29.8106 F   0  0  0  0  0  0  0  0  0  0  0  0
   -0.2707  -52.7606  -28.4988 C   0  0  0  0  0  0  0  0  0  0  0  0
    1.0315  -52.7425  -28.0137 C   0  0  0  0  0  0  0  0  0  0  0  0
    1.1729  -52.4833  -26.6821 C   0  0  0  0  0  0  0  0  0  0  0  0
    0.0780  -52.2472  -25.8402 C   0  0  0  0  0  0  0  0  0  0  0  0
   -1.1857  -52.2702  -26.3322 C   0  0  0  0  0  0  0  0  0  0  0  0
   -1.3568  -52.5349  -27.7033 C   0  0  0  0  0  0  0  0  0  0  0  0
   -2.9749  -52.5723  -28.3808 Cl  0  0  0  0  0  0  0  0  0  0  0  0
    0.1138  -51.9668  -18.0261 O   0  0  0  0  0  0  0  0  0  0  0  0
   -0.5542  -51.1885  -17.1497 C   0  0  0  0  0  0  0  0  0  0  0  0
   -1.6813  -51.9717  -16.4616 C   0  0  0  0  0  0  0  0  0  0  0  0
   -1.8384  -51.3509  -15.0889 C   0  0  0  0  0  0  0  0  0  0  0  0
   -0.7534  -51.8001  -14.3386 O   0  0  0  0  0  0  0  0  0  0  0  0
    0.4582  -51.3786  -14.8544 C   0  0  0  0  0  0  0  0  0  0  0  0
    0.3525  -50.5622  -16.0951 C   0  0  0  0  0  0  0  0  0  0  0  0
 17 18  1  0  0  0
 18 19  2  0  0  0
 19 20  1  0  0  0
 20 21  2  0  0  0
 21 15  1  0  0  0
 15  1  1  0  0  0
  1  2  2  0  0  0
  2  3  1  0  0  0
  3  4  2  0  0  0
  4  5  1  0  0  0
  5  6  2  0  0  0
  6  7  1  0  0  0
  7 25  1  0  0  0
 25 26  1  0  0  0
 26 27  1  0  0  0
 27 28  1  0  0  0
 28 29  1  0  0  0
 29 30  1  0  0  0
 30 31  1  0  0  0
  7  8  2  0  0  0
  8  9  1  0  0  0
  9 10  1  0  0  0
 10 11  1  0  0  0
 11 12  1  0  0  0
 12 13  1  0  0  0
 13 14  2  0  0  0
 21 22  1  0  0  0
 22 23  2  0  0  0
 23 24  1  0  0  0
 23 18  1  0  0  0
 14  1  1  0  0  0
 14  5  1  0  0  0
 31 26  1  0  0  0
 13  8  1  0  0  0
 15 16  1  0  0  0
M  END
> <minimizedAffinity>
-9.44925

> <CNNscore>
0.9647367597

> <CNNaffinity>
7.4692506790

> <CNN_VS>
7.2058606148

> <CNNaffinity_variance>
0.0660293624

$$$$
[H]c1nc(N([H])c2c([H])c([H])c(F)c(Cl)c2[H])c2c3c(c(OC4([H])C([H])([H])C([H])([H])OC([H])([H])C4([H])[H])c([H])c2n1)OC([H])([H])C([H])([H])O3


 31 35  0  0  0  0  0  0  0  0999 V2000
   -0.0537  -52.8191  -23.0776 C   0  0  0  0  0  0  0  0  0  0  0  0
   -0.5923  -54.0536  -23.2927 N   0  0  0  0  0  0  0  0  0  0  0  0
   -1.1039  -54.8248  -22.3486 C   0  0  0  0  0  0  0  0  0  0  0  0
   -1.1033  -54.3827  -21.0864 N   0  0  0  0  0  0  0  0  0  0  0  0
   -0.5819  -53.1625  -20.7974 C   0  0  0  0  0  0  0  0  0  0  0  0
   -0.5595  -52.6956  -19.5197 C   0  0  0  0  0  0  0  0  0  0  0  0
   -0.0186  -51.4373  -19.1513 C   0  0  0  0  0  0  0  0  0  0  0  0
    0.4953  -50.6898  -20.1598 C   0  0  0  0  0  0  0  0  0  0  0  0
    1.0665  -49.4325  -19.9821 O   0  0  0  0  0  0  0  0  0  0  0  0
    2.2459  -49.0461  -20.6680 C   0  0  0  0  0  0  0  0  0  0  0  0
    2.2938  -49.5829  -22.0603 C   0  0  0  0  0  0  0  0  0  0  0  0
    1.0612  -50.2479  -22.3978 O   0  0  0  0  0  0  0  0  0  0  0  0
    0.4906  -51.1326  -21.4798 C   0  0  0  0  0  0  0  0  0  0  0  0
   -0.0405  -52.3507  -21.8040 C   0  0  0  0  0  0  0  0  0  0  0  0
    0.3752  -52.0585  -24.1803 N   0  0  0  0  0  0  0  0  0  0  0  0
    0.9167  -51.2087  -24.1074 H   0  0  0  0  0  0  0  0  0  0  0  0
   -0.9671  -53.2242  -29.4084 F   0  0  0  0  0  0  0  0  0  0  0  0
   -0.6401  -52.9490  -28.1295 C   0  0  0  0  0  0  0  0  0  0  0  0
   -1.5886  -52.3164  -27.3348 C   0  0  0  0  0  0  0  0  0  0  0  0
   -1.2176  -52.0570  -26.0483 C   0  0  0  0  0  0  0  0  0  0  0  0
    0.0430  -52.4025  -25.5435 C   0  0  0  0  0  0  0  0  0  0  0  0
    0.9558  -53.0186  -26.3351 C   0  0  0  0  0  0  0  0  0  0  0  0
    0.5959  -53.2972  -27.6663 C   0  0  0  0  0  0  0  0  0  0  0  0
    1.7467  -54.0945  -28.7239 Cl  0  0  0  0  0  0  0  0  0  0  0  0
   -0.0524  -51.0826  -17.8601 O   0  0  0  0  0  0  0  0  0  0  0  0
    0.7583  -51.2675  -16.7979 C   0  0  0  0  0  0  0  0  0  0  0  0
    1.6489  -50.0394  -16.5611 C   0  0  0  0  0  0  0  0  0  0  0  0
    1.9133  -50.0011  -15.0701 C   0  0  0  0  0  0  0  0  0  0  0  0
    0.7336  -49.5476  -14.4832 O   0  0  0  0  0  0  0  0  0  0  0  0
   -0.3294  -50.4049  -14.6997 C   0  0  0  0  0  0  0  0  0  0  0  0
   -0.0006  -51.6043  -15.5184 C   0  0  0  0  0  0  0  0  0  0  0  0
 17 18  1  0  0  0
 18 19  2  0  0  0
 19 20  1  0  0  0
 20 21  2  0  0  0
 21 15  1  0  0  0
 15  1  1  0  0  0
  1  2  2  0  0  0
  2  3  1  0  0  0
  3  4  2  0  0  0
  4  5  1  0  0  0
  5  6  2  0  0  0
  6  7  1  0  0  0
  7 25  1  0  0  0
 25 26  1  0  0  0
 26 27  1  0  0  0
 27 28  1  0  0  0
 28 29  1  0  0  0
 29 30  1  0  0  0
 30 31  1  0  0  0
  7  8  2  0  0  0
  8  9  1  0  0  0
  9 10  1  0  0  0
 10 11  1  0  0  0
 11 12  1  0  0  0
 12 13  1  0  0  0
 13 14  2  0  0  0
 21 22  1  0  0  0
 22 23  2  0  0  0
 23 24  1  0  0  0
 23 18  1  0  0  0
 14  1  1  0  0  0
 14  5  1  0  0  0
 31 26  1  0  0  0
 13  8  1  0  0  0
 15 16  1  0  0  0
M  END
> <minimizedAffinity>
-8.50207

> <CNNscore>
0.8599503040

> <CNNaffinity>
7.1892218590

> <CNN_VS>
6.1823735237

> <CNNaffinity_variance>
0.1988494396

$$$$
[H]c1nc(N([H])c2c([H])c([H])c(F)c(Cl)c2[H])c2c3c(c(OC4([H])C([H])([H])C([H])([H])OC([H])([H])C4([H])[H])c([H])c2n1)OC([H])([H])C([H])([H])O3


 31 35  0  0  0  0  0  0  0  0999 V2000
   -0.5526  -53.0975  -19.7403 C   0  0  0  0  0  0  0  0  0  0  0  0
   -1.4727  -54.0329  -20.1126 N   0  0  0  0  0  0  0  0  0  0  0  0
   -1.7890  -54.3189  -21.3640 C   0  0  0  0  0  0  0  0  0  0  0  0
   -1.1754  -53.6560  -22.3502 N   0  0  0  0  0  0  0  0  0  0  0  0
   -0.2480  -52.7091  -22.0538 C   0  0  0  0  0  0  0  0  0  0  0  0
    0.3817  -52.0134  -23.0390 C   0  0  0  0  0  0  0  0  0  0  0  0
    1.3487  -51.0050  -22.7953 C   0  0  0  0  0  0  0  0  0  0  0  0
    1.6317  -50.7512  -21.4932 C   0  0  0  0  0  0  0  0  0  0  0  0
    2.5524  -49.7964  -21.0698 O   0  0  0  0  0  0  0  0  0  0  0  0
    2.2942  -48.9530  -19.9595 C   0  0  0  0  0  0  0  0  0  0  0  0
    1.5534  -49.6580  -18.8720 C   0  0  0  0  0  0  0  0  0  0  0  0
    1.4071  -51.0590  -19.1739 O   0  0  0  0  0  0  0  0  0  0  0  0
    1.0091  -51.4418  -20.4569 C   0  0  0  0  0  0  0  0  0  0  0  0
    0.0815  -52.4109  -20.7242 C   0  0  0  0  0  0  0  0  0  0  0  0
   -0.2391  -52.9513  -18.3768 N   0  0  0  0  0  0  0  0  0  0  0  0
    0.6502  -53.2028  -17.9689 H   0  0  0  0  0  0  0  0  0  0  0  0
   -3.8315  -50.9078  -14.7145 F   0  0  0  0  0  0  0  0  0  0  0  0
   -2.9524  -51.4143  -15.6027 C   0  0  0  0  0  0  0  0  0  0  0  0
   -1.7322  -50.7669  -15.7552 C   0  0  0  0  0  0  0  0  0  0  0  0
   -0.8725  -51.3119  -16.6629 C   0  0  0  0  0  0  0  0  0  0  0  0
   -1.1877  -52.4575  -17.4056 C   0  0  0  0  0  0  0  0  0  0  0  0
   -2.3844  -53.0747  -17.2435 C   0  0  0  0  0  0  0  0  0  0  0  0
   -3.2880  -52.5313  -16.3121 C   0  0  0  0  0  0  0  0  0  0  0  0
   -4.8467  -53.2998  -16.0706 Cl  0  0  0  0  0  0  0  0  0  0  0  0
    1.9034  -50.3867  -23.8461 O   0  0  0  0  0  0  0  0  0  0  0  0
    2.7251  -50.7600  -24.8487 C   0  0  0  0  0  0  0  0  0  0  0  0
    3.5255  -52.0144  -24.4702 C   0  0  0  0  0  0  0  0  0  0  0  0
    3.7862  -52.7469  -25.7701 C   0  0  0  0  0  0  0  0  0  0  0  0
    2.5770  -53.3425  -26.1237 O   0  0  0  0  0  0  0  0  0  0  0  0
    1.5780  -52.4153  -26.3566 C   0  0  0  0  0  0  0  0  0  0  0  0
    1.9919  -50.9980  -26.1649 C   0  0  0  0  0  0  0  0  0  0  0  0
 17 18  1  0  0  0
 18 19  2  0  0  0
 19 20  1  0  0  0
 20 21  2  0  0  0
 21 15  1  0  0  0
 15  1  1  0  0  0
  1  2  2  0  0  0
  2  3  1  0  0  0
  3  4  2  0  0  0
  4  5  1  0  0  0
  5  6  2  0  0  0
  6  7  1  0  0  0
  7 25  1  0  0  0
 25 26  1  0  0  0
 26 27  1  0  0  0
 27 28  1  0  0  0
 28 29  1  0  0  0
 29 30  1  0  0  0
 30 31  1  0  0  0
  7  8  2  0  0  0
  8  9  1  0  0  0
  9 10  1  0  0  0
 10 11  1  0  0  0
 11 12  1  0  0  0
 12 13  1  0  0  0
 13 14  2  0  0  0
 21 22  1  0  0  0
 22 23  2  0  0  0
 23 24  1  0  0  0
 23 18  1  0  0  0
 14  1  1  0  0  0
 14  5  1  0  0  0
 31 26  1  0  0  0
 13  8  1  0  0  0
 15 16  1  0  0  0
M  END
> <minimizedAffinity>
-8.03401

> <CNNscore>
0.8015887141

> <CNNaffinity>
6.9833130836

> <CNN_VS>
5.5977449417

> <CNNaffinity_variance>
0.3065110445

$$$$
[H]c1nc(N([H])c2c([H])c([H])c(F)c(Cl)c2[H])c2c3c(c(OC4([H])C([H])([H])C([H])([H])OC([H])([H])C4([H])[H])c([H])c2n1)OC([H])([H])C([H])([H])O3


 31 35  0  0  0  0  0  0  0  0999 V2000
   -0.3386  -52.7103  -22.4477 C   0  0  0  0  0  0  0  0  0  0  0  0
   -1.0081  -53.8455  -22.7989 N   0  0  0  0  0  0  0  0  0  0  0  0
   -1.6026  -54.6614  -21.9453 C   0  0  0  0  0  0  0  0  0  0  0  0
   -1.5565  -54.3721  -20.6404 N   0  0  0  0  0  0  0  0  0  0  0  0
   -0.9059  -53.2576  -20.2173 C   0  0  0  0  0  0  0  0  0  0  0  0
   -0.8354  -52.9479  -18.8943 C   0  0  0  0  0  0  0  0  0  0  0  0
   -0.1614  -51.8073  -18.3882 C   0  0  0  0  0  0  0  0  0  0  0  0
    0.4330  -51.0075  -19.3086 C   0  0  0  0  0  0  0  0  0  0  0  0
    1.1374  -49.8489  -18.9923 O   0  0  0  0  0  0  0  0  0  0  0  0
    2.3533  -49.5155  -19.6413 C   0  0  0  0  0  0  0  0  0  0  0  0
    2.3454  -49.8883  -21.0868 C   0  0  0  0  0  0  0  0  0  0  0  0
    1.0484  -50.3719  -21.4861 O   0  0  0  0  0  0  0  0  0  0  0  0
    0.3829  -51.2904  -20.6710 C   0  0  0  0  0  0  0  0  0  0  0  0
   -0.2771  -52.3977  -21.1286 C   0  0  0  0  0  0  0  0  0  0  0  0
    0.1729  -51.8773  -23.4593 N   0  0  0  0  0  0  0  0  0  0  0  0
    0.3095  -50.8814  -23.3592 H   0  0  0  0  0  0  0  0  0  0  0  0
    1.6513  -53.6832  -28.4640 F   0  0  0  0  0  0  0  0  0  0  0  0
    1.2810  -53.2413  -27.2450 C   0  0  0  0  0  0  0  0  0  0  0  0
    1.6675  -51.9601  -26.8700 C   0  0  0  0  0  0  0  0  0  0  0  0
    1.2720  -51.5523  -25.6301 C   0  0  0  0  0  0  0  0  0  0  0  0
    0.5197  -52.3668  -24.7735 C   0  0  0  0  0  0  0  0  0  0  0  0
    0.1529  -53.6149  -25.1570 C   0  0  0  0  0  0  0  0  0  0  0  0
    0.5487  -54.0579  -26.4323 C   0  0  0  0  0  0  0  0  0  0  0  0
    0.0940  -55.6655  -26.9684 Cl  0  0  0  0  0  0  0  0  0  0  0  0
   -0.1590  -51.6038  -17.0643 O   0  0  0  0  0  0  0  0  0  0  0  0
   -0.7751  -50.7412  -16.2300 C   0  0  0  0  0  0  0  0  0  0  0  0
   -0.7471  -51.2549  -14.7834 C   0  0  0  0  0  0  0  0  0  0  0  0
   -0.7371  -50.0204  -13.9059 C   0  0  0  0  0  0  0  0  0  0  0  0
    0.5527  -49.4998  -13.9912 O   0  0  0  0  0  0  0  0  0  0  0  0
    0.8810  -49.1056  -15.2752 C   0  0  0  0  0  0  0  0  0  0  0  0
   -0.1885  -49.3343  -16.2855 C   0  0  0  0  0  0  0  0  0  0  0  0
 17 18  1  0  0  0
 18 19  2  0  0  0
 19 20  1  0  0  0
 20 21  2  0  0  0
 21 15  1  0  0  0
 15  1  1  0  0  0
  1  2  2  0  0  0
  2  3  1  0  0  0
  3  4  2  0  0  0
  4  5  1  0  0  0
  5  6  2  0  0  0
  6  7  1  0  0  0
  7 25  1  0  0  0
 25 26  1  0  0  0
 26 27  1  0  0  0
 27 28  1  0  0  0
 28 29  1  0  0  0
 29 30  1  0  0  0
 30 31  1  0  0  0
  7  8  2  0  0  0
  8  9  1  0  0  0
  9 10  1  0  0  0
 10 11  1  0  0  0
 11 12  1  0  0  0
 12 13  1  0  0  0
 13 14  2  0  0  0
 21 22  1  0  0  0
 22 23  2  0  0  0
 23 24  1  0  0  0
 23 18  1  0  0  0
 14  1  1  0  0  0
 14  5  1  0  0  0
 31 26  1  0  0  0
 13  8  1  0  0  0
 15 16  1  0  0  0
M  END
> <minimizedAffinity>
-7.85208

> <CNNscore>
0.7828177214

> <CNNaffinity>
6.9715332985

> <CNN_VS>
5.4574398994

> <CNNaffinity_variance>
0.1989093274

$$$$
[H]c1nc(N([H])c2c([H])c([H])c(F)c(Cl)c2[H])c2c3c(c(OC4([H])C([H])([H])C([H])([H])OC([H])([H])C4([H])[H])c([H])c2n1)OC([H])([H])C([H])([H])O3


 31 35  0  0  0  0  0  0  0  0999 V2000
    0.7507  -52.4655  -23.9689 C   0  0  0  0  0  0  0  0  0  0  0  0
    0.0313  -53.6149  -23.8227 N   0  0  0  0  0  0  0  0  0  0  0  0
   -0.5997  -53.9707  -22.7168 C   0  0  0  0  0  0  0  0  0  0  0  0
   -0.5414  -53.1609  -21.6541 N   0  0  0  0  0  0  0  0  0  0  0  0
    0.1583  -51.9991  -21.7266 C   0  0  0  0  0  0  0  0  0  0  0  0
    0.2418  -51.1642  -20.6556 C   0  0  0  0  0  0  0  0  0  0  0  0
    0.9659  -49.9448  -20.6634 C   0  0  0  0  0  0  0  0  0  0  0  0
    1.5961  -49.6317  -21.8231 C   0  0  0  0  0  0  0  0  0  0  0  0
    2.3515  -48.4772  -22.0100 O   0  0  0  0  0  0  0  0  0  0  0  0
    3.5815  -48.4975  -22.7153 C   0  0  0  0  0  0  0  0  0  0  0  0
    3.5577  -49.4438  -23.8697 C   0  0  0  0  0  0  0  0  0  0  0  0
    2.2405  -49.9977  -24.0536 O   0  0  0  0  0  0  0  0  0  0  0  0
    1.5341  -50.4598  -22.9407 C   0  0  0  0  0  0  0  0  0  0  0  0
    0.8254  -51.6291  -22.9028 C   0  0  0  0  0  0  0  0  0  0  0  0
    1.2996  -52.1574  -25.2268 N   0  0  0  0  0  0  0  0  0  0  0  0
    2.1904  -51.7002  -25.3606 H   0  0  0  0  0  0  0  0  0  0  0  0
   -1.2343  -53.3501  -29.9861 F   0  0  0  0  0  0  0  0  0  0  0  0
   -0.6167  -53.0493  -28.8258 C   0  0  0  0  0  0  0  0  0  0  0  0
    0.7585  -53.2350  -28.7510 C   0  0  0  0  0  0  0  0  0  0  0  0
    1.3435  -52.9183  -27.5604 C   0  0  0  0  0  0  0  0  0  0  0  0
    0.6130  -52.4330  -26.4676 C   0  0  0  0  0  0  0  0  0  0  0  0
   -0.7290  -52.2595  -26.5596 C   0  0  0  0  0  0  0  0  0  0  0  0
   -1.3550  -52.5788  -27.7784 C   0  0  0  0  0  0  0  0  0  0  0  0
   -3.0893  -52.3677  -27.9404 Cl  0  0  0  0  0  0  0  0  0  0  0  0
    0.9767  -49.2030  -19.5481 O   0  0  0  0  0  0  0  0  0  0  0  0
    1.7677  -49.1300  -18.4578 C   0  0  0  0  0  0  0  0  0  0  0  0
    1.3761  -50.1899  -17.4182 C   0  0  0  0  0  0  0  0  0  0  0  0
    2.6519  -50.5348  -16.6781 C   0  0  0  0  0  0  0  0  0  0  0  0
    3.3971  -51.3285  -17.5478 O   0  0  0  0  0  0  0  0  0  0  0  0
    3.7503  -50.6590  -18.7049 C   0  0  0  0  0  0  0  0  0  0  0  0
    3.2516  -49.2584  -18.7865 C   0  0  0  0  0  0  0  0  0  0  0  0
 17 18  1  0  0  0
 18 19  2  0  0  0
 19 20  1  0  0  0
 20 21  2  0  0  0
 21 15  1  0  0  0
 15  1  1  0  0  0
  1  2  2  0  0  0
  2  3  1  0  0  0
  3  4  2  0  0  0
  4  5  1  0  0  0
  5  6  2  0  0  0
  6  7  1  0  0  0
  7 25  1  0  0  0
 25 26  1  0  0  0
 26 27  1  0  0  0
 27 28  1  0  0  0
 28 29  1  0  0  0
 29 30  1  0  0  0
 30 31  1  0  0  0
  7  8  2  0  0  0
  8  9  1  0  0  0
  9 10  1  0  0  0
 10 11  1  0  0  0
 11 12  1  0  0  0
 12 13  1  0  0  0
 13 14  2  0  0  0
 21 22  1  0  0  0
 22 23  2  0  0  0
 23 24  1  0  0  0
 23 18  1  0  0  0
 14  1  1  0  0  0
 14  5  1  0  0  0
 31 26  1  0  0  0
 13  8  1  0  0  0
 15 16  1  0  0  0
M  END
> <minimizedAffinity>
-8.76579

> <CNNscore>
0.7176346183

> <CNNaffinity>
7.0401582718

> <CNN_VS>
5.0522613525

> <CNNaffinity_variance>
0.3562806845

$$$$
[H]c1nc(N([H])c2c([H])c([H])c(F)c(Cl)c2[H])c2c3c(c(OC4([H])C([H])([H])C([H])([H])OC([H])([H])C4([H])[H])c([H])c2n1)OC([H])([H])C([H])([H])O3


 31 35  0  0  0  0  0  0  0  0999 V2000
    0.0622  -52.5106  -23.0541 C   0  0  0  0  0  0  0  0  0  0  0  0
   -0.3715  -53.6646  -23.6377 N   0  0  0  0  0  0  0  0  0  0  0  0
   -0.9111  -54.6798  -22.9849 C   0  0  0  0  0  0  0  0  0  0  0  0
   -1.0509  -54.5898  -21.6579 N   0  0  0  0  0  0  0  0  0  0  0  0
   -0.6399  -53.4699  -21.0088 C   0  0  0  0  0  0  0  0  0  0  0  0
   -0.7611  -53.3592  -19.6582 C   0  0  0  0  0  0  0  0  0  0  0  0
   -0.3402  -52.2230  -18.9211 C   0  0  0  0  0  0  0  0  0  0  0  0
    0.2089  -51.2134  -19.6417 C   0  0  0  0  0  0  0  0  0  0  0  0
    0.6768  -50.0262  -19.0848 O   0  0  0  0  0  0  0  0  0  0  0  0
    1.8832  -49.4226  -19.5218 C   0  0  0  0  0  0  0  0  0  0  0  0
    2.0890  -49.5671  -20.9933 C   0  0  0  0  0  0  0  0  0  0  0  0
    0.9382  -50.1689  -21.6169 O   0  0  0  0  0  0  0  0  0  0  0  0
    0.3498  -51.2889  -21.0248 C   0  0  0  0  0  0  0  0  0  0  0  0
   -0.0679  -52.3978  -21.7081 C   0  0  0  0  0  0  0  0  0  0  0  0
    0.5342  -51.4669  -23.8705 N   0  0  0  0  0  0  0  0  0  0  0  0
   -0.0616  -50.7976  -24.3369 H   0  0  0  0  0  0  0  0  0  0  0  0
    5.8794  -50.5652  -24.9238 F   0  0  0  0  0  0  0  0  0  0  0  0
    4.5740  -50.7922  -24.6736 C   0  0  0  0  0  0  0  0  0  0  0  0
    3.6548  -49.8327  -25.0809 C   0  0  0  0  0  0  0  0  0  0  0  0
    2.3456  -50.1016  -24.8091 C   0  0  0  0  0  0  0  0  0  0  0  0
    1.9366  -51.2728  -24.1578 C   0  0  0  0  0  0  0  0  0  0  0  0
    2.8489  -52.1971  -23.7669 C   0  0  0  0  0  0  0  0  0  0  0  0
    4.2059  -51.9422  -24.0369 C   0  0  0  0  0  0  0  0  0  0  0  0
    5.4187  -53.1127  -23.5494 Cl  0  0  0  0  0  0  0  0  0  0  0  0
   -0.5109  -52.2263  -17.5926 O   0  0  0  0  0  0  0  0  0  0  0  0
   -0.8738  -51.3069  -16.6745 C   0  0  0  0  0  0  0  0  0  0  0  0
   -2.1386  -51.7452  -15.9226 C   0  0  0  0  0  0  0  0  0  0  0  0
   -2.0310  -51.1346  -14.5406 C   0  0  0  0  0  0  0  0  0  0  0  0
   -1.0821  -51.8941  -13.8588 O   0  0  0  0  0  0  0  0  0  0  0  0
    0.1684  -51.8300  -14.4453 C   0  0  0  0  0  0  0  0  0  0  0  0
    0.2337  -50.9919  -15.6742 C   0  0  0  0  0  0  0  0  0  0  0  0
 17 18  1  0  0  0
 18 19  2  0  0  0
 19 20  1  0  0  0
 20 21  2  0  0  0
 21 15  1  0  0  0
 15  1  1  0  0  0
  1  2  2  0  0  0
  2  3  1  0  0  0
  3  4  2  0  0  0
  4  5  1  0  0  0
  5  6  2  0  0  0
  6  7  1  0  0  0
  7 25  1  0  0  0
 25 26  1  0  0  0
 26 27  1  0  0  0
 27 28  1  0  0  0
 28 29  1  0  0  0
 29 30  1  0  0  0
 30 31  1  0  0  0
  7  8  2  0  0  0
  8  9  1  0  0  0
  9 10  1  0  0  0
 10 11  1  0  0  0
 11 12  1  0  0  0
 12 13  1  0  0  0
 13 14  2  0  0  0
 21 22  1  0  0  0
 22 23  2  0  0  0
 23 24  1  0  0  0
 23 18  1  0  0  0
 14  1  1  0  0  0
 14  5  1  0  0  0
 31 26  1  0  0  0
 13  8  1  0  0  0
 15 16  1  0  0  0
M  END
> <minimizedAffinity>
-7.54527

> <CNNscore>
0.7002369165

> <CNNaffinity>
6.8310813904

> <CNN_VS>
4.7833752632

> <CNNaffinity_variance>
0.1920012981

$$$$
[H]c1nc(N([H])c2c([H])c([H])c(F)c(Cl)c2[H])c2c3c(c(OC4([H])C([H])([H])C([H])([H])OC([H])([H])C4([H])[H])c([H])c2n1)OC([H])([H])C([H])([H])O3


 31 35  0  0  0  0  0  0  0  0999 V2000
   -0.3152  -52.5317  -22.4717 C   0  0  0  0  0  0  0  0  0  0  0  0
   -0.8914  -53.7241  -22.7980 N   0  0  0  0  0  0  0  0  0  0  0  0
   -1.3608  -54.5961  -21.9222 C   0  0  0  0  0  0  0  0  0  0  0  0
   -1.2747  -54.3087  -20.6189 N   0  0  0  0  0  0  0  0  0  0  0  0
   -0.7116  -53.1390  -20.2200 C   0  0  0  0  0  0  0  0  0  0  0  0
   -0.6022  -52.8291  -18.8997 C   0  0  0  0  0  0  0  0  0  0  0  0
   -0.0141  -51.6315  -18.4189 C   0  0  0  0  0  0  0  0  0  0  0  0
    0.4533  -50.7752  -19.3615 C   0  0  0  0  0  0  0  0  0  0  0  0
    1.0601  -49.5561  -19.0717 O   0  0  0  0  0  0  0  0  0  0  0  0
    2.2036  -49.1060  -19.7792 C   0  0  0  0  0  0  0  0  0  0  0  0
    2.1561  -49.4724  -21.2256 C   0  0  0  0  0  0  0  0  0  0  0  0
    0.8918  -50.0756  -21.5621 O   0  0  0  0  0  0  0  0  0  0  0  0
    0.3596  -51.0564  -20.7219 C   0  0  0  0  0  0  0  0  0  0  0  0
   -0.2153  -52.2197  -21.1548 C   0  0  0  0  0  0  0  0  0  0  0  0
    0.0619  -51.6500  -23.5008 N   0  0  0  0  0  0  0  0  0  0  0  0
   -0.3227  -50.7240  -23.6240 H   0  0  0  0  0  0  0  0  0  0  0  0
    3.6523  -52.9008  -27.5055 F   0  0  0  0  0  0  0  0  0  0  0  0
    2.7766  -52.6044  -26.5240 C   0  0  0  0  0  0  0  0  0  0  0  0
    1.4318  -52.4998  -26.8586 C   0  0  0  0  0  0  0  0  0  0  0  0
    0.5802  -52.1992  -25.8366 C   0  0  0  0  0  0  0  0  0  0  0  0
    1.0213  -52.0046  -24.5210 C   0  0  0  0  0  0  0  0  0  0  0  0
    2.3381  -52.1099  -24.2142 C   0  0  0  0  0  0  0  0  0  0  0  0
    3.2362  -52.4198  -25.2519 C   0  0  0  0  0  0  0  0  0  0  0  0
    4.9484  -52.5667  -24.8979 Cl  0  0  0  0  0  0  0  0  0  0  0  0
    0.0377  -51.4338  -17.0951 O   0  0  0  0  0  0  0  0  0  0  0  0
   -0.6176  -51.9366  -16.0285 C   0  0  0  0  0  0  0  0  0  0  0  0
    0.2557  -51.8830  -14.7669 C   0  0  0  0  0  0  0  0  0  0  0  0
   -0.7043  -51.7298  -13.6052 C   0  0  0  0  0  0  0  0  0  0  0  0
   -1.1407  -50.4069  -13.6405 O   0  0  0  0  0  0  0  0  0  0  0  0
   -1.8325  -50.1081  -14.7997 C   0  0  0  0  0  0  0  0  0  0  0  0
   -1.9475  -51.2392  -15.7612 C   0  0  0  0  0  0  0  0  0  0  0  0
 17 18  1  0  0  0
 18 19  2  0  0  0
 19 20  1  0  0  0
 20 21  2  0  0  0
 21 15  1  0  0  0
 15  1  1  0  0  0
  1  2  2  0  0  0
  2  3  1  0  0  0
  3  4  2  0  0  0
  4  5  1  0  0  0
  5  6  2  0  0  0
  6  7  1  0  0  0
  7 25  1  0  0  0
 25 26  1  0  0  0
 26 27  1  0  0  0
 27 28  1  0  0  0
 28 29  1  0  0  0
 29 30  1  0  0  0
 30 31  1  0  0  0
  7  8  2  0  0  0
  8  9  1  0  0  0
  9 10  1  0  0  0
 10 11  1  0  0  0
 11 12  1  0  0  0
 12 13  1  0  0  0
 13 14  2  0  0  0
 21 22  1  0  0  0
 22 23  2  0  0  0
 23 24  1  0  0  0
 23 18  1  0  0  0
 14  1  1  0  0  0
 14  5  1  0  0  0
 31 26  1  0  0  0
 13  8  1  0  0  0
 15 16  1  0  0  0
M  END
> <minimizedAffinity>
-7.91575

> <CNNscore>
0.6895425320

> <CNNaffinity>
6.8324708939

> <CNN_VS>
4.7112793922

> <CNNaffinity_variance>
0.2290947735

$$$$
[H]c1nc(N([H])c2c([H])c([H])c(F)c(Cl)c2[H])c2c3c(c(OC4([H])C([H])([H])C([H])([H])OC([H])([H])C4([H])[H])c([H])c2n1)OC([H])([H])C([H])([H])O3


 31 35  0  0  0  0  0  0  0  0999 V2000
   -0.2659  -53.0823  -19.7747 C   0  0  0  0  0  0  0  0  0  0  0  0
   -1.4038  -53.5917  -20.3279 N   0  0  0  0  0  0  0  0  0  0  0  0
   -1.6421  -53.6607  -21.6264 C   0  0  0  0  0  0  0  0  0  0  0  0
   -0.7151  -53.2043  -22.4756 N   0  0  0  0  0  0  0  0  0  0  0  0
    0.4430  -52.6819  -21.9958 C   0  0  0  0  0  0  0  0  0  0  0  0
    1.3963  -52.2008  -22.8391 C   0  0  0  0  0  0  0  0  0  0  0  0
    2.6195  -51.6323  -22.4011 C   0  0  0  0  0  0  0  0  0  0  0  0
    2.8092  -51.5844  -21.0589 C   0  0  0  0  0  0  0  0  0  0  0  0
    3.9481  -51.0604  -20.4531 O   0  0  0  0  0  0  0  0  0  0  0  0
    3.8693  -50.2550  -19.2887 C   0  0  0  0  0  0  0  0  0  0  0  0
    2.7969  -50.7109  -18.3554 C   0  0  0  0  0  0  0  0  0  0  0  0
    2.2022  -51.9395  -18.8161 O   0  0  0  0  0  0  0  0  0  0  0  0
    1.8578  -52.0665  -20.1638 C   0  0  0  0  0  0  0  0  0  0  0  0
    0.6880  -52.6114  -20.6173 C   0  0  0  0  0  0  0  0  0  0  0  0
   -0.0939  -53.1494  -18.3803 N   0  0  0  0  0  0  0  0  0  0  0  0
    0.6492  -53.6595  -17.9241 H   0  0  0  0  0  0  0  0  0  0  0  0
   -3.5187  -50.5903  -14.8852 F   0  0  0  0  0  0  0  0  0  0  0  0
   -2.6811  -51.2223  -15.7321 C   0  0  0  0  0  0  0  0  0  0  0  0
   -1.4192  -50.6753  -15.9315 C   0  0  0  0  0  0  0  0  0  0  0  0
   -0.6036  -51.3458  -16.7949 C   0  0  0  0  0  0  0  0  0  0  0  0
   -1.0015  -52.5188  -17.4498 C   0  0  0  0  0  0  0  0  0  0  0  0
   -2.2377  -53.0368  -17.2430 C   0  0  0  0  0  0  0  0  0  0  0  0
   -3.0971  -52.3630  -16.3560 C   0  0  0  0  0  0  0  0  0  0  0  0
   -4.7047  -53.0000  -16.0589 Cl  0  0  0  0  0  0  0  0  0  0  0  0
    3.4841  -51.1917  -23.3245 O   0  0  0  0  0  0  0  0  0  0  0  0
    3.7629  -49.9925  -23.8758 C   0  0  0  0  0  0  0  0  0  0  0  0
    2.9194  -48.8801  -23.2368 C   0  0  0  0  0  0  0  0  0  0  0  0
    3.7585  -47.6221  -23.3246 C   0  0  0  0  0  0  0  0  0  0  0  0
    4.7464  -47.7514  -22.3504 O   0  0  0  0  0  0  0  0  0  0  0  0
    5.5802  -48.8299  -22.5815 C   0  0  0  0  0  0  0  0  0  0  0  0
    5.2413  -49.6261  -23.7932 C   0  0  0  0  0  0  0  0  0  0  0  0
 17 18  1  0  0  0
 18 19  2  0  0  0
 19 20  1  0  0  0
 20 21  2  0  0  0
 21 15  1  0  0  0
 15  1  1  0  0  0
  1  2  2  0  0  0
  2  3  1  0  0  0
  3  4  2  0  0  0
  4  5  1  0  0  0
  5  6  2  0  0  0
  6  7  1  0  0  0
  7 25  1  0  0  0
 25 26  1  0  0  0
 26 27  1  0  0  0
 27 28  1  0  0  0
 28 29  1  0  0  0
 29 30  1  0  0  0
 30 31  1  0  0  0
  7  8  2  0  0  0
  8  9  1  0  0  0
  9 10  1  0  0  0
 10 11  1  0  0  0
 11 12  1  0  0  0
 12 13  1  0  0  0
 13 14  2  0  0  0
 21 22  1  0  0  0
 22 23  2  0  0  0
 23 24  1  0  0  0
 23 18  1  0  0  0
 14  1  1  0  0  0
 14  5  1  0  0  0
 31 26  1  0  0  0
 13  8  1  0  0  0
 15 16  1  0  0  0
M  END
> <minimizedAffinity>
-7.49856

> <CNNscore>
0.6631730199

> <CNNaffinity>
6.6034746170

> <CNN_VS>
4.3792462349

> <CNNaffinity_variance>
0.1474317759

$$$$
[H]c1nc(N([H])c2c([H])c([H])c(F)c(Cl)c2[H])c2c3c(c(OC4([H])C([H])([H])C([H])([H])OC([H])([H])C4([H])[H])c([H])c2n1)OC([H])([H])C([H])([H])O3


 31 35  0  0  0  0  0  0  0  0999 V2000
    0.8522  -52.7989  -23.7080 C   0  0  0  0  0  0  0  0  0  0  0  0
   -0.3254  -53.2145  -23.1597 N   0  0  0  0  0  0  0  0  0  0  0  0
   -0.9052  -52.6546  -22.1117 C   0  0  0  0  0  0  0  0  0  0  0  0
   -0.3118  -51.6050  -21.5329 N   0  0  0  0  0  0  0  0  0  0  0  0
    0.8643  -51.1368  -22.0247 C   0  0  0  0  0  0  0  0  0  0  0  0
    1.4929  -50.0778  -21.4464 C   0  0  0  0  0  0  0  0  0  0  0  0
    2.7273  -49.5501  -21.9037 C   0  0  0  0  0  0  0  0  0  0  0  0
    3.2779  -50.1654  -22.9799 C   0  0  0  0  0  0  0  0  0  0  0  0
    4.4836  -49.7828  -23.5615 O   0  0  0  0  0  0  0  0  0  0  0  0
    5.4341  -50.7378  -24.0035 C   0  0  0  0  0  0  0  0  0  0  0  0
    4.7896  -51.9467  -24.5966 C   0  0  0  0  0  0  0  0  0  0  0  0
    3.3624  -51.7746  -24.6910 O   0  0  0  0  0  0  0  0  0  0  0  0
    2.6653  -51.2516  -23.5994 C   0  0  0  0  0  0  0  0  0  0  0  0
    1.4733  -51.7366  -23.1359 C   0  0  0  0  0  0  0  0  0  0  0  0
    1.3186  -53.4219  -24.8798 N   0  0  0  0  0  0  0  0  0  0  0  0
    2.1327  -54.0186  -24.9196 H   0  0  0  0  0  0  0  0  0  0  0  0
   -1.0017  -52.8386  -29.8567 F   0  0  0  0  0  0  0  0  0  0  0  0
   -0.4350  -52.9713  -28.6403 C   0  0  0  0  0  0  0  0  0  0  0  0
    0.9013  -53.3482  -28.5803 C   0  0  0  0  0  0  0  0  0  0  0  0
    1.4353  -53.4704  -27.3313 C   0  0  0  0  0  0  0  0  0  0  0  0
    0.6920  -53.2329  -26.1676 C   0  0  0  0  0  0  0  0  0  0  0  0
   -0.6116  -52.8669  -26.2467 C   0  0  0  0  0  0  0  0  0  0  0  0
   -1.1847  -52.7337  -27.5245 C   0  0  0  0  0  0  0  0  0  0  0  0
   -2.8679  -52.2606  -27.6717 Cl  0  0  0  0  0  0  0  0  0  0  0  0
    3.2521  -48.5026  -21.2545 O   0  0  0  0  0  0  0  0  0  0  0  0
    4.1059  -48.3502  -20.2212 C   0  0  0  0  0  0  0  0  0  0  0  0
    5.3410  -47.5395  -20.6390 C   0  0  0  0  0  0  0  0  0  0  0  0
    5.7999  -46.8121  -19.3921 C   0  0  0  0  0  0  0  0  0  0  0  0
    4.8940  -45.7707  -19.2005 O   0  0  0  0  0  0  0  0  0  0  0  0
    3.6072  -46.2230  -18.9738 C   0  0  0  0  0  0  0  0  0  0  0  0
    3.4578  -47.7042  -19.0009 C   0  0  0  0  0  0  0  0  0  0  0  0
 17 18  1  0  0  0
 18 19  2  0  0  0
 19 20  1  0  0  0
 20 21  2  0  0  0
 21 15  1  0  0  0
 15  1  1  0  0  0
  1  2  2  0  0  0
  2  3  1  0  0  0
  3  4  2  0  0  0
  4  5  1  0  0  0
  5  6  2  0  0  0
  6  7  1  0  0  0
  7 25  1  0  0  0
 25 26  1  0  0  0
 26 27  1  0  0  0
 27 28  1  0  0  0
 28 29  1  0  0  0
 29 30  1  0  0  0
 30 31  1  0  0  0
  7  8  2  0  0  0
  8  9  1  0  0  0
  9 10  1  0  0  0
 10 11  1  0  0  0
 11 12  1  0  0  0
 12 13  1  0  0  0
 13 14  2  0  0  0
 21 22  1  0  0  0
 22 23  2  0  0  0
 23 24  1  0  0  0
 23 18  1  0  0  0
 14  1  1  0  0  0
 14  5  1  0  0  0
 31 26  1  0  0  0
 13  8  1  0  0  0
 15 16  1  0  0  0
M  END
> <minimizedAffinity>
-7.70078

> <CNNscore>
0.5277006626

> <CNNaffinity>
6.8424057961

> <CNN_VS>
3.6107420921

> <CNNaffinity_variance>
0.4227740169

$$$$
[H]/C(C(=O)N([H])c1c(OC([H])([H])C([H])([H])[H])c([H])c2nc([H])c(C#N)c(N([H])c3c([H])c([H])c(F)c(Cl)c3[H])c2c1[H])=C(/[H])C([H])([H])N(C([H])([H])[H])C([H])([H])[H]


 35 37  0  0  0  0  0  0  0  0999 V2000
   -0.4617  -52.8673  -19.3242 C   0  0  0  0  0  0  0  0  0  0  0  0
   -0.9829  -53.9172  -20.0505 C   0  0  0  0  0  0  0  0  0  0  0  0
   -0.8471  -53.9013  -21.4240 C   0  0  0  0  0  0  0  0  0  0  0  0
   -1.3370  -54.9069  -22.1770 N   0  0  0  0  0  0  0  0  0  0  0  0
   -1.2022  -54.8929  -23.5131 C   0  0  0  0  0  0  0  0  0  0  0  0
   -0.5672  -53.8699  -24.1818 C   0  0  0  0  0  0  0  0  0  0  0  0
   -0.0554  -52.8279  -23.4446 C   0  0  0  0  0  0  0  0  0  0  0  0
   -0.2044  -52.8608  -22.0743 C   0  0  0  0  0  0  0  0  0  0  0  0
    0.3185  -51.8018  -21.3146 C   0  0  0  0  0  0  0  0  0  0  0  0
    0.1972  -51.7934  -19.9482 C   0  0  0  0  0  0  0  0  0  0  0  0
    0.7096  -50.7621  -19.1731 N   0  0  0  0  0  0  0  0  0  0  0  0
    1.9472  -50.5922  -18.5544 C   0  0  0  0  0  0  0  0  0  0  0  0
    2.8507  -51.4518  -18.6368 O   0  0  0  0  0  0  0  0  0  0  0  0
    0.0346  -49.9271  -19.0083 H   0  0  0  0  0  0  0  0  0  0  0  0
    2.2326  -49.3732  -17.7703 C   0  0  0  0  0  0  0  0  0  0  0  0
    1.6056  -49.1463  -16.6423 C   0  0  0  0  0  0  0  0  0  0  0  0
    1.8737  -47.9134  -15.8208 C   0  0  0  0  0  0  0  0  0  0  0  0
    2.4747  -48.2069  -14.5571 N   0  0  0  0  0  0  0  0  0  0  0  0
    3.9055  -48.2475  -14.5614 C   0  0  0  0  0  0  0  0  0  0  0  0
    1.9032  -49.4037  -13.9900 C   0  0  0  0  0  0  0  0  0  0  0  0
   -0.4516  -53.9117  -25.6298 C   0  0  0  0  0  0  0  0  0  0  0  0
   -0.3487  -53.9354  -26.7843 N   0  0  0  0  0  0  0  0  0  0  0  0
    0.6174  -51.7454  -24.0796 N   0  0  0  0  0  0  0  0  0  0  0  0
    0.0038  -51.0236  -24.5067 H   0  0  0  0  0  0  0  0  0  0  0  0
    2.0098  -51.6223  -24.1478 C   0  0  0  0  0  0  0  0  0  0  0  0
    2.7869  -52.7438  -24.2988 C   0  0  0  0  0  0  0  0  0  0  0  0
    4.1602  -52.5836  -24.3676 C   0  0  0  0  0  0  0  0  0  0  0  0
    4.7781  -51.3600  -24.2922 C   0  0  0  0  0  0  0  0  0  0  0  0
    6.1321  -51.2213  -24.3641 F   0  0  0  0  0  0  0  0  0  0  0  0
    3.9939  -50.2373  -24.1404 C   0  0  0  0  0  0  0  0  0  0  0  0
    4.7276  -48.6283  -24.0372 Cl  0  0  0  0  0  0  0  0  0  0  0  0
    2.6266  -50.3941  -24.0714 C   0  0  0  0  0  0  0  0  0  0  0  0
   -0.5586  -52.8127  -17.9434 O   0  0  0  0  0  0  0  0  0  0  0  0
   -2.0231  -51.8739  -16.2489 C   0  0  0  0  0  0  0  0  0  0  0  0
   -1.8545  -52.8455  -17.3765 C   0  0  0  0  0  0  0  0  0  0  0  0
 34 35  1  0  0  0
 35 33  1  0  0  0
 33  1  1  0  0  0
  1  2  2  0  0  0
  2  3  1  0  0  0
  3  4  2  0  0  0
  4  5  1  0  0  0
  5  6  2  0  0  0
  6 21  1  0  0  0
 21 22  3  0  0  0
  6  7  1  0  0  0
  7 23  1  0  0  0
 23 25  1  0  0  0
 25 26  2  0  0  0
 26 27  1  0  0  0
 27 28  2  0  0  0
 28 29  1  0  0  0
 28 30  1  0  0  0
 30 31  1  0  0  0
 30 32  2  0  0  0
  7  8  2  0  0  0
  8  9  1  0  0  0
  9 10  2  0  0  0
 10 11  1  0  0  0
 11 12  1  0  0  0
 12 13  2  0  0  0
 12 15  1  0  0  0
 15 16  2  0  0  0
 16 17  1  0  0  0
 17 18  1  0  0  0
 18 19  1  0  0  0
 18 20  1  0  0  0
 10  1  1  0  0  0
  8  3  1  0  0  0
 32 25  1  0  0  0
 23 24  1  0  0  0
 11 14  1  0  0  0
M  END
> <minimizedAffinity>
-7.42356

> <CNNscore>
0.6641191244

> <CNNaffinity>
7.2496247292

> <CNN_VS>
4.8146142960

> <CNNaffinity_variance>
0.0708480552

$$$$
[H]/C(C(=O)N([H])c1c(OC([H])([H])C([H])([H])[H])c([H])c2nc([H])c(C#N)c(N([H])c3c([H])c([H])c(F)c(Cl)c3[H])c2c1[H])=C(/[H])C([H])([H])N(C([H])([H])[H])C([H])([H])[H]


 35 37  0  0  0  0  0  0  0  0999 V2000
   -0.3432  -52.6458  -19.2940 C   0  0  0  0  0  0  0  0  0  0  0  0
   -0.9013  -53.7103  -19.9701 C   0  0  0  0  0  0  0  0  0  0  0  0
   -0.7822  -53.7547  -21.3445 C   0  0  0  0  0  0  0  0  0  0  0  0
   -1.3082  -54.7768  -22.0495 N   0  0  0  0  0  0  0  0  0  0  0  0
   -1.1896  -54.8216  -23.3864 C   0  0  0  0  0  0  0  0  0  0  0  0
   -0.5358  -53.8447  -24.1042 C   0  0  0  0  0  0  0  0  0  0  0  0
    0.0128  -52.7875  -23.4168 C   0  0  0  0  0  0  0  0  0  0  0  0
   -0.1200  -52.7598  -22.0447 C   0  0  0  0  0  0  0  0  0  0  0  0
    0.4405  -51.6850  -21.3356 C   0  0  0  0  0  0  0  0  0  0  0  0
    0.3364  -51.6170  -19.9694 C   0  0  0  0  0  0  0  0  0  0  0  0
    0.8857  -50.5689  -19.2437 N   0  0  0  0  0  0  0  0  0  0  0  0
    2.1030  -50.4390  -18.5768 C   0  0  0  0  0  0  0  0  0  0  0  0
    2.9453  -51.3621  -18.5530 O   0  0  0  0  0  0  0  0  0  0  0  0
    0.2657  -49.6799  -19.1721 H   0  0  0  0  0  0  0  0  0  0  0  0
    2.4393  -49.1880  -17.8667 C   0  0  0  0  0  0  0  0  0  0  0  0
    2.9715  -48.1796  -18.5122 C   0  0  0  0  0  0  0  0  0  0  0  0
    3.3261  -46.8920  -17.8171 C   0  0  0  0  0  0  0  0  0  0  0  0
    4.2780  -46.1112  -18.5441 N   0  0  0  0  0  0  0  0  0  0  0  0
    4.0952  -46.1005  -19.9637 C   0  0  0  0  0  0  0  0  0  0  0  0
    5.6229  -46.4810  -18.1766 C   0  0  0  0  0  0  0  0  0  0  0  0
   -0.4394  -53.9493  -25.5504 C   0  0  0  0  0  0  0  0  0  0  0  0
   -0.3641  -54.0472  -26.7032 N   0  0  0  0  0  0  0  0  0  0  0  0
    0.7064  -51.7508  -24.1037 N   0  0  0  0  0  0  0  0  0  0  0  0
    0.1070  -51.0556  -24.5908 H   0  0  0  0  0  0  0  0  0  0  0  0
    2.1007  -51.6381  -24.1465 C   0  0  0  0  0  0  0  0  0  0  0  0
    2.8706  -52.7608  -24.3233 C   0  0  0  0  0  0  0  0  0  0  0  0
    4.2460  -52.6107  -24.3657 C   0  0  0  0  0  0  0  0  0  0  0  0
    4.8730  -51.3960  -24.2395 C   0  0  0  0  0  0  0  0  0  0  0  0
    6.2292  -51.2671  -24.2860 F   0  0  0  0  0  0  0  0  0  0  0  0
    4.0961  -50.2720  -24.0620 C   0  0  0  0  0  0  0  0  0  0  0  0
    4.8417  -48.6740  -23.8933 Cl  0  0  0  0  0  0  0  0  0  0  0  0
    2.7266  -50.4187  -24.0193 C   0  0  0  0  0  0  0  0  0  0  0  0
   -0.4215  -52.5317  -17.9156 O   0  0  0  0  0  0  0  0  0  0  0  0
   -2.0301  -51.8235  -16.2398 C   0  0  0  0  0  0  0  0  0  0  0  0
   -1.6669  -52.8116  -17.3054 C   0  0  0  0  0  0  0  0  0  0  0  0
 34 35  1  0  0  0
 35 33  1  0  0  0
 33  1  1  0  0  0
  1  2  2  0  0  0
  2  3  1  0  0  0
  3  4  2  0  0  0
  4  5  1  0  0  0
  5  6  2  0  0  0
  6 21  1  0  0  0
 21 22  3  0  0  0
  6  7  1  0  0  0
  7 23  1  0  0  0
 23 25  1  0  0  0
 25 26  2  0  0  0
 26 27  1  0  0  0
 27 28  2  0  0  0
 28 29  1  0  0  0
 28 30  1  0  0  0
 30 31  1  0  0  0
 30 32  2  0  0  0
  7  8  2  0  0  0
  8  9  1  0  0  0
  9 10  2  0  0  0
 10 11  1  0  0  0
 11 12  1  0  0  0
 12 13  2  0  0  0
 12 15  1  0  0  0
 15 16  2  0  0  0
 16 17  1  0  0  0
 17 18  1  0  0  0
 18 19  1  0  0  0
 18 20  1  0  0  0
 10  1  1  0  0  0
  8  3  1  0  0  0
 32 25  1  0  0  0
 23 24  1  0  0  0
 11 14  1  0  0  0
M  END
> <minimizedAffinity>
-7.29810

> <CNNscore>
0.6207210422

> <CNNaffinity>
7.2970137596

> <CNN_VS>
4.5294098854

> <CNNaffinity_variance>
0.0616214164

$$$$
[H]/C(C(=O)N([H])c1c(OC([H])([H])C([H])([H])[H])c([H])c2nc([H])c(C#N)c(N([H])c3c([H])c([H])c(F)c(Cl)c3[H])c2c1[H])=C(/[H])C([H])([H])N(C([H])([H])[H])C([H])([H])[H]


 35 37  0  0  0  0  0  0  0  0999 V2000
    2.4446  -48.9168  -22.5117 C   0  0  0  0  0  0  0  0  0  0  0  0
    1.4989  -49.3576  -21.6101 C   0  0  0  0  0  0  0  0  0  0  0  0
    0.8853  -50.5729  -21.8383 C   0  0  0  0  0  0  0  0  0  0  0  0
   -0.0432  -51.0478  -20.9836 N   0  0  0  0  0  0  0  0  0  0  0  0
   -0.6378  -52.2315  -21.2041 C   0  0  0  0  0  0  0  0  0  0  0  0
   -0.3405  -53.0167  -22.2959 C   0  0  0  0  0  0  0  0  0  0  0  0
    0.6022  -52.5627  -23.1882 C   0  0  0  0  0  0  0  0  0  0  0  0
    1.2009  -51.3449  -22.9442 C   0  0  0  0  0  0  0  0  0  0  0  0
    2.1669  -50.8762  -23.8494 C   0  0  0  0  0  0  0  0  0  0  0  0
    2.7917  -49.6720  -23.6456 C   0  0  0  0  0  0  0  0  0  0  0  0
    3.7537  -49.1879  -24.5215 N   0  0  0  0  0  0  0  0  0  0  0  0
    5.1183  -49.4478  -24.6378 C   0  0  0  0  0  0  0  0  0  0  0  0
    5.7064  -50.2454  -23.8760 O   0  0  0  0  0  0  0  0  0  0  0  0
    3.3936  -48.4740  -25.2567 H   0  0  0  0  0  0  0  0  0  0  0  0
    5.9232  -48.7781  -25.6798 C   0  0  0  0  0  0  0  0  0  0  0  0
    5.3519  -48.3075  -26.7611 C   0  0  0  0  0  0  0  0  0  0  0  0
    6.1445  -47.6206  -27.8413 C   0  0  0  0  0  0  0  0  0  0  0  0
    5.4342  -47.5275  -29.0786 N   0  0  0  0  0  0  0  0  0  0  0  0
    4.0557  -47.1604  -28.9598 C   0  0  0  0  0  0  0  0  0  0  0  0
    5.6064  -48.7318  -29.8535 C   0  0  0  0  0  0  0  0  0  0  0  0
   -1.0173  -54.2896  -22.4797 C   0  0  0  0  0  0  0  0  0  0  0  0
   -1.5444  -55.3114  -22.6278 N   0  0  0  0  0  0  0  0  0  0  0  0
    0.9561  -53.3336  -24.3320 N   0  0  0  0  0  0  0  0  0  0  0  0
    1.5863  -54.1402  -24.1525 H   0  0  0  0  0  0  0  0  0  0  0  0
    0.5087  -53.0587  -25.6292 C   0  0  0  0  0  0  0  0  0  0  0  0
    1.3945  -53.0910  -26.6773 C   0  0  0  0  0  0  0  0  0  0  0  0
    0.9155  -52.8189  -27.9472 C   0  0  0  0  0  0  0  0  0  0  0  0
   -0.3991  -52.5194  -28.2056 C   0  0  0  0  0  0  0  0  0  0  0  0
   -0.8533  -52.2562  -29.4635 F   0  0  0  0  0  0  0  0  0  0  0  0
   -1.2845  -52.4878  -27.1504 C   0  0  0  0  0  0  0  0  0  0  0  0
   -2.9945  -52.1090  -27.4149 Cl  0  0  0  0  0  0  0  0  0  0  0  0
   -0.8101  -52.7582  -25.8851 C   0  0  0  0  0  0  0  0  0  0  0  0
    3.1028  -47.7087  -22.3504 O   0  0  0  0  0  0  0  0  0  0  0  0
    3.5608  -45.4882  -23.2207 C   0  0  0  0  0  0  0  0  0  0  0  0
    2.5539  -46.5735  -22.9921 C   0  0  0  0  0  0  0  0  0  0  0  0
 34 35  1  0  0  0
 35 33  1  0  0  0
 33  1  1  0  0  0
  1  2  2  0  0  0
  2  3  1  0  0  0
  3  4  2  0  0  0
  4  5  1  0  0  0
  5  6  2  0  0  0
  6 21  1  0  0  0
 21 22  3  0  0  0
  6  7  1  0  0  0
  7 23  1  0  0  0
 23 25  1  0  0  0
 25 26  2  0  0  0
 26 27  1  0  0  0
 27 28  2  0  0  0
 28 29  1  0  0  0
 28 30  1  0  0  0
 30 31  1  0  0  0
 30 32  2  0  0  0
  7  8  2  0  0  0
  8  9  1  0  0  0
  9 10  2  0  0  0
 10 11  1  0  0  0
 11 12  1  0  0  0
 12 13  2  0  0  0
 12 15  1  0  0  0
 15 16  2  0  0  0
 16 17  1  0  0  0
 17 18  1  0  0  0
 18 19  1  0  0  0
 18 20  1  0  0  0
 10  1  1  0  0  0
  8  3  1  0  0  0
 32 25  1  0  0  0
 23 24  1  0  0  0
 11 14  1  0  0  0
M  END
> <minimizedAffinity>
-7.30964

> <CNNscore>
0.5857428908

> <CNNaffinity>
7.3185334206

> <CNN_VS>
4.2867789268

> <CNNaffinity_variance>
0.2674586177

$$$$
[H]/C(C(=O)N([H])c1c(OC([H])([H])C([H])([H])[H])c([H])c2nc([H])c(C#N)c(N([H])c3c([H])c([H])c(F)c(Cl)c3[H])c2c1[H])=C(/[H])C([H])([H])N(C([H])([H])[H])C([H])([H])[H]


 35 37  0  0  0  0  0  0  0  0999 V2000
   -0.0276  -51.9317  -17.8779 C   0  0  0  0  0  0  0  0  0  0  0  0
   -0.7695  -52.9511  -18.4365 C   0  0  0  0  0  0  0  0  0  0  0  0
   -0.7671  -53.0932  -19.8095 C   0  0  0  0  0  0  0  0  0  0  0  0
   -1.4741  -54.0766  -20.4021 N   0  0  0  0  0  0  0  0  0  0  0  0
   -1.4693  -54.2167  -21.7377 C   0  0  0  0  0  0  0  0  0  0  0  0
   -0.7553  -53.3801  -22.5667 C   0  0  0  0  0  0  0  0  0  0  0  0
   -0.0228  -52.3660  -21.9956 C   0  0  0  0  0  0  0  0  0  0  0  0
   -0.0411  -52.2388  -20.6228 C   0  0  0  0  0  0  0  0  0  0  0  0
    0.7071  -51.2075  -20.0323 C   0  0  0  0  0  0  0  0  0  0  0  0
    0.7220  -51.0446  -18.6702 C   0  0  0  0  0  0  0  0  0  0  0  0
    1.4571  -50.0373  -18.0604 N   0  0  0  0  0  0  0  0  0  0  0  0
    2.7532  -50.0140  -17.5479 C   0  0  0  0  0  0  0  0  0  0  0  0
    3.4961  -51.0185  -17.5835 O   0  0  0  0  0  0  0  0  0  0  0  0
    0.9419  -49.0868  -17.9549 H   0  0  0  0  0  0  0  0  0  0  0  0
    3.2962  -48.7833  -16.9373 C   0  0  0  0  0  0  0  0  0  0  0  0
    2.9917  -48.4629  -15.7037 C   0  0  0  0  0  0  0  0  0  0  0  0
    3.5282  -47.2155  -15.0535 C   0  0  0  0  0  0  0  0  0  0  0  0
    2.6835  -46.7251  -14.0094 N   0  0  0  0  0  0  0  0  0  0  0  0
    1.2798  -46.8838  -14.2407 C   0  0  0  0  0  0  0  0  0  0  0  0
    3.0247  -45.3631  -13.6792 C   0  0  0  0  0  0  0  0  0  0  0  0
   -0.7888  -53.5830  -24.0053 C   0  0  0  0  0  0  0  0  0  0  0  0
   -0.8291  -53.7402  -25.1532 N   0  0  0  0  0  0  0  0  0  0  0  0
    0.7407  -51.4737  -22.8009 N   0  0  0  0  0  0  0  0  0  0  0  0
    0.2909  -50.5604  -23.0096 H   0  0  0  0  0  0  0  0  0  0  0  0
    2.0150  -51.7665  -23.2998 C   0  0  0  0  0  0  0  0  0  0  0  0
    3.1082  -51.6736  -22.4748 C   0  0  0  0  0  0  0  0  0  0  0  0
    4.3524  -51.9758  -23.0010 C   0  0  0  0  0  0  0  0  0  0  0  0
    4.5426  -52.3624  -24.3044 C   0  0  0  0  0  0  0  0  0  0  0  0
    5.7755  -52.6582  -24.8047 F   0  0  0  0  0  0  0  0  0  0  0  0
    3.4424  -52.4540  -25.1288 C   0  0  0  0  0  0  0  0  0  0  0  0
    3.6180  -52.9478  -26.8208 Cl  0  0  0  0  0  0  0  0  0  0  0  0
    2.2026  -52.1536  -24.6074 C   0  0  0  0  0  0  0  0  0  0  0  0
    0.0196  -51.7259  -16.5088 O   0  0  0  0  0  0  0  0  0  0  0  0
   -1.6462  -50.2690  -15.5088 C   0  0  0  0  0  0  0  0  0  0  0  0
   -1.2108  -51.6697  -15.8126 C   0  0  0  0  0  0  0  0  0  0  0  0
 34 35  1  0  0  0
 35 33  1  0  0  0
 33  1  1  0  0  0
  1  2  2  0  0  0
  2  3  1  0  0  0
  3  4  2  0  0  0
  4  5  1  0  0  0
  5  6  2  0  0  0
  6 21  1  0  0  0
 21 22  3  0  0  0
  6  7  1  0  0  0
  7 23  1  0  0  0
 23 25  1  0  0  0
 25 26  2  0  0  0
 26 27  1  0  0  0
 27 28  2  0  0  0
 28 29  1  0  0  0
 28 30  1  0  0  0
 30 31  1  0  0  0
 30 32  2  0  0  0
  7  8  2  0  0  0
  8  9  1  0  0  0
  9 10  2  0  0  0
 10 11  1  0  0  0
 11 12  1  0  0  0
 12 13  2  0  0  0
 12 15  1  0  0  0
 15 16  2  0  0  0
 16 17  1  0  0  0
 17 18  1  0  0  0
 18 19  1  0  0  0
 18 20  1  0  0  0
 10  1  1  0  0  0
  8  3  1  0  0  0
 32 25  1  0  0  0
 23 24  1  0  0  0
 11 14  1  0  0  0
M  END
> <minimizedAffinity>
-6.77381

> <CNNscore>
0.5849614143

> <CNNaffinity>
7.1135702133

> <CNN_VS>
4.1611642838

> <CNNaffinity_variance>
0.1659728587

$$$$
[H]/C(C(=O)N([H])c1c(OC([H])([H])C([H])([H])[H])c([H])c2nc([H])c(C#N)c(N([H])c3c([H])c([H])c(F)c(Cl)c3[H])c2c1[H])=C(/[H])C([H])([H])N(C([H])([H])[H])C([H])([H])[H]


 35 37  0  0  0  0  0  0  0  0999 V2000
   -0.6198  -52.3814  -17.9229 C   0  0  0  0  0  0  0  0  0  0  0  0
   -1.1482  -53.3354  -18.7668 C   0  0  0  0  0  0  0  0  0  0  0  0
   -0.8242  -53.2830  -20.1075 C   0  0  0  0  0  0  0  0  0  0  0  0
   -1.3133  -54.1956  -20.9712 N   0  0  0  0  0  0  0  0  0  0  0  0
   -0.9955  -54.1464  -22.2751 C   0  0  0  0  0  0  0  0  0  0  0  0
   -0.1665  -53.1791  -22.7984 C   0  0  0  0  0  0  0  0  0  0  0  0
    0.3504  -52.2323  -21.9455 C   0  0  0  0  0  0  0  0  0  0  0  0
    0.0119  -52.3000  -20.6106 C   0  0  0  0  0  0  0  0  0  0  0  0
    0.5385  -51.3384  -19.7330 C   0  0  0  0  0  0  0  0  0  0  0  0
    0.2323  -51.3681  -18.3960 C   0  0  0  0  0  0  0  0  0  0  0  0
    0.7434  -50.4334  -17.5061 N   0  0  0  0  0  0  0  0  0  0  0  0
    1.9996  -50.3032  -16.9160 C   0  0  0  0  0  0  0  0  0  0  0  0
    2.9258  -51.1094  -17.1489 O   0  0  0  0  0  0  0  0  0  0  0  0
    0.0496  -49.6543  -17.2034 H   0  0  0  0  0  0  0  0  0  0  0  0
    2.2784  -49.1924  -15.9829 C   0  0  0  0  0  0  0  0  0  0  0  0
    1.8532  -47.9810  -16.2454 C   0  0  0  0  0  0  0  0  0  0  0  0
    2.1215  -46.8280  -15.3152 C   0  0  0  0  0  0  0  0  0  0  0  0
    3.0528  -45.8853  -15.8521 N   0  0  0  0  0  0  0  0  0  0  0  0
    3.4114  -46.1002  -17.2211 C   0  0  0  0  0  0  0  0  0  0  0  0
    4.2127  -45.7782  -15.0015 C   0  0  0  0  0  0  0  0  0  0  0  0
    0.1416  -53.1788  -24.2187 C   0  0  0  0  0  0  0  0  0  0  0  0
    0.3802  -53.1911  -25.3531 N   0  0  0  0  0  0  0  0  0  0  0  0
    1.2186  -51.2116  -22.4272 N   0  0  0  0  0  0  0  0  0  0  0  0
    0.7622  -50.4544  -22.9733 H   0  0  0  0  0  0  0  0  0  0  0  0
    2.6001  -51.1906  -22.2041 C   0  0  0  0  0  0  0  0  0  0  0  0
    3.4330  -51.9204  -23.0151 C   0  0  0  0  0  0  0  0  0  0  0  0
    4.7942  -51.8718  -22.7681 C   0  0  0  0  0  0  0  0  0  0  0  0
    5.3471  -51.1304  -21.7536 C   0  0  0  0  0  0  0  0  0  0  0  0
    6.6906  -51.0928  -21.5267 F   0  0  0  0  0  0  0  0  0  0  0  0
    4.5070  -50.3997  -20.9420 C   0  0  0  0  0  0  0  0  0  0  0  0
    5.1556  -49.4212  -19.6154 Cl  0  0  0  0  0  0  0  0  0  0  0  0
    3.1515  -50.4465  -21.1857 C   0  0  0  0  0  0  0  0  0  0  0  0
   -0.8988  -52.3686  -16.5661 O   0  0  0  0  0  0  0  0  0  0  0  0
   -2.2135  -50.9412  -15.1061 C   0  0  0  0  0  0  0  0  0  0  0  0
   -2.2048  -51.9956  -16.1700 C   0  0  0  0  0  0  0  0  0  0  0  0
 34 35  1  0  0  0
 35 33  1  0  0  0
 33  1  1  0  0  0
  1  2  2  0  0  0
  2  3  1  0  0  0
  3  4  2  0  0  0
  4  5  1  0  0  0
  5  6  2  0  0  0
  6 21  1  0  0  0
 21 22  3  0  0  0
  6  7  1  0  0  0
  7 23  1  0  0  0
 23 25  1  0  0  0
 25 26  2  0  0  0
 26 27  1  0  0  0
 27 28  2  0  0  0
 28 29  1  0  0  0
 28 30  1  0  0  0
 30 31  1  0  0  0
 30 32  2  0  0  0
  7  8  2  0  0  0
  8  9  1  0  0  0
  9 10  2  0  0  0
 10 11  1  0  0  0
 11 12  1  0  0  0
 12 13  2  0  0  0
 12 15  1  0  0  0
 15 16  2  0  0  0
 16 17  1  0  0  0
 17 18  1  0  0  0
 18 19  1  0  0  0
 18 20  1  0  0  0
 10  1  1  0  0  0
  8  3  1  0  0  0
 32 25  1  0  0  0
 23 24  1  0  0  0
 11 14  1  0  0  0
M  END
> <minimizedAffinity>
-6.26534

> <CNNscore>
0.4911129475

> <CNNaffinity>
7.0174384117

> <CNN_VS>
3.4463548660

> <CNNaffinity_variance>
0.0856628194

$$$$
[H]/C(C(=O)N([H])c1c(OC([H])([H])C([H])([H])[H])c([H])c2nc([H])c(C#N)c(N([H])c3c([H])c([H])c(F)c(Cl)c3[H])c2c1[H])=C(/[H])C([H])([H])N(C([H])([H])[H])C([H])([H])[H]


 35 37  0  0  0  0  0  0  0  0999 V2000
   -0.6544  -52.6256  -22.2258 C   0  0  0  0  0  0  0  0  0  0  0  0
   -1.0095  -53.5232  -23.2106 C   0  0  0  0  0  0  0  0  0  0  0  0
   -0.3257  -53.4926  -24.4092 C   0  0  0  0  0  0  0  0  0  0  0  0
   -0.6341  -54.3523  -25.4012 N   0  0  0  0  0  0  0  0  0  0  0  0
    0.0333  -54.3245  -26.5661 C   0  0  0  0  0  0  0  0  0  0  0  0
    1.0537  -53.4331  -26.8130 C   0  0  0  0  0  0  0  0  0  0  0  0
    1.3946  -52.5417  -25.8229 C   0  0  0  0  0  0  0  0  0  0  0  0
    0.6972  -52.5862  -24.6343 C   0  0  0  0  0  0  0  0  0  0  0  0
    1.0419  -51.6811  -23.6173 C   0  0  0  0  0  0  0  0  0  0  0  0
    0.3781  -51.6907  -22.4167 C   0  0  0  0  0  0  0  0  0  0  0  0
    0.7022  -50.8110  -21.3929 N   0  0  0  0  0  0  0  0  0  0  0  0
    1.3228  -49.5628  -21.4030 C   0  0  0  0  0  0  0  0  0  0  0  0
    1.7045  -49.0231  -22.4637 O   0  0  0  0  0  0  0  0  0  0  0  0
    0.4297  -51.1414  -20.3947 H   0  0  0  0  0  0  0  0  0  0  0  0
    1.5522  -48.8292  -20.1415 C   0  0  0  0  0  0  0  0  0  0  0  0
    1.4210  -49.4348  -18.9869 C   0  0  0  0  0  0  0  0  0  0  0  0
    1.6473  -48.7148  -17.6842 C   0  0  0  0  0  0  0  0  0  0  0  0
    2.2987  -49.5279  -16.7050 N   0  0  0  0  0  0  0  0  0  0  0  0
    3.1675  -48.8226  -15.8125 C   0  0  0  0  0  0  0  0  0  0  0  0
    2.9622  -50.6439  -17.3334 C   0  0  0  0  0  0  0  0  0  0  0  0
    1.7397  -53.4525  -28.0941 C   0  0  0  0  0  0  0  0  0  0  0  0
    2.2963  -53.4776  -29.1107 N   0  0  0  0  0  0  0  0  0  0  0  0
    2.4456  -51.6008  -26.0174 N   0  0  0  0  0  0  0  0  0  0  0  0
    2.3802  -51.0265  -26.8810 H   0  0  0  0  0  0  0  0  0  0  0  0
    3.5147  -51.4285  -25.1309 C   0  0  0  0  0  0  0  0  0  0  0  0
    4.2048  -52.5235  -24.6737 C   0  0  0  0  0  0  0  0  0  0  0  0
    5.2597  -52.3148  -23.8021 C   0  0  0  0  0  0  0  0  0  0  0  0
    5.6459  -51.0684  -23.3756 C   0  0  0  0  0  0  0  0  0  0  0  0
    6.6891  -50.8819  -22.5183 F   0  0  0  0  0  0  0  0  0  0  0  0
    4.9501  -49.9723  -23.8370 C   0  0  0  0  0  0  0  0  0  0  0  0
    5.3972  -48.3360  -23.3265 Cl  0  0  0  0  0  0  0  0  0  0  0  0
    3.8994  -50.1774  -24.7047 C   0  0  0  0  0  0  0  0  0  0  0  0
   -1.2940  -52.5954  -20.9974 O   0  0  0  0  0  0  0  0  0  0  0  0
    0.3448  -53.9909  -19.8728 C   0  0  0  0  0  0  0  0  0  0  0  0
   -1.1012  -53.6980  -20.1319 C   0  0  0  0  0  0  0  0  0  0  0  0
 34 35  1  0  0  0
 35 33  1  0  0  0
 33  1  1  0  0  0
  1  2  2  0  0  0
  2  3  1  0  0  0
  3  4  2  0  0  0
  4  5  1  0  0  0
  5  6  2  0  0  0
  6 21  1  0  0  0
 21 22  3  0  0  0
  6  7  1  0  0  0
  7 23  1  0  0  0
 23 25  1  0  0  0
 25 26  2  0  0  0
 26 27  1  0  0  0
 27 28  2  0  0  0
 28 29  1  0  0  0
 28 30  1  0  0  0
 30 31  1  0  0  0
 30 32  2  0  0  0
  7  8  2  0  0  0
  8  9  1  0  0  0
  9 10  2  0  0  0
 10 11  1  0  0  0
 11 12  1  0  0  0
 12 13  2  0  0  0
 12 15  1  0  0  0
 15 16  2  0  0  0
 16 17  1  0  0  0
 17 18  1  0  0  0
 18 19  1  0  0  0
 18 20  1  0  0  0
 10  1  1  0  0  0
  8  3  1  0  0  0
 32 25  1  0  0  0
 23 24  1  0  0  0
 11 14  1  0  0  0
M  END
> <minimizedAffinity>
-6.39961

> <CNNscore>
0.3802748322

> <CNNaffinity>
7.2034239769

> <CNN_VS>
2.7392809391

> <CNNaffinity_variance>
0.0713776425

$$$$
[H]/C(C(=O)N([H])c1c(OC([H])([H])C([H])([H])[H])c([H])c2nc([H])c(C#N)c(N([H])c3c([H])c([H])c(F)c(Cl)c3[H])c2c1[H])=C(/[H])C([H])([H])N(C([H])([H])[H])C([H])([H])[H]


 35 37  0  0  0  0  0  0  0  0999 V2000
    0.3811  -52.0562  -26.3670 C   0  0  0  0  0  0  0  0  0  0  0  0
   -0.5185  -52.7708  -25.6043 C   0  0  0  0  0  0  0  0  0  0  0  0
   -0.2687  -52.9185  -24.2548 C   0  0  0  0  0  0  0  0  0  0  0  0
   -1.1206  -53.6057  -23.4672 N   0  0  0  0  0  0  0  0  0  0  0  0
   -0.8791  -53.7468  -22.1537 C   0  0  0  0  0  0  0  0  0  0  0  0
    0.2322  -53.2082  -21.5438 C   0  0  0  0  0  0  0  0  0  0  0  0
    1.1222  -52.5009  -22.3176 C   0  0  0  0  0  0  0  0  0  0  0  0
    0.8564  -52.3677  -23.6639 C   0  0  0  0  0  0  0  0  0  0  0  0
    1.7592  -51.6440  -24.4599 C   0  0  0  0  0  0  0  0  0  0  0  0
    1.5342  -51.4822  -25.8035 C   0  0  0  0  0  0  0  0  0  0  0  0
    2.4073  -50.7673  -26.6120 N   0  0  0  0  0  0  0  0  0  0  0  0
    3.0683  -49.5550  -26.4203 C   0  0  0  0  0  0  0  0  0  0  0  0
    2.9383  -48.8903  -25.3698 O   0  0  0  0  0  0  0  0  0  0  0  0
    2.6249  -51.2217  -27.5743 H   0  0  0  0  0  0  0  0  0  0  0  0
    3.9553  -49.0106  -27.4686 C   0  0  0  0  0  0  0  0  0  0  0  0
    3.6710  -47.8742  -28.0558 C   0  0  0  0  0  0  0  0  0  0  0  0
    4.5543  -47.2934  -29.1278 C   0  0  0  0  0  0  0  0  0  0  0  0
    5.9434  -47.5443  -28.9004 N   0  0  0  0  0  0  0  0  0  0  0  0
    6.5273  -46.7946  -27.8300 C   0  0  0  0  0  0  0  0  0  0  0  0
    6.6907  -47.4052  -30.1263 C   0  0  0  0  0  0  0  0  0  0  0  0
    0.4382  -53.3940  -20.1173 C   0  0  0  0  0  0  0  0  0  0  0  0
    0.5913  -53.5513  -18.9789 N   0  0  0  0  0  0  0  0  0  0  0  0
    2.2855  -51.9152  -21.7420 N   0  0  0  0  0  0  0  0  0  0  0  0
    3.1527  -52.4844  -21.8042 H   0  0  0  0  0  0  0  0  0  0  0  0
    2.3045  -50.6599  -21.1236 C   0  0  0  0  0  0  0  0  0  0  0  0
    1.4834  -49.6606  -21.5834 C   0  0  0  0  0  0  0  0  0  0  0  0
    1.5253  -48.4335  -20.9441 C   0  0  0  0  0  0  0  0  0  0  0  0
    2.3467  -48.1710  -19.8760 C   0  0  0  0  0  0  0  0  0  0  0  0
    2.3727  -46.9567  -19.2574 F   0  0  0  0  0  0  0  0  0  0  0  0
    3.1692  -49.1771  -19.4181 C   0  0  0  0  0  0  0  0  0  0  0  0
    4.2527  -48.9049  -18.0434 Cl  0  0  0  0  0  0  0  0  0  0  0  0
    3.1296  -50.3996  -20.0529 C   0  0  0  0  0  0  0  0  0  0  0  0
    0.1988  -51.8651  -27.7268 O   0  0  0  0  0  0  0  0  0  0  0  0
    1.2691  -53.8736  -28.5743 C   0  0  0  0  0  0  0  0  0  0  0  0
    0.0414  -53.0163  -28.5341 C   0  0  0  0  0  0  0  0  0  0  0  0
 34 35  1  0  0  0
 35 33  1  0  0  0
 33  1  1  0  0  0
  1  2  2  0  0  0
  2  3  1  0  0  0
  3  4  2  0  0  0
  4  5  1  0  0  0
  5  6  2  0  0  0
  6 21  1  0  0  0
 21 22  3  0  0  0
  6  7  1  0  0  0
  7 23  1  0  0  0
 23 25  1  0  0  0
 25 26  2  0  0  0
 26 27  1  0  0  0
 27 28  2  0  0  0
 28 29  1  0  0  0
 28 30  1  0  0  0
 30 31  1  0  0  0
 30 32  2  0  0  0
  7  8  2  0  0  0
  8  9  1  0  0  0
  9 10  2  0  0  0
 10 11  1  0  0  0
 11 12  1  0  0  0
 12 13  2  0  0  0
 12 15  1  0  0  0
 15 16  2  0  0  0
 16 17  1  0  0  0
 17 18  1  0  0  0
 18 19  1  0  0  0
 18 20  1  0  0  0
 10  1  1  0  0  0
  8  3  1  0  0  0
 32 25  1  0  0  0
 23 24  1  0  0  0
 11 14  1  0  0  0
M  END
> <minimizedAffinity>
-5.72656

> <CNNscore>
0.3484235108

> <CNNaffinity>
7.0177001953

> <CNN_VS>
2.4451317787

> <CNNaffinity_variance>
0.3902884722

$$$$
[H]/C(C(=O)N([H])c1c(OC([H])([H])C([H])([H])[H])c([H])c2nc([H])c(C#N)c(N([H])c3c([H])c([H])c(F)c(Cl)c3[H])c2c1[H])=C(/[H])C([H])([H])N(C([H])([H])[H])C([H])([H])[H]


 35 37  0  0  0  0  0  0  0  0999 V2000
    0.3153  -52.0174  -19.4247 C   0  0  0  0  0  0  0  0  0  0  0  0
   -0.5122  -52.6917  -20.2976 C   0  0  0  0  0  0  0  0  0  0  0  0
   -0.0926  -52.8696  -21.6005 C   0  0  0  0  0  0  0  0  0  0  0  0
   -0.8651  -53.5253  -22.4902 N   0  0  0  0  0  0  0  0  0  0  0  0
   -0.4554  -53.7010  -23.7570 C   0  0  0  0  0  0  0  0  0  0  0  0
    0.7555  -53.2311  -24.2148 C   0  0  0  0  0  0  0  0  0  0  0  0
    1.5687  -52.5576  -23.3338 C   0  0  0  0  0  0  0  0  0  0  0  0
    1.1299  -52.3873  -22.0378 C   0  0  0  0  0  0  0  0  0  0  0  0
    1.9564  -51.7034  -21.1316 C   0  0  0  0  0  0  0  0  0  0  0  0
    1.5631  -51.5132  -19.8312 C   0  0  0  0  0  0  0  0  0  0  0  0
    2.3629  -50.8457  -18.9136 N   0  0  0  0  0  0  0  0  0  0  0  0
    2.5271  -49.4889  -18.6392 C   0  0  0  0  0  0  0  0  0  0  0  0
    1.8954  -48.6077  -19.2610 O   0  0  0  0  0  0  0  0  0  0  0  0
    2.9808  -51.4831  -18.2876 H   0  0  0  0  0  0  0  0  0  0  0  0
    3.4671  -49.0444  -17.5899 C   0  0  0  0  0  0  0  0  0  0  0  0
    3.0559  -48.2772  -16.6105 C   0  0  0  0  0  0  0  0  0  0  0  0
    3.9893  -47.8070  -15.5268 C   0  0  0  0  0  0  0  0  0  0  0  0
    3.7277  -46.4641  -15.1113 N   0  0  0  0  0  0  0  0  0  0  0  0
    2.6435  -46.3157  -14.1885 C   0  0  0  0  0  0  0  0  0  0  0  0
    3.5834  -45.5986  -16.2562 C   0  0  0  0  0  0  0  0  0  0  0  0
    1.1441  -53.4535  -25.5974 C   0  0  0  0  0  0  0  0  0  0  0  0
    1.4653  -53.6389  -26.6958 N   0  0  0  0  0  0  0  0  0  0  0  0
    2.8350  -52.0544  -23.7474 N   0  0  0  0  0  0  0  0  0  0  0  0
    3.6458  -52.6810  -23.5740 H   0  0  0  0  0  0  0  0  0  0  0  0
    3.0210  -50.8052  -24.3503 C   0  0  0  0  0  0  0  0  0  0  0  0
    3.2032  -50.7239  -25.7085 C   0  0  0  0  0  0  0  0  0  0  0  0
    3.3790  -49.4713  -26.2710 C   0  0  0  0  0  0  0  0  0  0  0  0
    3.3795  -48.3117  -25.5363 C   0  0  0  0  0  0  0  0  0  0  0  0
    3.5519  -47.0864  -26.1080 F   0  0  0  0  0  0  0  0  0  0  0  0
    3.1964  -48.3983  -24.1734 C   0  0  0  0  0  0  0  0  0  0  0  0
    3.1856  -46.9405  -23.1673 Cl  0  0  0  0  0  0  0  0  0  0  0  0
    3.0214  -49.6441  -23.6109 C   0  0  0  0  0  0  0  0  0  0  0  0
   -0.0365  -51.7999  -18.1026 O   0  0  0  0  0  0  0  0  0  0  0  0
   -1.7750  -51.9659  -16.4150 C   0  0  0  0  0  0  0  0  0  0  0  0
   -1.0503  -52.6189  -17.5519 C   0  0  0  0  0  0  0  0  0  0  0  0
 34 35  1  0  0  0
 35 33  1  0  0  0
 33  1  1  0  0  0
  1  2  2  0  0  0
  2  3  1  0  0  0
  3  4  2  0  0  0
  4  5  1  0  0  0
  5  6  2  0  0  0
  6 21  1  0  0  0
 21 22  3  0  0  0
  6  7  1  0  0  0
  7 23  1  0  0  0
 23 25  1  0  0  0
 25 26  2  0  0  0
 26 27  1  0  0  0
 27 28  2  0  0  0
 28 29  1  0  0  0
 28 30  1  0  0  0
 30 31  1  0  0  0
 30 32  2  0  0  0
  7  8  2  0  0  0
  8  9  1  0  0  0
  9 10  2  0  0  0
 10 11  1  0  0  0
 11 12  1  0  0  0
 12 13  2  0  0  0
 12 15  1  0  0  0
 15 16  2  0  0  0
 16 17  1  0  0  0
 17 18  1  0  0  0
 18 19  1  0  0  0
 18 20  1  0  0  0
 10  1  1  0  0  0
  8  3  1  0  0  0
 32 25  1  0  0  0
 23 24  1  0  0  0
 11 14  1  0  0  0
M  END
> <minimizedAffinity>
-6.06843

> <CNNscore>
0.3100288510

> <CNNaffinity>
7.0686883926

> <CNN_VS>
2.1914973259

> <CNNaffinity_variance>
0.3978130221

$$$$
[H]/C(C(=O)N([H])c1c(OC([H])([H])C([H])([H])[H])c([H])c2nc([H])c(C#N)c(N([H])c3c([H])c([H])c(F)c(Cl)c3[H])c2c1[H])=C(/[H])C([H])([H])N(C([H])([H])[H])C([H])([H])[H]


 35 37  0  0  0  0  0  0  0  0999 V2000
    0.8575  -52.1874  -24.5368 C   0  0  0  0  0  0  0  0  0  0  0  0
   -0.3049  -52.6457  -23.9535 C   0  0  0  0  0  0  0  0  0  0  0  0
   -0.3721  -52.7083  -22.5762 C   0  0  0  0  0  0  0  0  0  0  0  0
   -1.4884  -53.1463  -21.9596 N   0  0  0  0  0  0  0  0  0  0  0  0
   -1.5548  -53.2042  -20.6195 C   0  0  0  0  0  0  0  0  0  0  0  0
   -0.5064  -52.8268  -19.8099 C   0  0  0  0  0  0  0  0  0  0  0  0
    0.6477  -52.3750  -20.4058 C   0  0  0  0  0  0  0  0  0  0  0  0
    0.6960  -52.3233  -21.7828 C   0  0  0  0  0  0  0  0  0  0  0  0
    1.8701  -51.8600  -22.3983 C   0  0  0  0  0  0  0  0  0  0  0  0
    1.9627  -51.7877  -23.7651 C   0  0  0  0  0  0  0  0  0  0  0  0
    3.1091  -51.3285  -24.3989 N   0  0  0  0  0  0  0  0  0  0  0  0
    3.6867  -50.0618  -24.4697 C   0  0  0  0  0  0  0  0  0  0  0  0
    3.1797  -49.0715  -23.9002 O   0  0  0  0  0  0  0  0  0  0  0  0
    3.6700  -52.0817  -24.9448 H   0  0  0  0  0  0  0  0  0  0  0  0
    4.9339  -49.8478  -25.2320 C   0  0  0  0  0  0  0  0  0  0  0  0
    5.2457  -48.6548  -25.6754 C   0  0  0  0  0  0  0  0  0  0  0  0
    6.5087  -48.4044  -26.4556 C   0  0  0  0  0  0  0  0  0  0  0  0
    6.2959  -47.5923  -27.6129 N   0  0  0  0  0  0  0  0  0  0  0  0
    5.8766  -46.2506  -27.3429 C   0  0  0  0  0  0  0  0  0  0  0  0
    5.4145  -48.2557  -28.5422 C   0  0  0  0  0  0  0  0  0  0  0  0
   -0.6389  -52.9112  -18.3652 C   0  0  0  0  0  0  0  0  0  0  0  0
   -0.7304  -52.9760  -17.2113 N   0  0  0  0  0  0  0  0  0  0  0  0
    1.7625  -51.9646  -19.6207 N   0  0  0  0  0  0  0  0  0  0  0  0
    2.3517  -52.7320  -19.2414 H   0  0  0  0  0  0  0  0  0  0  0  0
    2.0801  -50.6283  -19.3522 C   0  0  0  0  0  0  0  0  0  0  0  0
    1.4987  -49.9904  -18.2848 C   0  0  0  0  0  0  0  0  0  0  0  0
    1.8403  -48.6703  -18.0464 C   0  0  0  0  0  0  0  0  0  0  0  0
    2.7300  -47.9726  -18.8250 C   0  0  0  0  0  0  0  0  0  0  0  0
    3.0561  -46.6733  -18.5737 F   0  0  0  0  0  0  0  0  0  0  0  0
    3.3109  -48.6170  -19.8954 C   0  0  0  0  0  0  0  0  0  0  0  0
    4.4677  -47.7748  -20.9396 Cl  0  0  0  0  0  0  0  0  0  0  0  0
    2.9724  -49.9312  -20.1350 C   0  0  0  0  0  0  0  0  0  0  0  0
    1.0002  -52.0960  -25.9116 O   0  0  0  0  0  0  0  0  0  0  0  0
    0.3087  -53.9187  -27.3598 C   0  0  0  0  0  0  0  0  0  0  0  0
   -0.0438  -52.6140  -26.7138 C   0  0  0  0  0  0  0  0  0  0  0  0
 34 35  1  0  0  0
 35 33  1  0  0  0
 33  1  1  0  0  0
  1  2  2  0  0  0
  2  3  1  0  0  0
  3  4  2  0  0  0
  4  5  1  0  0  0
  5  6  2  0  0  0
  6 21  1  0  0  0
 21 22  3  0  0  0
  6  7  1  0  0  0
  7 23  1  0  0  0
 23 25  1  0  0  0
 25 26  2  0  0  0
 26 27  1  0  0  0
 27 28  2  0  0  0
 28 29  1  0  0  0
 28 30  1  0  0  0
 30 31  1  0  0  0
 30 32  2  0  0  0
  7  8  2  0  0  0
  8  9  1  0  0  0
  9 10  2  0  0  0
 10 11  1  0  0  0
 11 12  1  0  0  0
 12 13  2  0  0  0
 12 15  1  0  0  0
 15 16  2  0  0  0
 16 17  1  0  0  0
 17 18  1  0  0  0
 18 19  1  0  0  0
 18 20  1  0  0  0
 10  1  1  0  0  0
  8  3  1  0  0  0
 32 25  1  0  0  0
 23 24  1  0  0  0
 11 14  1  0  0  0
M  END
> <minimizedAffinity>
-5.58575

> <CNNscore>
0.2793284953

> <CNNaffinity>
7.1230530739

> <CNN_VS>
1.9896717072

> <CNNaffinity_variance>
0.3203660548

$$$$
[H]C([H])=C([H])C(=O)N([H])c1c([H])c([H])c([H])c(Oc2nc(N([H])c3c([H])c([H])c(N4C([H])([H])C([H])([H])N(C(=O)C(F)(F)F)C([H])([H])C4([H])[H])c([H])c3OC([H])([H])[H])nc([H])c2Cl)c1[H]


 42 45  0  0  0  0  0  0  0  0999 V2000
   -1.5888  -53.3101  -18.2738 N   0  0  0  0  0  0  0  0  0  0  0  0
   -1.9907  -54.2690  -18.6063 H   0  0  0  0  0  0  0  0  0  0  0  0
   -2.1817  -52.8285  -17.1161 C   0  0  0  0  0  0  0  0  0  0  0  0
   -3.4568  -52.9388  -16.7686 N   0  0  0  0  0  0  0  0  0  0  0  0
   -3.9968  -52.4636  -15.6428 C   0  0  0  0  0  0  0  0  0  0  0  0
   -3.1748  -51.8014  -14.7587 C   0  0  0  0  0  0  0  0  0  0  0  0
   -3.8201  -51.1566  -13.2710 Cl  0  0  0  0  0  0  0  0  0  0  0  0
   -1.8393  -51.6536  -15.0623 C   0  0  0  0  0  0  0  0  0  0  0  0
   -1.3912  -52.1646  -16.2151 N   0  0  0  0  0  0  0  0  0  0  0  0
   -0.9718  -50.9809  -14.1778 O   0  0  0  0  0  0  0  0  0  0  0  0
    0.3929  -51.0464  -14.3132 C   0  0  0  0  0  0  0  0  0  0  0  0
    1.1657  -52.0012  -13.7054 C   0  0  0  0  0  0  0  0  0  0  0  0
    2.5350  -51.9810  -13.9052 C   0  0  0  0  0  0  0  0  0  0  0  0
    3.1421  -51.0460  -14.6849 C   0  0  0  0  0  0  0  0  0  0  0  0
    2.3596  -50.0540  -15.3199 C   0  0  0  0  0  0  0  0  0  0  0  0
    1.0136  -50.0771  -15.1200 C   0  0  0  0  0  0  0  0  0  0  0  0
    3.0114  -49.0768  -16.0999 N   0  0  0  0  0  0  0  0  0  0  0  0
    3.7290  -49.3626  -17.2662 C   0  0  0  0  0  0  0  0  0  0  0  0
    3.8650  -50.5048  -17.7155 O   0  0  0  0  0  0  0  0  0  0  0  0
    2.9361  -48.0527  -15.7557 H   0  0  0  0  0  0  0  0  0  0  0  0
    4.3820  -48.2782  -18.0449 C   0  0  0  0  0  0  0  0  0  0  0  0
    4.6978  -47.1215  -17.5028 C   0  0  0  0  0  0  0  0  0  0  0  0
   -0.3135  -53.2413  -20.3243 C   0  0  0  0  0  0  0  0  0  0  0  0
    0.6726  -52.7202  -21.1354 C   0  0  0  0  0  0  0  0  0  0  0  0
    1.4679  -51.6693  -20.7434 C   0  0  0  0  0  0  0  0  0  0  0  0
    1.2272  -51.1627  -19.4933 C   0  0  0  0  0  0  0  0  0  0  0  0
    0.2209  -51.6863  -18.6517 C   0  0  0  0  0  0  0  0  0  0  0  0
   -0.5655  -52.7272  -19.0429 C   0  0  0  0  0  0  0  0  0  0  0  0
    2.4639  -51.1503  -21.6143 N   0  0  0  0  0  0  0  0  0  0  0  0
    2.6375  -51.5795  -22.9923 C   0  0  0  0  0  0  0  0  0  0  0  0
    4.0005  -52.2306  -23.0729 C   0  0  0  0  0  0  0  0  0  0  0  0
    5.0444  -51.2935  -22.6560 N   0  0  0  0  0  0  0  0  0  0  0  0
    4.8701  -50.6149  -21.4132 C   0  0  0  0  0  0  0  0  0  0  0  0
    3.4314  -50.1255  -21.1909 C   0  0  0  0  0  0  0  0  0  0  0  0
    6.1568  -51.1040  -23.4814 C   0  0  0  0  0  0  0  0  0  0  0  0
    6.2762  -51.7379  -24.5877 O   0  0  0  0  0  0  0  0  0  0  0  0
    7.2492  -50.1616  -23.1158 C   0  0  0  0  0  0  0  0  0  0  0  0
    6.7791  -48.8570  -22.9857 F   0  0  0  0  0  0  0  0  0  0  0  0
    8.3348  -50.2486  -23.9672 F   0  0  0  0  0  0  0  0  0  0  0  0
    7.7586  -50.4729  -21.8519 F   0  0  0  0  0  0  0  0  0  0  0  0
   -1.0616  -54.7116  -22.0935 C   0  0  0  0  0  0  0  0  0  0  0  0
   -1.1093  -54.3039  -20.7355 O   0  0  0  0  0  0  0  0  0  0  0  0
 41 42  1  0  0  0
 42 23  1  0  0  0
 23 24  2  0  0  0
 24 25  1  0  0  0
 25 26  2  0  0  0
 26 27  1  0  0  0
 27 28  2  0  0  0
 28  1  1  0  0  0
  1  3  1  0  0  0
  3  4  2  0  0  0
  4  5  1  0  0  0
  5  6  2  0  0  0
  6  7  1  0  0  0
  6  8  1  0  0  0
  8 10  1  0  0  0
 10 11  1  0  0  0
 11 12  2  0  0  0
 12 13  1  0  0  0
 13 14  2  0  0  0
 14 15  1  0  0  0
 15 17  1  0  0  0
 17 18  1  0  0  0
 18 19  2  0  0  0
 18 21  1  0  0  0
 21 22  2  0  0  0
 15 16  2  0  0  0
  8  9  2  0  0  0
 25 29  1  0  0  0
 29 30  1  0  0  0
 30 31  1  0  0  0
 31 32  1  0  0  0
 32 33  1  0  0  0
 33 34  1  0  0  0
 32 35  1  0  0  0
 35 36  2  0  0  0
 35 37  1  0  0  0
 37 38  1  0  0  0
 37 39  1  0  0  0
 37 40  1  0  0  0
 28 23  1  0  0  0
  9  3  1  0  0  0
 34 29  1  0  0  0
 16 11  1  0  0  0
  1  2  1  0  0  0
 17 20  1  0  0  0
M  END
> <minimizedAffinity>
-7.15648

> <CNNscore>
0.2591123879

> <CNNaffinity>
6.9893827438

> <CNN_VS>
1.8110356331

> <CNNaffinity_variance>
0.1454987675

$$$$
[H]C([H])=C([H])C(=O)N([H])c1c([H])c([H])c([H])c(Oc2nc(N([H])c3c([H])c([H])c(N4C([H])([H])C([H])([H])N(C(=O)C(F)(F)F)C([H])([H])C4([H])[H])c([H])c3OC([H])([H])[H])nc([H])c2Cl)c1[H]


 42 45  0  0  0  0  0  0  0  0999 V2000
   -1.1917  -53.3140  -18.4595 N   0  0  0  0  0  0  0  0  0  0  0  0
   -1.7981  -54.2064  -18.6253 H   0  0  0  0  0  0  0  0  0  0  0  0
   -1.4237  -52.7017  -17.2368 C   0  0  0  0  0  0  0  0  0  0  0  0
   -2.6020  -52.4133  -16.7009 N   0  0  0  0  0  0  0  0  0  0  0  0
   -2.7913  -51.8229  -15.5176 C   0  0  0  0  0  0  0  0  0  0  0  0
   -1.6808  -51.4785  -14.7799 C   0  0  0  0  0  0  0  0  0  0  0  0
   -1.8616  -50.7038  -13.2266 Cl  0  0  0  0  0  0  0  0  0  0  0  0
   -0.4275  -51.7517  -15.2821 C   0  0  0  0  0  0  0  0  0  0  0  0
   -0.3397  -52.3463  -16.4778 N   0  0  0  0  0  0  0  0  0  0  0  0
    0.7290  -51.4117  -14.5511 O   0  0  0  0  0  0  0  0  0  0  0  0
    1.5275  -50.3545  -14.9108 C   0  0  0  0  0  0  0  0  0  0  0  0
    2.4681  -49.8035  -14.0799 C   0  0  0  0  0  0  0  0  0  0  0  0
    3.2237  -48.7381  -14.5375 C   0  0  0  0  0  0  0  0  0  0  0  0
    3.0660  -48.2176  -15.7845 C   0  0  0  0  0  0  0  0  0  0  0  0
    2.1004  -48.7745  -16.6547 C   0  0  0  0  0  0  0  0  0  0  0  0
    1.3592  -49.8215  -16.2004 C   0  0  0  0  0  0  0  0  0  0  0  0
    1.9326  -48.2015  -17.9321 N   0  0  0  0  0  0  0  0  0  0  0  0
    2.7265  -48.5200  -19.0390 C   0  0  0  0  0  0  0  0  0  0  0  0
    3.6576  -49.3299  -18.9945 O   0  0  0  0  0  0  0  0  0  0  0  0
    1.1351  -47.4764  -18.0370 H   0  0  0  0  0  0  0  0  0  0  0  0
    2.4841  -47.8835  -20.3600 C   0  0  0  0  0  0  0  0  0  0  0  0
    1.4997  -48.2612  -21.1473 C   0  0  0  0  0  0  0  0  0  0  0  0
   -0.4447  -53.5041  -20.7489 C   0  0  0  0  0  0  0  0  0  0  0  0
    0.3941  -53.1775  -21.7937 C   0  0  0  0  0  0  0  0  0  0  0  0
    1.4233  -52.2761  -21.6562 C   0  0  0  0  0  0  0  0  0  0  0  0
    1.5730  -51.7145  -20.4155 C   0  0  0  0  0  0  0  0  0  0  0  0
    0.7218  -52.0394  -19.3362 C   0  0  0  0  0  0  0  0  0  0  0  0
   -0.2970  -52.9326  -19.4756 C   0  0  0  0  0  0  0  0  0  0  0  0
    2.2570  -51.9544  -22.7613 N   0  0  0  0  0  0  0  0  0  0  0  0
    3.6897  -51.7312  -22.6564 C   0  0  0  0  0  0  0  0  0  0  0  0
    3.9307  -50.2882  -23.0406 C   0  0  0  0  0  0  0  0  0  0  0  0
    3.4334  -50.0250  -24.3917 N   0  0  0  0  0  0  0  0  0  0  0  0
    2.0981  -50.4236  -24.6973 C   0  0  0  0  0  0  0  0  0  0  0  0
    1.7368  -51.8042  -24.1296 C   0  0  0  0  0  0  0  0  0  0  0  0
    4.2758  -49.4007  -25.3164 C   0  0  0  0  0  0  0  0  0  0  0  0
    5.4671  -49.0545  -24.9986 O   0  0  0  0  0  0  0  0  0  0  0  0
    3.8308  -49.1105  -26.7066 C   0  0  0  0  0  0  0  0  0  0  0  0
    2.8766  -48.0963  -26.7386 F   0  0  0  0  0  0  0  0  0  0  0  0
    3.4181  -50.2442  -27.3813 F   0  0  0  0  0  0  0  0  0  0  0  0
    4.8933  -48.6091  -27.4638 F   0  0  0  0  0  0  0  0  0  0  0  0
   -1.7734  -54.9087  -22.2025 C   0  0  0  0  0  0  0  0  0  0  0  0
   -1.4808  -54.4173  -20.9042 O   0  0  0  0  0  0  0  0  0  0  0  0
 41 42  1  0  0  0
 42 23  1  0  0  0
 23 24  2  0  0  0
 24 25  1  0  0  0
 25 26  2  0  0  0
 26 27  1  0  0  0
 27 28  2  0  0  0
 28  1  1  0  0  0
  1  3  1  0  0  0
  3  4  2  0  0  0
  4  5  1  0  0  0
  5  6  2  0  0  0
  6  7  1  0  0  0
  6  8  1  0  0  0
  8 10  1  0  0  0
 10 11  1  0  0  0
 11 12  2  0  0  0
 12 13  1  0  0  0
 13 14  2  0  0  0
 14 15  1  0  0  0
 15 17  1  0  0  0
 17 18  1  0  0  0
 18 19  2  0  0  0
 18 21  1  0  0  0
 21 22  2  0  0  0
 15 16  2  0  0  0
  8  9  2  0  0  0
 25 29  1  0  0  0
 29 30  1  0  0  0
 30 31  1  0  0  0
 31 32  1  0  0  0
 32 33  1  0  0  0
 33 34  1  0  0  0
 32 35  1  0  0  0
 35 36  2  0  0  0
 35 37  1  0  0  0
 37 38  1  0  0  0
 37 39  1  0  0  0
 37 40  1  0  0  0
 28 23  1  0  0  0
  9  3  1  0  0  0
 34 29  1  0  0  0
 16 11  1  0  0  0
  1  2  1  0  0  0
 17 20  1  0  0  0
M  END
> <minimizedAffinity>
-7.32033

> <CNNscore>
0.2503489852

> <CNNaffinity>
6.9887971878

> <CNN_VS>
1.7496383190

> <CNNaffinity_variance>
0.1068363935

$$$$
[H]C([H])=C([H])C(=O)N([H])c1c([H])c([H])c([H])c(Oc2nc(N([H])c3c([H])c([H])c(N4C([H])([H])C([H])([H])N(C(=O)C(F)(F)F)C([H])([H])C4([H])[H])c([H])c3OC([H])([H])[H])nc([H])c2Cl)c1[H]


 42 45  0  0  0  0  0  0  0  0999 V2000
   -1.8950  -53.5004  -18.2710 N   0  0  0  0  0  0  0  0  0  0  0  0
   -2.1907  -54.4932  -18.6152 H   0  0  0  0  0  0  0  0  0  0  0  0
   -2.6468  -53.0340  -17.2028 C   0  0  0  0  0  0  0  0  0  0  0  0
   -3.7831  -53.5426  -16.7458 N   0  0  0  0  0  0  0  0  0  0  0  0
   -4.4833  -53.0689  -15.7114 C   0  0  0  0  0  0  0  0  0  0  0  0
   -3.9986  -51.9604  -15.0537 C   0  0  0  0  0  0  0  0  0  0  0  0
   -4.8676  -51.2932  -13.6953 Cl  0  0  0  0  0  0  0  0  0  0  0  0
   -2.8220  -51.3852  -15.4804 C   0  0  0  0  0  0  0  0  0  0  0  0
   -2.1921  -51.9323  -16.5267 N   0  0  0  0  0  0  0  0  0  0  0  0
   -2.2995  -50.2499  -14.8280 O   0  0  0  0  0  0  0  0  0  0  0  0
   -0.9618  -49.9438  -14.8684 C   0  0  0  0  0  0  0  0  0  0  0  0
   -0.4724  -48.7687  -15.3765 C   0  0  0  0  0  0  0  0  0  0  0  0
    0.8950  -48.5554  -15.3717 C   0  0  0  0  0  0  0  0  0  0  0  0
    1.7719  -49.4716  -14.8798 C   0  0  0  0  0  0  0  0  0  0  0  0
    1.2839  -50.6891  -14.3514 C   0  0  0  0  0  0  0  0  0  0  0  0
   -0.0613  -50.8952  -14.3587 C   0  0  0  0  0  0  0  0  0  0  0  0
    2.2115  -51.6375  -13.8735 N   0  0  0  0  0  0  0  0  0  0  0  0
    2.4122  -51.9158  -12.5173 C   0  0  0  0  0  0  0  0  0  0  0  0
    1.7979  -51.3457  -11.6104 O   0  0  0  0  0  0  0  0  0  0  0  0
    2.7889  -52.1692  -14.6196 H   0  0  0  0  0  0  0  0  0  0  0  0
    3.4009  -52.9385  -12.0868 C   0  0  0  0  0  0  0  0  0  0  0  0
    4.5401  -53.1191  -12.7202 C   0  0  0  0  0  0  0  0  0  0  0  0
   -0.5644  -53.2271  -20.2686 C   0  0  0  0  0  0  0  0  0  0  0  0
    0.4598  -52.6468  -20.9870 C   0  0  0  0  0  0  0  0  0  0  0  0
    1.2797  -51.6822  -20.4505 C   0  0  0  0  0  0  0  0  0  0  0  0
    1.0233  -51.3246  -19.1529 C   0  0  0  0  0  0  0  0  0  0  0  0
   -0.0219  -51.9103  -18.4049 C   0  0  0  0  0  0  0  0  0  0  0  0
   -0.8326  -52.8655  -18.9392 C   0  0  0  0  0  0  0  0  0  0  0  0
    2.3153  -51.0971  -21.2283 N   0  0  0  0  0  0  0  0  0  0  0  0
    2.4691  -51.3050  -22.6588 C   0  0  0  0  0  0  0  0  0  0  0  0
    3.7847  -52.0264  -22.8508 C   0  0  0  0  0  0  0  0  0  0  0  0
    4.8874  -51.2447  -22.2898 N   0  0  0  0  0  0  0  0  0  0  0  0
    4.7510  -50.7692  -20.9517 C   0  0  0  0  0  0  0  0  0  0  0  0
    3.3477  -50.2249  -20.6461 C   0  0  0  0  0  0  0  0  0  0  0  0
    6.0162  -50.9994  -23.0774 C   0  0  0  0  0  0  0  0  0  0  0  0
    6.0998  -51.4496  -24.2733 O   0  0  0  0  0  0  0  0  0  0  0  0
    7.1680  -50.2075  -22.5663 C   0  0  0  0  0  0  0  0  0  0  0  0
    6.8116  -48.8837  -22.3203 F   0  0  0  0  0  0  0  0  0  0  0  0
    8.2857  -50.3115  -23.3731 F   0  0  0  0  0  0  0  0  0  0  0  0
    7.5781  -50.6919  -21.3209 F   0  0  0  0  0  0  0  0  0  0  0  0
   -1.1643  -54.5967  -22.1700 C   0  0  0  0  0  0  0  0  0  0  0  0
   -1.3846  -54.2010  -20.8256 O   0  0  0  0  0  0  0  0  0  0  0  0
 41 42  1  0  0  0
 42 23  1  0  0  0
 23 24  2  0  0  0
 24 25  1  0  0  0
 25 26  2  0  0  0
 26 27  1  0  0  0
 27 28  2  0  0  0
 28  1  1  0  0  0
  1  3  1  0  0  0
  3  4  2  0  0  0
  4  5  1  0  0  0
  5  6  2  0  0  0
  6  7  1  0  0  0
  6  8  1  0  0  0
  8 10  1  0  0  0
 10 11  1  0  0  0
 11 12  2  0  0  0
 12 13  1  0  0  0
 13 14  2  0  0  0
 14 15  1  0  0  0
 15 17  1  0  0  0
 17 18  1  0  0  0
 18 19  2  0  0  0
 18 21  1  0  0  0
 21 22  2  0  0  0
 15 16  2  0  0  0
  8  9  2  0  0  0
 25 29  1  0  0  0
 29 30  1  0  0  0
 30 31  1  0  0  0
 31 32  1  0  0  0
 32 33  1  0  0  0
 33 34  1  0  0  0
 32 35  1  0  0  0
 35 36  2  0  0  0
 35 37  1  0  0  0
 37 38  1  0  0  0
 37 39  1  0  0  0
 37 40  1  0  0  0
 28 23  1  0  0  0
  9  3  1  0  0  0
 34 29  1  0  0  0
 16 11  1  0  0  0
  1  2  1  0  0  0
 17 20  1  0  0  0
M  END
> <minimizedAffinity>
-7.53230

> <CNNscore>
0.2500718236

> <CNNaffinity>
6.9389214516

> <CNN_VS>
1.7352287769

> <CNNaffinity_variance>
0.1268319786

$$$$
[H]C([H])=C([H])C(=O)N([H])c1c([H])c([H])c([H])c(Oc2nc(N([H])c3c([H])c([H])c(N4C([H])([H])C([H])([H])N(C(=O)C(F)(F)F)C([H])([H])C4([H])[H])c([H])c3OC([H])([H])[H])nc([H])c2Cl)c1[H]


 42 45  0  0  0  0  0  0  0  0999 V2000
    3.7213  -52.1213  -26.2329 N   0  0  0  0  0  0  0  0  0  0  0  0
    4.4331  -52.3389  -27.0314 H   0  0  0  0  0  0  0  0  0  0  0  0
    2.3951  -52.2554  -26.6165 C   0  0  0  0  0  0  0  0  0  0  0  0
    1.9387  -52.4797  -27.8413 N   0  0  0  0  0  0  0  0  0  0  0  0
    0.6519  -52.6053  -28.1775 C   0  0  0  0  0  0  0  0  0  0  0  0
   -0.2923  -52.4955  -27.1812 C   0  0  0  0  0  0  0  0  0  0  0  0
   -1.9896  -52.6492  -27.5564 Cl  0  0  0  0  0  0  0  0  0  0  0  0
    0.1184  -52.2625  -25.8872 C   0  0  0  0  0  0  0  0  0  0  0  0
    1.4305  -52.1514  -25.6489 N   0  0  0  0  0  0  0  0  0  0  0  0
   -0.8236  -52.1452  -24.8448 O   0  0  0  0  0  0  0  0  0  0  0  0
   -0.6984  -52.8508  -23.6737 C   0  0  0  0  0  0  0  0  0  0  0  0
   -0.8286  -54.2130  -23.5969 C   0  0  0  0  0  0  0  0  0  0  0  0
   -0.6843  -54.8309  -22.3670 C   0  0  0  0  0  0  0  0  0  0  0  0
   -0.4173  -54.1334  -21.2300 C   0  0  0  0  0  0  0  0  0  0  0  0
   -0.2794  -52.7274  -21.2915 C   0  0  0  0  0  0  0  0  0  0  0  0
   -0.4228  -52.1238  -22.5027 C   0  0  0  0  0  0  0  0  0  0  0  0
   -0.0318  -52.0205  -20.0968 N   0  0  0  0  0  0  0  0  0  0  0  0
    1.2470  -51.7910  -19.5784 C   0  0  0  0  0  0  0  0  0  0  0  0
    2.2803  -52.1975  -20.1188 O   0  0  0  0  0  0  0  0  0  0  0  0
   -0.8985  -51.6421  -19.5692 H   0  0  0  0  0  0  0  0  0  0  0  0
    1.4330  -51.0264  -18.3176 C   0  0  0  0  0  0  0  0  0  0  0  0
    0.4215  -50.4843  -17.6736 C   0  0  0  0  0  0  0  0  0  0  0  0
    4.5811  -50.4065  -24.7646 C   0  0  0  0  0  0  0  0  0  0  0  0
    5.0922  -49.9697  -23.5605 C   0  0  0  0  0  0  0  0  0  0  0  0
    5.2976  -50.8177  -22.4979 C   0  0  0  0  0  0  0  0  0  0  0  0
    4.9650  -52.1314  -22.7000 C   0  0  0  0  0  0  0  0  0  0  0  0
    4.4408  -52.5932  -23.9276 C   0  0  0  0  0  0  0  0  0  0  0  0
    4.2382  -51.7506  -24.9784 C   0  0  0  0  0  0  0  0  0  0  0  0
    5.8123  -50.3262  -21.2677 N   0  0  0  0  0  0  0  0  0  0  0  0
    4.9799  -49.8832  -20.1613 C   0  0  0  0  0  0  0  0  0  0  0  0
    5.2534  -48.4066  -19.9799 C   0  0  0  0  0  0  0  0  0  0  0  0
    6.6752  -48.1741  -19.7223 N   0  0  0  0  0  0  0  0  0  0  0  0
    7.6175  -48.7669  -20.6144 C   0  0  0  0  0  0  0  0  0  0  0  0
    7.2550  -50.2080  -21.0027 C   0  0  0  0  0  0  0  0  0  0  0  0
    7.0480  -47.3894  -18.6268 C   0  0  0  0  0  0  0  0  0  0  0  0
    6.1685  -46.8715  -17.8534 O   0  0  0  0  0  0  0  0  0  0  0  0
    8.4768  -47.1204  -18.3090 C   0  0  0  0  0  0  0  0  0  0  0  0
    9.2050  -48.3008  -18.1809 F   0  0  0  0  0  0  0  0  0  0  0  0
    8.6317  -46.2843  -17.2191 F   0  0  0  0  0  0  0  0  0  0  0  0
    9.0932  -46.4475  -19.3678 F   0  0  0  0  0  0  0  0  0  0  0  0
    3.3290  -48.5860  -25.7489 C   0  0  0  0  0  0  0  0  0  0  0  0
    4.3791  -49.5364  -25.8293 O   0  0  0  0  0  0  0  0  0  0  0  0
 41 42  1  0  0  0
 42 23  1  0  0  0
 23 24  2  0  0  0
 24 25  1  0  0  0
 25 26  2  0  0  0
 26 27  1  0  0  0
 27 28  2  0  0  0
 28  1  1  0  0  0
  1  3  1  0  0  0
  3  4  2  0  0  0
  4  5  1  0  0  0
  5  6  2  0  0  0
  6  7  1  0  0  0
  6  8  1  0  0  0
  8 10  1  0  0  0
 10 11  1  0  0  0
 11 12  2  0  0  0
 12 13  1  0  0  0
 13 14  2  0  0  0
 14 15  1  0  0  0
 15 17  1  0  0  0
 17 18  1  0  0  0
 18 19  2  0  0  0
 18 21  1  0  0  0
 21 22  2  0  0  0
 15 16  2  0  0  0
  8  9  2  0  0  0
 25 29  1  0  0  0
 29 30  1  0  0  0
 30 31  1  0  0  0
 31 32  1  0  0  0
 32 33  1  0  0  0
 33 34  1  0  0  0
 32 35  1  0  0  0
 35 36  2  0  0  0
 35 37  1  0  0  0
 37 38  1  0  0  0
 37 39  1  0  0  0
 37 40  1  0  0  0
 28 23  1  0  0  0
  9  3  1  0  0  0
 34 29  1  0  0  0
 16 11  1  0  0  0
  1  2  1  0  0  0
 17 20  1  0  0  0
M  END
> <minimizedAffinity>
-8.02487

> <CNNscore>
0.1459535807

> <CNNaffinity>
6.6589889526

> <CNN_VS>
0.9719032645

> <CNNaffinity_variance>
0.5769264102

$$$$
[H]C([H])=C([H])C(=O)N([H])c1c([H])c([H])c([H])c(Oc2nc(N([H])c3c([H])c([H])c(N4C([H])([H])C([H])([H])N(C(=O)C(F)(F)F)C([H])([H])C4([H])[H])c([H])c3OC([H])([H])[H])nc([H])c2Cl)c1[H]


 42 45  0  0  0  0  0  0  0  0999 V2000
    4.8645  -51.7708  -22.1551 N   0  0  0  0  0  0  0  0  0  0  0  0
    5.1155  -52.8249  -22.2867 H   0  0  0  0  0  0  0  0  0  0  0  0
    3.8269  -51.5524  -21.2610 C   0  0  0  0  0  0  0  0  0  0  0  0
    3.9341  -51.2621  -19.9714 N   0  0  0  0  0  0  0  0  0  0  0  0
    2.9120  -51.0559  -19.1361 C   0  0  0  0  0  0  0  0  0  0  0  0
    1.6340  -51.1487  -19.6401 C   0  0  0  0  0  0  0  0  0  0  0  0
    0.2568  -50.8909  -18.5998 Cl  0  0  0  0  0  0  0  0  0  0  0  0
    1.4559  -51.4475  -20.9730 C   0  0  0  0  0  0  0  0  0  0  0  0
    2.5425  -51.6373  -21.7307 N   0  0  0  0  0  0  0  0  0  0  0  0
    0.1602  -51.5494  -21.5193 O   0  0  0  0  0  0  0  0  0  0  0  0
   -0.2476  -52.6625  -22.2118 C   0  0  0  0  0  0  0  0  0  0  0  0
   -0.5742  -53.8485  -21.6074 C   0  0  0  0  0  0  0  0  0  0  0  0
   -0.9743  -54.9135  -22.3954 C   0  0  0  0  0  0  0  0  0  0  0  0
   -1.0554  -54.8249  -23.7504 C   0  0  0  0  0  0  0  0  0  0  0  0
   -0.7226  -53.6085  -24.3902 C   0  0  0  0  0  0  0  0  0  0  0  0
   -0.3289  -52.5641  -23.6116 C   0  0  0  0  0  0  0  0  0  0  0  0
   -0.7852  -53.5467  -25.7975 N   0  0  0  0  0  0  0  0  0  0  0  0
    0.3080  -53.7859  -26.6370 C   0  0  0  0  0  0  0  0  0  0  0  0
    1.4356  -54.0653  -26.2183 O   0  0  0  0  0  0  0  0  0  0  0  0
   -1.7470  -53.2992  -26.2293 H   0  0  0  0  0  0  0  0  0  0  0  0
    0.1649  -53.7141  -28.1145 C   0  0  0  0  0  0  0  0  0  0  0  0
   -0.7100  -52.9203  -28.6940 C   0  0  0  0  0  0  0  0  0  0  0  0
    5.0646  -50.3285  -24.0826 C   0  0  0  0  0  0  0  0  0  0  0  0
    5.7330  -49.3992  -24.8517 C   0  0  0  0  0  0  0  0  0  0  0  0
    6.9653  -48.9021  -24.4984 C   0  0  0  0  0  0  0  0  0  0  0  0
    7.4992  -49.3829  -23.3318 C   0  0  0  0  0  0  0  0  0  0  0  0
    6.8263  -50.3348  -22.5341 C   0  0  0  0  0  0  0  0  0  0  0  0
    5.6055  -50.8252  -22.8866 C   0  0  0  0  0  0  0  0  0  0  0  0
    7.6157  -47.9336  -25.3102 N   0  0  0  0  0  0  0  0  0  0  0  0
    9.0089  -48.0213  -25.7157 C   0  0  0  0  0  0  0  0  0  0  0  0
    9.7167  -46.8427  -25.0849 C   0  0  0  0  0  0  0  0  0  0  0  0
    9.1013  -45.5847  -25.5099 N   0  0  0  0  0  0  0  0  0  0  0  0
    7.6854  -45.4625  -25.3850 C   0  0  0  0  0  0  0  0  0  0  0  0
    6.9316  -46.7309  -25.8113 C   0  0  0  0  0  0  0  0  0  0  0  0
    9.9155  -44.5658  -26.0137 C   0  0  0  0  0  0  0  0  0  0  0  0
   11.1840  -44.7156  -26.1041 O   0  0  0  0  0  0  0  0  0  0  0  0
    9.3496  -43.2660  -26.4667 C   0  0  0  0  0  0  0  0  0  0  0  0
    8.3672  -43.4447  -27.4378 F   0  0  0  0  0  0  0  0  0  0  0  0
   10.3248  -42.3694  -26.8618 F   0  0  0  0  0  0  0  0  0  0  0  0
    8.6837  -42.6312  -25.4144 F   0  0  0  0  0  0  0  0  0  0  0  0
    3.4505  -50.7934  -25.8232 C   0  0  0  0  0  0  0  0  0  0  0  0
    3.8192  -50.8212  -24.4535 O   0  0  0  0  0  0  0  0  0  0  0  0
 41 42  1  0  0  0
 42 23  1  0  0  0
 23 24  2  0  0  0
 24 25  1  0  0  0
 25 26  2  0  0  0
 26 27  1  0  0  0
 27 28  2  0  0  0
 28  1  1  0  0  0
  1  3  1  0  0  0
  3  4  2  0  0  0
  4  5  1  0  0  0
  5  6  2  0  0  0
  6  7  1  0  0  0
  6  8  1  0  0  0
  8 10  1  0  0  0
 10 11  1  0  0  0
 11 12  2  0  0  0
 12 13  1  0  0  0
 13 14  2  0  0  0
 14 15  1  0  0  0
 15 17  1  0  0  0
 17 18  1  0  0  0
 18 19  2  0  0  0
 18 21  1  0  0  0
 21 22  2  0  0  0
 15 16  2  0  0  0
  8  9  2  0  0  0
 25 29  1  0  0  0
 29 30  1  0  0  0
 30 31  1  0  0  0
 31 32  1  0  0  0
 32 33  1  0  0  0
 33 34  1  0  0  0
 32 35  1  0  0  0
 35 36  2  0  0  0
 35 37  1  0  0  0
 37 38  1  0  0  0
 37 39  1  0  0  0
 37 40  1  0  0  0
 28 23  1  0  0  0
  9  3  1  0  0  0
 34 29  1  0  0  0
 16 11  1  0  0  0
  1  2  1  0  0  0
 17 20  1  0  0  0
M  END
> <minimizedAffinity>
-7.28026

> <CNNscore>
0.1021870226

> <CNNaffinity>
6.4617385864

> <CNN_VS>
0.6603057981

> <CNNaffinity_variance>
0.1728088558

$$$$
[H]C([H])=C([H])C(=O)N([H])c1c([H])c([H])c([H])c(Oc2nc(N([H])c3c([H])c([H])c(N4C([H])([H])C([H])([H])N(C(=O)C(F)(F)F)C([H])([H])C4([H])[H])c([H])c3OC([H])([H])[H])nc([H])c2Cl)c1[H]


 42 45  0  0  0  0  0  0  0  0999 V2000
   -0.4982  -52.5404  -22.9143 N   0  0  0  0  0  0  0  0  0  0  0  0
   -1.5114  -52.8643  -22.6693 H   0  0  0  0  0  0  0  0  0  0  0  0
   -0.1082  -52.8595  -24.2066 C   0  0  0  0  0  0  0  0  0  0  0  0
   -0.8960  -53.2206  -25.2104 N   0  0  0  0  0  0  0  0  0  0  0  0
   -0.4875  -53.5207  -26.4465 C   0  0  0  0  0  0  0  0  0  0  0  0
    0.8609  -53.4548  -26.7176 C   0  0  0  0  0  0  0  0  0  0  0  0
    1.4575  -53.8358  -28.3127 Cl  0  0  0  0  0  0  0  0  0  0  0  0
    1.7318  -53.0858  -25.7162 C   0  0  0  0  0  0  0  0  0  0  0  0
    1.2270  -52.8038  -24.5093 N   0  0  0  0  0  0  0  0  0  0  0  0
    3.1179  -53.0086  -25.9620 O   0  0  0  0  0  0  0  0  0  0  0  0
    3.9157  -52.0906  -25.3252 C   0  0  0  0  0  0  0  0  0  0  0  0
    4.9030  -52.4358  -24.4395 C   0  0  0  0  0  0  0  0  0  0  0  0
    5.6534  -51.4338  -23.8495 C   0  0  0  0  0  0  0  0  0  0  0  0
    5.4458  -50.1164  -24.1179 C   0  0  0  0  0  0  0  0  0  0  0  0
    4.4315  -49.7427  -25.0297 C   0  0  0  0  0  0  0  0  0  0  0  0
    3.6956  -50.7312  -25.6069 C   0  0  0  0  0  0  0  0  0  0  0  0
    4.2133  -48.3708  -25.2716 N   0  0  0  0  0  0  0  0  0  0  0  0
    3.4904  -47.5342  -24.4146 C   0  0  0  0  0  0  0  0  0  0  0  0
    2.9671  -47.9263  -23.3670 O   0  0  0  0  0  0  0  0  0  0  0  0
    4.6415  -47.9648  -26.1796 H   0  0  0  0  0  0  0  0  0  0  0  0
    3.3101  -46.0928  -24.7288 C   0  0  0  0  0  0  0  0  0  0  0  0
    2.3770  -45.3640  -24.1546 C   0  0  0  0  0  0  0  0  0  0  0  0
    0.3554  -52.4738  -20.6554 C   0  0  0  0  0  0  0  0  0  0  0  0
    1.0588  -51.8775  -19.6300 C   0  0  0  0  0  0  0  0  0  0  0  0
    1.6832  -50.6613  -19.7767 C   0  0  0  0  0  0  0  0  0  0  0  0
    1.5687  -50.0675  -21.0061 C   0  0  0  0  0  0  0  0  0  0  0  0
    0.8515  -50.6662  -22.0655 C   0  0  0  0  0  0  0  0  0  0  0  0
    0.2342  -51.8712  -21.9172 C   0  0  0  0  0  0  0  0  0  0  0  0
    2.4115  -50.0863  -18.7002 N   0  0  0  0  0  0  0  0  0  0  0  0
    3.5307  -50.7385  -18.0405 C   0  0  0  0  0  0  0  0  0  0  0  0
    3.1051  -50.9830  -16.6097 C   0  0  0  0  0  0  0  0  0  0  0  0
    2.7439  -49.7236  -15.9575 N   0  0  0  0  0  0  0  0  0  0  0  0
    1.8218  -48.8678  -16.6303 C   0  0  0  0  0  0  0  0  0  0  0  0
    2.0869  -48.7650  -18.1397 C   0  0  0  0  0  0  0  0  0  0  0  0
    3.3090  -49.4142  -14.7166 C   0  0  0  0  0  0  0  0  0  0  0  0
    4.1295  -50.2140  -14.1448 O   0  0  0  0  0  0  0  0  0  0  0  0
    2.9857  -48.1475  -14.0053 C   0  0  0  0  0  0  0  0  0  0  0  0
    3.7538  -47.9956  -12.8534 F   0  0  0  0  0  0  0  0  0  0  0  0
    1.6328  -48.0052  -13.7595 F   0  0  0  0  0  0  0  0  0  0  0  0
    3.3249  -47.0450  -14.7946 F   0  0  0  0  0  0  0  0  0  0  0  0
   -1.5993  -53.7370  -19.9964 C   0  0  0  0  0  0  0  0  0  0  0  0
   -0.2701  -53.7039  -20.4912 O   0  0  0  0  0  0  0  0  0  0  0  0
 41 42  1  0  0  0
 42 23  1  0  0  0
 23 24  2  0  0  0
 24 25  1  0  0  0
 25 26  2  0  0  0
 26 27  1  0  0  0
 27 28  2  0  0  0
 28  1  1  0  0  0
  1  3  1  0  0  0
  3  4  2  0  0  0
  4  5  1  0  0  0
  5  6  2  0  0  0
  6  7  1  0  0  0
  6  8  1  0  0  0
  8 10  1  0  0  0
 10 11  1  0  0  0
 11 12  2  0  0  0
 12 13  1  0  0  0
 13 14  2  0  0  0
 14 15  1  0  0  0
 15 17  1  0  0  0
 17 18  1  0  0  0
 18 19  2  0  0  0
 18 21  1  0  0  0
 21 22  2  0  0  0
 15 16  2  0  0  0
  8  9  2  0  0  0
 25 29  1  0  0  0
 29 30  1  0  0  0
 30 31  1  0  0  0
 31 32  1  0  0  0
 32 33  1  0  0  0
 33 34  1  0  0  0
 32 35  1  0  0  0
 35 36  2  0  0  0
 35 37  1  0  0  0
 37 38  1  0  0  0
 37 39  1  0  0  0
 37 40  1  0  0  0
 28 23  1  0  0  0
  9  3  1  0  0  0
 34 29  1  0  0  0
 16 11  1  0  0  0
  1  2  1  0  0  0
 17 20  1  0  0  0
M  END
> <minimizedAffinity>
-7.21655

> <CNNscore>
0.0999021903

> <CNNaffinity>
6.8552460670

> <CNN_VS>
0.6848540902

> <CNNaffinity_variance>
0.2013374120

$$$$
[H]C([H])=C([H])C(=O)N([H])c1c([H])c([H])c([H])c(Oc2nc(N([H])c3c([H])c([H])c(N4C([H])([H])C([H])([H])N(C(=O)C(F)(F)F)C([H])([H])C4([H])[H])c([H])c3OC([H])([H])[H])nc([H])c2Cl)c1[H]


 42 45  0  0  0  0  0  0  0  0999 V2000
    2.0633  -50.5321  -23.8380 N   0  0  0  0  0  0  0  0  0  0  0  0
    1.9116  -50.2603  -24.8842 H   0  0  0  0  0  0  0  0  0  0  0  0
    1.1589  -51.4738  -23.3699 C   0  0  0  0  0  0  0  0  0  0  0  0
    0.1658  -52.0313  -24.0494 N   0  0  0  0  0  0  0  0  0  0  0  0
   -0.6887  -52.9385  -23.5681 C   0  0  0  0  0  0  0  0  0  0  0  0
   -0.5398  -53.3390  -22.2591 C   0  0  0  0  0  0  0  0  0  0  0  0
   -1.6247  -54.5204  -21.5714 Cl  0  0  0  0  0  0  0  0  0  0  0  0
    0.4736  -52.7965  -21.5001 C   0  0  0  0  0  0  0  0  0  0  0  0
    1.2796  -51.8937  -22.0712 N   0  0  0  0  0  0  0  0  0  0  0  0
    0.6524  -53.1860  -20.1570 O   0  0  0  0  0  0  0  0  0  0  0  0
    0.3108  -52.3622  -19.1131 C   0  0  0  0  0  0  0  0  0  0  0  0
   -0.6436  -52.6810  -18.1826 C   0  0  0  0  0  0  0  0  0  0  0  0
   -0.9153  -51.7810  -17.1670 C   0  0  0  0  0  0  0  0  0  0  0  0
   -0.2677  -50.5896  -17.0590 C   0  0  0  0  0  0  0  0  0  0  0  0
    0.7203  -50.2451  -18.0103 C   0  0  0  0  0  0  0  0  0  0  0  0
    0.9837  -51.1327  -19.0078 C   0  0  0  0  0  0  0  0  0  0  0  0
    1.3588  -48.9930  -17.8973 N   0  0  0  0  0  0  0  0  0  0  0  0
    2.4688  -48.7558  -17.0797 C   0  0  0  0  0  0  0  0  0  0  0  0
    2.9871  -49.6248  -16.3718 O   0  0  0  0  0  0  0  0  0  0  0  0
    0.9479  -48.1844  -18.4890 H   0  0  0  0  0  0  0  0  0  0  0  0
    3.0980  -47.4107  -17.0193 C   0  0  0  0  0  0  0  0  0  0  0  0
    4.2742  -47.2140  -16.4631 C   0  0  0  0  0  0  0  0  0  0  0  0
    4.4240  -50.3768  -23.3494 C   0  0  0  0  0  0  0  0  0  0  0  0
    5.5062  -49.8137  -22.7064 C   0  0  0  0  0  0  0  0  0  0  0  0
    5.3754  -48.7628  -21.8294 C   0  0  0  0  0  0  0  0  0  0  0  0
    4.1017  -48.3005  -21.6260 C   0  0  0  0  0  0  0  0  0  0  0  0
    2.9839  -48.8673  -22.2773 C   0  0  0  0  0  0  0  0  0  0  0  0
    3.1168  -49.9081  -23.1458 C   0  0  0  0  0  0  0  0  0  0  0  0
    6.5172  -48.1999  -21.1977 N   0  0  0  0  0  0  0  0  0  0  0  0
    7.8707  -48.6984  -21.3791 C   0  0  0  0  0  0  0  0  0  0  0  0
    8.3282  -49.2051  -20.0293 C   0  0  0  0  0  0  0  0  0  0  0  0
    8.2677  -48.1370  -19.0306 N   0  0  0  0  0  0  0  0  0  0  0  0
    7.0512  -47.4002  -18.9191 C   0  0  0  0  0  0  0  0  0  0  0  0
    6.4308  -47.0525  -20.2804 C   0  0  0  0  0  0  0  0  0  0  0  0
    9.3899  -47.8856  -18.2354 C   0  0  0  0  0  0  0  0  0  0  0  0
   10.4612  -48.5750  -18.3651 O   0  0  0  0  0  0  0  0  0  0  0  0
    9.3927  -46.8106  -17.2062 C   0  0  0  0  0  0  0  0  0  0  0  0
    8.4164  -47.0263  -16.2365 F   0  0  0  0  0  0  0  0  0  0  0  0
    9.3177  -45.5452  -17.7576 F   0  0  0  0  0  0  0  0  0  0  0  0
   10.5953  -46.8210  -16.4939 F   0  0  0  0  0  0  0  0  0  0  0  0
    5.6981  -52.2922  -24.0971 C   0  0  0  0  0  0  0  0  0  0  0  0
    4.5730  -51.4387  -24.2335 O   0  0  0  0  0  0  0  0  0  0  0  0
 41 42  1  0  0  0
 42 23  1  0  0  0
 23 24  2  0  0  0
 24 25  1  0  0  0
 25 26  2  0  0  0
 26 27  1  0  0  0
 27 28  2  0  0  0
 28  1  1  0  0  0
  1  3  1  0  0  0
  3  4  2  0  0  0
  4  5  1  0  0  0
  5  6  2  0  0  0
  6  7  1  0  0  0
  6  8  1  0  0  0
  8 10  1  0  0  0
 10 11  1  0  0  0
 11 12  2  0  0  0
 12 13  1  0  0  0
 13 14  2  0  0  0
 14 15  1  0  0  0
 15 17  1  0  0  0
 17 18  1  0  0  0
 18 19  2  0  0  0
 18 21  1  0  0  0
 21 22  2  0  0  0
 15 16  2  0  0  0
  8  9  2  0  0  0
 25 29  1  0  0  0
 29 30  1  0  0  0
 30 31  1  0  0  0
 31 32  1  0  0  0
 32 33  1  0  0  0
 33 34  1  0  0  0
 32 35  1  0  0  0
 35 36  2  0  0  0
 35 37  1  0  0  0
 37 38  1  0  0  0
 37 39  1  0  0  0
 37 40  1  0  0  0
 28 23  1  0  0  0
  9  3  1  0  0  0
 34 29  1  0  0  0
 16 11  1  0  0  0
  1  2  1  0  0  0
 17 20  1  0  0  0
M  END
> <minimizedAffinity>
-6.57612

> <CNNscore>
0.0971367210

> <CNNaffinity>
6.4669504166

> <CNN_VS>
0.6281783581

> <CNNaffinity_variance>
0.1774883568

$$$$
[H]C([H])=C([H])C(=O)N([H])c1c([H])c([H])c([H])c(Oc2nc(N([H])c3c([H])c([H])c(N4C([H])([H])C([H])([H])N(C(=O)C(F)(F)F)C([H])([H])C4([H])[H])c([H])c3OC([H])([H])[H])nc([H])c2Cl)c1[H]


 42 45  0  0  0  0  0  0  0  0999 V2000
    4.4625  -52.3672  -25.4450 N   0  0  0  0  0  0  0  0  0  0  0  0
    5.3629  -52.7733  -25.9097 H   0  0  0  0  0  0  0  0  0  0  0  0
    3.2974  -52.6577  -26.1392 C   0  0  0  0  0  0  0  0  0  0  0  0
    3.2015  -53.0876  -27.3901 N   0  0  0  0  0  0  0  0  0  0  0  0
    2.0609  -53.3600  -28.0303 C   0  0  0  0  0  0  0  0  0  0  0  0
    0.8772  -53.1850  -27.3488 C   0  0  0  0  0  0  0  0  0  0  0  0
   -0.6462  -53.5229  -28.1301 Cl  0  0  0  0  0  0  0  0  0  0  0  0
    0.9100  -52.7404  -26.0455 C   0  0  0  0  0  0  0  0  0  0  0  0
    2.1021  -52.4941  -25.4896 N   0  0  0  0  0  0  0  0  0  0  0  0
   -0.2845  -52.5515  -25.3208 O   0  0  0  0  0  0  0  0  0  0  0  0
   -0.5162  -53.1913  -24.1284 C   0  0  0  0  0  0  0  0  0  0  0  0
   -0.8661  -54.5133  -24.0379 C   0  0  0  0  0  0  0  0  0  0  0  0
   -1.0782  -55.0655  -22.7867 C   0  0  0  0  0  0  0  0  0  0  0  0
   -0.9513  -54.3418  -21.6418 C   0  0  0  0  0  0  0  0  0  0  0  0
   -0.5905  -52.9766  -21.7171 C   0  0  0  0  0  0  0  0  0  0  0  0
   -0.3836  -52.4375  -22.9494 C   0  0  0  0  0  0  0  0  0  0  0  0
   -0.4930  -52.2372  -20.5204 N   0  0  0  0  0  0  0  0  0  0  0  0
    0.7179  -51.9308  -19.8906 C   0  0  0  0  0  0  0  0  0  0  0  0
    1.8170  -52.2906  -20.3236 O   0  0  0  0  0  0  0  0  0  0  0  0
   -1.4238  -51.8967  -20.0841 H   0  0  0  0  0  0  0  0  0  0  0  0
    0.7449  -51.1360  -18.6351 C   0  0  0  0  0  0  0  0  0  0  0  0
   -0.1107  -51.3448  -17.6575 C   0  0  0  0  0  0  0  0  0  0  0  0
    4.6119  -50.2339  -24.3213 C   0  0  0  0  0  0  0  0  0  0  0  0
    4.7544  -49.4514  -23.1947 C   0  0  0  0  0  0  0  0  0  0  0  0
    4.9069  -49.9909  -21.9392 C   0  0  0  0  0  0  0  0  0  0  0  0
    4.9099  -51.3590  -21.8656 C   0  0  0  0  0  0  0  0  0  0  0  0
    4.7651  -52.1732  -23.0107 C   0  0  0  0  0  0  0  0  0  0  0  0
    4.6140  -51.6358  -24.2531 C   0  0  0  0  0  0  0  0  0  0  0  0
    5.0358  -49.1505  -20.8004 N   0  0  0  0  0  0  0  0  0  0  0  0
    4.7417  -49.5771  -19.4422 C   0  0  0  0  0  0  0  0  0  0  0  0
    3.5732  -48.7401  -18.9706 C   0  0  0  0  0  0  0  0  0  0  0  0
    3.9001  -47.3152  -19.0379 N   0  0  0  0  0  0  0  0  0  0  0  0
    4.4327  -46.8130  -20.2624 C   0  0  0  0  0  0  0  0  0  0  0  0
    5.4735  -47.7487  -20.8950 C   0  0  0  0  0  0  0  0  0  0  0  0
    3.6790  -46.5133  -17.9141 C   0  0  0  0  0  0  0  0  0  0  0  0
    3.1940  -47.0043  -16.8354 O   0  0  0  0  0  0  0  0  0  0  0  0
    3.9953  -45.0591  -17.9180 C   0  0  0  0  0  0  0  0  0  0  0  0
    5.3045  -44.8199  -18.3288 F   0  0  0  0  0  0  0  0  0  0  0  0
    3.7003  -44.4467  -16.7142 F   0  0  0  0  0  0  0  0  0  0  0  0
    3.2097  -44.3919  -18.8621 F   0  0  0  0  0  0  0  0  0  0  0  0
    3.3066  -48.8893  -25.8508 C   0  0  0  0  0  0  0  0  0  0  0  0
    4.4586  -49.6731  -25.5836 O   0  0  0  0  0  0  0  0  0  0  0  0
 41 42  1  0  0  0
 42 23  1  0  0  0
 23 24  2  0  0  0
 24 25  1  0  0  0
 25 26  2  0  0  0
 26 27  1  0  0  0
 27 28  2  0  0  0
 28  1  1  0  0  0
  1  3  1  0  0  0
  3  4  2  0  0  0
  4  5  1  0  0  0
  5  6  2  0  0  0
  6  7  1  0  0  0
  6  8  1  0  0  0
  8 10  1  0  0  0
 10 11  1  0  0  0
 11 12  2  0  0  0
 12 13  1  0  0  0
 13 14  2  0  0  0
 14 15  1  0  0  0
 15 17  1  0  0  0
 17 18  1  0  0  0
 18 19  2  0  0  0
 18 21  1  0  0  0
 21 22  2  0  0  0
 15 16  2  0  0  0
  8  9  2  0  0  0
 25 29  1  0  0  0
 29 30  1  0  0  0
 30 31  1  0  0  0
 31 32  1  0  0  0
 32 33  1  0  0  0
 33 34  1  0  0  0
 32 35  1  0  0  0
 35 36  2  0  0  0
 35 37  1  0  0  0
 37 38  1  0  0  0
 37 39  1  0  0  0
 37 40  1  0  0  0
 28 23  1  0  0  0
  9  3  1  0  0  0
 34 29  1  0  0  0
 16 11  1  0  0  0
  1  2  1  0  0  0
 17 20  1  0  0  0
M  END
> <minimizedAffinity>
-8.05000

> <CNNscore>
0.0850308910

> <CNNaffinity>
6.5242705345

> <CNN_VS>
0.5547645092

> <CNNaffinity_variance>
0.6888071299

$$$$
[H]C([H])=C([H])C(=O)N([H])c1c([H])c([H])c([H])c(Oc2nc(N([H])c3c([H])c([H])c(N4C([H])([H])C([H])([H])N(C(=O)C(F)(F)F)C([H])([H])C4([H])[H])c([H])c3OC([H])([H])[H])nc([H])c2Cl)c1[H]


 42 45  0  0  0  0  0  0  0  0999 V2000
   -0.4949  -52.2224  -22.2965 N   0  0  0  0  0  0  0  0  0  0  0  0
   -1.5280  -52.5375  -22.4545 H   0  0  0  0  0  0  0  0  0  0  0  0
    0.2952  -52.3119  -23.4330 C   0  0  0  0  0  0  0  0  0  0  0  0
   -0.0825  -52.0929  -24.6852 N   0  0  0  0  0  0  0  0  0  0  0  0
    0.7057  -52.1866  -25.7598 C   0  0  0  0  0  0  0  0  0  0  0  0
    2.0230  -52.5391  -25.5688 C   0  0  0  0  0  0  0  0  0  0  0  0
    3.1032  -52.6791  -26.9322 Cl  0  0  0  0  0  0  0  0  0  0  0  0
    2.4771  -52.7799  -24.2908 C   0  0  0  0  0  0  0  0  0  0  0  0
    1.6111  -52.6605  -23.2775 N   0  0  0  0  0  0  0  0  0  0  0  0
    3.8202  -53.1424  -24.0620 O   0  0  0  0  0  0  0  0  0  0  0  0
    4.7394  -52.2449  -23.5777 C   0  0  0  0  0  0  0  0  0  0  0  0
    4.7377  -51.7873  -22.2858 C   0  0  0  0  0  0  0  0  0  0  0  0
    5.7088  -50.8820  -21.8951 C   0  0  0  0  0  0  0  0  0  0  0  0
    6.6665  -50.4297  -22.7487 C   0  0  0  0  0  0  0  0  0  0  0  0
    6.6831  -50.8920  -24.0850 C   0  0  0  0  0  0  0  0  0  0  0  0
    5.7260  -51.7815  -24.4653 C   0  0  0  0  0  0  0  0  0  0  0  0
    7.6663  -50.3884  -24.9614 N   0  0  0  0  0  0  0  0  0  0  0  0
    7.5196  -49.2113  -25.7028 C   0  0  0  0  0  0  0  0  0  0  0  0
    6.5056  -48.5076  -25.6635 O   0  0  0  0  0  0  0  0  0  0  0  0
    8.5798  -50.9639  -25.0468 H   0  0  0  0  0  0  0  0  0  0  0  0
    8.6046  -48.7345  -26.5996 C   0  0  0  0  0  0  0  0  0  0  0  0
    9.5441  -49.5391  -27.0485 C   0  0  0  0  0  0  0  0  0  0  0  0
    0.5333  -50.5595  -20.8776 C   0  0  0  0  0  0  0  0  0  0  0  0
    0.9180  -50.0691  -19.6474 C   0  0  0  0  0  0  0  0  0  0  0  0
    0.6752  -50.7480  -18.4766 C   0  0  0  0  0  0  0  0  0  0  0  0
    0.0252  -51.9480  -18.5975 C   0  0  0  0  0  0  0  0  0  0  0  0
   -0.3746  -52.4628  -19.8507 C   0  0  0  0  0  0  0  0  0  0  0  0
   -0.1328  -51.7879  -21.0087 C   0  0  0  0  0  0  0  0  0  0  0  0
    1.0740  -50.2020  -17.2266 N   0  0  0  0  0  0  0  0  0  0  0  0
    1.6264  -48.8670  -17.0656 C   0  0  0  0  0  0  0  0  0  0  0  0
    3.0442  -49.0438  -16.5691 C   0  0  0  0  0  0  0  0  0  0  0  0
    3.0604  -49.7975  -15.3147 N   0  0  0  0  0  0  0  0  0  0  0  0
    2.3416  -51.0290  -15.2705 C   0  0  0  0  0  0  0  0  0  0  0  0
    0.9739  -50.9534  -15.9652 C   0  0  0  0  0  0  0  0  0  0  0  0
    3.7713  -49.2873  -14.2243 C   0  0  0  0  0  0  0  0  0  0  0  0
    4.4077  -48.1793  -14.3086 O   0  0  0  0  0  0  0  0  0  0  0  0
    3.8220  -50.0038  -12.9207 C   0  0  0  0  0  0  0  0  0  0  0  0
    4.4449  -51.2437  -13.0407 F   0  0  0  0  0  0  0  0  0  0  0  0
    2.5834  -50.0925  -12.3134 F   0  0  0  0  0  0  0  0  0  0  0  0
    4.6187  -49.3036  -12.0105 F   0  0  0  0  0  0  0  0  0  0  0  0
    2.0360  -49.2077  -22.2065 C   0  0  0  0  0  0  0  0  0  0  0  0
    0.7861  -49.8609  -22.0522 O   0  0  0  0  0  0  0  0  0  0  0  0
 41 42  1  0  0  0
 42 23  1  0  0  0
 23 24  2  0  0  0
 24 25  1  0  0  0
 25 26  2  0  0  0
 26 27  1  0  0  0
 27 28  2  0  0  0
 28  1  1  0  0  0
  1  3  1  0  0  0
  3  4  2  0  0  0
  4  5  1  0  0  0
  5  6  2  0  0  0
  6  7  1  0  0  0
  6  8  1  0  0  0
  8 10  1  0  0  0
 10 11  1  0  0  0
 11 12  2  0  0  0
 12 13  1  0  0  0
 13 14  2  0  0  0
 14 15  1  0  0  0
 15 17  1  0  0  0
 17 18  1  0  0  0
 18 19  2  0  0  0
 18 21  1  0  0  0
 21 22  2  0  0  0
 15 16  2  0  0  0
  8  9  2  0  0  0
 25 29  1  0  0  0
 29 30  1  0  0  0
 30 31  1  0  0  0
 31 32  1  0  0  0
 32 33  1  0  0  0
 33 34  1  0  0  0
 32 35  1  0  0  0
 35 36  2  0  0  0
 35 37  1  0  0  0
 37 38  1  0  0  0
 37 39  1  0  0  0
 37 40  1  0  0  0
 28 23  1  0  0  0
  9  3  1  0  0  0
 34 29  1  0  0  0
 16 11  1  0  0  0
  1  2  1  0  0  0
 17 20  1  0  0  0
M  END
> <minimizedAffinity>
-7.35855

> <CNNscore>
0.0558081008

> <CNNaffinity>
6.1922717094

> <CNN_VS>
0.3455789387

> <CNNaffinity_variance>
0.2744235098

$$$$
[H]C([H])=C([H])C(=O)N([H])c1c([H])c([H])c([H])c(Oc2nc([H])nc(N([H])c3c([H])c([H])c(OC([H])([H])c4c([H])c([H])c([H])c(F)c4[H])c(Cl)c3[H])c2[H])c1[H]


 37 40  0  0  0  0  0  0  0  0999 V2000
   -0.8802  -54.0805  -21.6700 C   0  0  0  0  0  0  0  0  0  0  0  0
   -0.3729  -53.0896  -22.5191 C   0  0  0  0  0  0  0  0  0  0  0  0
   -0.3994  -53.2730  -23.8598 C   0  0  0  0  0  0  0  0  0  0  0  0
   -0.9277  -54.4390  -24.3558 N   0  0  0  0  0  0  0  0  0  0  0  0
   -1.4071  -55.3757  -23.5533 C   0  0  0  0  0  0  0  0  0  0  0  0
   -1.3718  -55.1738  -22.2426 N   0  0  0  0  0  0  0  0  0  0  0  0
   -0.8627  -53.8388  -20.2680 N   0  0  0  0  0  0  0  0  0  0  0  0
   -1.5298  -54.4010  -19.6715 H   0  0  0  0  0  0  0  0  0  0  0  0
    1.6579  -50.9477  -18.4302 C   0  0  0  0  0  0  0  0  0  0  0  0
    0.3620  -51.2132  -17.9886 C   0  0  0  0  0  0  0  0  0  0  0  0
   -0.4462  -52.1405  -18.5783 C   0  0  0  0  0  0  0  0  0  0  0  0
    0.0096  -52.8884  -19.6880 C   0  0  0  0  0  0  0  0  0  0  0  0
    1.2694  -52.6398  -20.1324 C   0  0  0  0  0  0  0  0  0  0  0  0
    2.0791  -51.6997  -19.5288 C   0  0  0  0  0  0  0  0  0  0  0  0
    3.6916  -51.4368  -20.1600 Cl  0  0  0  0  0  0  0  0  0  0  0  0
    2.4534  -50.0396  -17.8479 O   0  0  0  0  0  0  0  0  0  0  0  0
    3.0708  -49.6623  -16.7593 C   0  0  0  0  0  0  0  0  0  0  0  0
    0.7332  -51.2647  -12.7360 F   0  0  0  0  0  0  0  0  0  0  0  0
    1.7862  -51.3370  -13.5806 C   0  0  0  0  0  0  0  0  0  0  0  0
    2.7746  -52.2555  -13.3630 C   0  0  0  0  0  0  0  0  0  0  0  0
    3.8441  -52.3335  -14.2196 C   0  0  0  0  0  0  0  0  0  0  0  0
    3.9059  -51.4606  -15.3159 C   0  0  0  0  0  0  0  0  0  0  0  0
    2.9221  -50.5372  -15.5448 C   0  0  0  0  0  0  0  0  0  0  0  0
    1.8701  -50.4785  -14.6803 C   0  0  0  0  0  0  0  0  0  0  0  0
    0.0659  -52.3686  -24.7803 O   0  0  0  0  0  0  0  0  0  0  0  0
    1.3803  -51.9721  -24.8556 C   0  0  0  0  0  0  0  0  0  0  0  0
    2.4001  -52.8792  -24.6072 C   0  0  0  0  0  0  0  0  0  0  0  0
    3.7215  -52.4940  -24.6804 C   0  0  0  0  0  0  0  0  0  0  0  0
    4.0615  -51.1861  -25.0057 C   0  0  0  0  0  0  0  0  0  0  0  0
    3.0915  -50.2627  -25.2575 C   0  0  0  0  0  0  0  0  0  0  0  0
    1.7593  -50.6987  -25.1709 C   0  0  0  0  0  0  0  0  0  0  0  0
    3.3377  -48.9152  -25.6336 N   0  0  0  0  0  0  0  0  0  0  0  0
    3.6817  -48.4063  -26.8796 C   0  0  0  0  0  0  0  0  0  0  0  0
    3.8053  -49.2099  -27.8668 O   0  0  0  0  0  0  0  0  0  0  0  0
    3.2403  -48.2212  -24.8241 H   0  0  0  0  0  0  0  0  0  0  0  0
    3.9095  -46.9930  -27.1123 C   0  0  0  0  0  0  0  0  0  0  0  0
    4.8701  -46.3275  -26.5387 C   0  0  0  0  0  0  0  0  0  0  0  0
 18 19  1  0  0  0
 19 20  2  0  0  0
 20 21  1  0  0  0
 21 22  2  0  0  0
 22 23  1  0  0  0
 23 17  1  0  0  0
 17 16  1  0  0  0
 16  9  1  0  0  0
  9 10  2  0  0  0
 10 11  1  0  0  0
 11 12  2  0  0  0
 12  7  1  0  0  0
  7  1  1  0  0  0
  1  2  2  0  0  0
  2  3  1  0  0  0
  3 25  1  0  0  0
 25 26  1  0  0  0
 26 27  2  0  0  0
 27 28  1  0  0  0
 28 29  2  0  0  0
 29 30  1  0  0  0
 30 32  1  0  0  0
 32 33  1  0  0  0
 33 34  2  0  0  0
 33 36  1  0  0  0
 36 37  2  0  0  0
 30 31  2  0  0  0
  3  4  2  0  0  0
  4  5  1  0  0  0
  5  6  2  0  0  0
 12 13  1  0  0  0
 13 14  2  0  0  0
 14 15  1  0  0  0
 23 24  2  0  0  0
 24 19  1  0  0  0
 14  9  1  0  0  0
  6  1  1  0  0  0
 31 26  1  0  0  0
  7  8  1  0  0  0
 32 35  1  0  0  0
M  END
> <minimizedAffinity>
-7.88470

> <CNNscore>
0.7452989221

> <CNNaffinity>
7.3320565224

> <CNN_VS>
5.4645738602

> <CNNaffinity_variance>
0.0992449000

$$$$
[H]C([H])=C([H])C(=O)N([H])c1c([H])c([H])c([H])c(Oc2nc([H])nc(N([H])c3c([H])c([H])c(OC([H])([H])c4c([H])c([H])c([H])c(F)c4[H])c(Cl)c3[H])c2[H])c1[H]


 37 40  0  0  0  0  0  0  0  0999 V2000
   -0.8857  -54.0357  -21.5833 C   0  0  0  0  0  0  0  0  0  0  0  0
   -0.5516  -52.9499  -22.4016 C   0  0  0  0  0  0  0  0  0  0  0  0
   -0.6138  -53.0765  -23.7477 C   0  0  0  0  0  0  0  0  0  0  0  0
   -1.0061  -54.2797  -24.2796 N   0  0  0  0  0  0  0  0  0  0  0  0
   -1.3218  -55.3062  -23.5063 C   0  0  0  0  0  0  0  0  0  0  0  0
   -1.2546  -55.1587  -22.1896 N   0  0  0  0  0  0  0  0  0  0  0  0
   -0.8374  -53.8552  -20.1728 N   0  0  0  0  0  0  0  0  0  0  0  0
   -1.4679  -54.4662  -19.5847 H   0  0  0  0  0  0  0  0  0  0  0  0
    1.6303  -50.9540  -18.2800 C   0  0  0  0  0  0  0  0  0  0  0  0
    0.3301  -51.2329  -17.8599 C   0  0  0  0  0  0  0  0  0  0  0  0
   -0.4611  -52.1635  -18.4672 C   0  0  0  0  0  0  0  0  0  0  0  0
    0.0179  -52.9010  -19.5741 C   0  0  0  0  0  0  0  0  0  0  0  0
    1.2822  -52.6392  -19.9977 C   0  0  0  0  0  0  0  0  0  0  0  0
    2.0746  -51.6959  -19.3763 C   0  0  0  0  0  0  0  0  0  0  0  0
    3.6943  -51.4159  -19.9812 Cl  0  0  0  0  0  0  0  0  0  0  0  0
    2.4091  -50.0426  -17.6804 O   0  0  0  0  0  0  0  0  0  0  0  0
    3.2654  -49.7926  -16.7250 C   0  0  0  0  0  0  0  0  0  0  0  0
    4.7867  -53.4808  -13.8437 F   0  0  0  0  0  0  0  0  0  0  0  0
    3.9390  -52.4534  -14.0745 C   0  0  0  0  0  0  0  0  0  0  0  0
    2.9746  -52.1442  -13.1567 C   0  0  0  0  0  0  0  0  0  0  0  0
    2.1135  -51.1005  -13.3865 C   0  0  0  0  0  0  0  0  0  0  0  0
    2.2386  -50.3603  -14.5714 C   0  0  0  0  0  0  0  0  0  0  0  0
    3.2006  -50.6598  -15.4976 C   0  0  0  0  0  0  0  0  0  0  0  0
    4.0439  -51.7007  -15.2474 C   0  0  0  0  0  0  0  0  0  0  0  0
   -0.3131  -52.0788  -24.6399 O   0  0  0  0  0  0  0  0  0  0  0  0
    0.8131  -52.0819  -25.4286 C   0  0  0  0  0  0  0  0  0  0  0  0
    0.7506  -52.5420  -26.7359 C   0  0  0  0  0  0  0  0  0  0  0  0
    1.8724  -52.5491  -27.5367 C   0  0  0  0  0  0  0  0  0  0  0  0
    3.0928  -52.0941  -27.0511 C   0  0  0  0  0  0  0  0  0  0  0  0
    3.1989  -51.6334  -25.7731 C   0  0  0  0  0  0  0  0  0  0  0  0
    2.0312  -51.6449  -24.9929 C   0  0  0  0  0  0  0  0  0  0  0  0
    4.3896  -51.1142  -25.1983 N   0  0  0  0  0  0  0  0  0  0  0  0
    5.2165  -51.6856  -24.2392 C   0  0  0  0  0  0  0  0  0  0  0  0
    4.9220  -52.8391  -23.7722 O   0  0  0  0  0  0  0  0  0  0  0  0
    4.6588  -50.1480  -25.5731 H   0  0  0  0  0  0  0  0  0  0  0  0
    6.4078  -51.0264  -23.7397 C   0  0  0  0  0  0  0  0  0  0  0  0
    6.4684  -50.4703  -22.5643 C   0  0  0  0  0  0  0  0  0  0  0  0
 18 19  1  0  0  0
 19 20  2  0  0  0
 20 21  1  0  0  0
 21 22  2  0  0  0
 22 23  1  0  0  0
 23 17  1  0  0  0
 17 16  1  0  0  0
 16  9  1  0  0  0
  9 10  2  0  0  0
 10 11  1  0  0  0
 11 12  2  0  0  0
 12  7  1  0  0  0
  7  1  1  0  0  0
  1  2  2  0  0  0
  2  3  1  0  0  0
  3 25  1  0  0  0
 25 26  1  0  0  0
 26 27  2  0  0  0
 27 28  1  0  0  0
 28 29  2  0  0  0
 29 30  1  0  0  0
 30 32  1  0  0  0
 32 33  1  0  0  0
 33 34  2  0  0  0
 33 36  1  0  0  0
 36 37  2  0  0  0
 30 31  2  0  0  0
  3  4  2  0  0  0
  4  5  1  0  0  0
  5  6  2  0  0  0
 12 13  1  0  0  0
 13 14  2  0  0  0
 14 15  1  0  0  0
 23 24  2  0  0  0
 24 19  1  0  0  0
 14  9  1  0  0  0
  6  1  1  0  0  0
 31 26  1  0  0  0
  7  8  1  0  0  0
 32 35  1  0  0  0
M  END
> <minimizedAffinity>
-8.27989

> <CNNscore>
0.7348844409

> <CNNaffinity>
7.3660750389

> <CNN_VS>
5.4132137299

> <CNNaffinity_variance>
0.0918324813

$$$$
[H]C([H])=C([H])C(=O)N([H])c1c([H])c([H])c([H])c(Oc2nc([H])nc(N([H])c3c([H])c([H])c(OC([H])([H])c4c([H])c([H])c([H])c(F)c4[H])c(Cl)c3[H])c2[H])c1[H]


 37 40  0  0  0  0  0  0  0  0999 V2000
   -0.8747  -54.1516  -21.6613 C   0  0  0  0  0  0  0  0  0  0  0  0
   -0.5714  -52.9532  -22.3186 C   0  0  0  0  0  0  0  0  0  0  0  0
   -0.5721  -52.9078  -23.6712 C   0  0  0  0  0  0  0  0  0  0  0  0
   -0.8725  -54.0511  -24.3694 N   0  0  0  0  0  0  0  0  0  0  0  0
   -1.1591  -55.1839  -23.7482 C   0  0  0  0  0  0  0  0  0  0  0  0
   -1.1534  -55.2045  -22.4217 N   0  0  0  0  0  0  0  0  0  0  0  0
   -0.8936  -54.1526  -20.2385 N   0  0  0  0  0  0  0  0  0  0  0  0
   -1.4085  -54.9428  -19.7618 H   0  0  0  0  0  0  0  0  0  0  0  0
    0.9279  -51.1135  -17.8857 C   0  0  0  0  0  0  0  0  0  0  0  0
   -0.3170  -51.6634  -17.5814 C   0  0  0  0  0  0  0  0  0  0  0  0
   -0.9009  -52.6381  -18.3362 C   0  0  0  0  0  0  0  0  0  0  0  0
   -0.2506  -53.1425  -19.4856 C   0  0  0  0  0  0  0  0  0  0  0  0
    0.9622  -52.6153  -19.7976 C   0  0  0  0  0  0  0  0  0  0  0  0
    1.5445  -51.6296  -19.0273 C   0  0  0  0  0  0  0  0  0  0  0  0
    3.1109  -51.0007  -19.4949 Cl  0  0  0  0  0  0  0  0  0  0  0  0
    1.5034  -50.1589  -17.1415 O   0  0  0  0  0  0  0  0  0  0  0  0
    1.4304  -49.4119  -16.0713 C   0  0  0  0  0  0  0  0  0  0  0  0
   -3.1337  -47.6642  -15.4935 F   0  0  0  0  0  0  0  0  0  0  0  0
   -2.1396  -48.4876  -15.0919 C   0  0  0  0  0  0  0  0  0  0  0  0
   -2.3287  -49.3145  -14.0203 C   0  0  0  0  0  0  0  0  0  0  0  0
   -1.3226  -50.1534  -13.6108 C   0  0  0  0  0  0  0  0  0  0  0  0
   -0.1044  -50.1488  -14.3061 C   0  0  0  0  0  0  0  0  0  0  0  0
    0.0967  -49.3259  -15.3810 C   0  0  0  0  0  0  0  0  0  0  0  0
   -0.9169  -48.5016  -15.7687 C   0  0  0  0  0  0  0  0  0  0  0  0
   -0.2940  -51.7890  -24.4146 O   0  0  0  0  0  0  0  0  0  0  0  0
    0.9760  -51.4344  -24.8041 C   0  0  0  0  0  0  0  0  0  0  0  0
    1.3450  -51.5093  -26.1393 C   0  0  0  0  0  0  0  0  0  0  0  0
    2.6147  -51.1558  -26.5423 C   0  0  0  0  0  0  0  0  0  0  0  0
    3.5548  -50.7154  -25.6179 C   0  0  0  0  0  0  0  0  0  0  0  0
    3.2346  -50.6265  -24.2964 C   0  0  0  0  0  0  0  0  0  0  0  0
    1.9303  -50.9973  -23.9307 C   0  0  0  0  0  0  0  0  0  0  0  0
    4.1111  -50.1537  -23.2834 N   0  0  0  0  0  0  0  0  0  0  0  0
    5.0860  -50.8491  -22.5791 C   0  0  0  0  0  0  0  0  0  0  0  0
    5.2723  -52.0883  -22.8344 O   0  0  0  0  0  0  0  0  0  0  0  0
    3.9754  -49.1174  -23.0507 H   0  0  0  0  0  0  0  0  0  0  0  0
    5.9079  -50.2272  -21.5587 C   0  0  0  0  0  0  0  0  0  0  0  0
    7.2089  -50.2679  -21.5764 C   0  0  0  0  0  0  0  0  0  0  0  0
 18 19  1  0  0  0
 19 20  2  0  0  0
 20 21  1  0  0  0
 21 22  2  0  0  0
 22 23  1  0  0  0
 23 17  1  0  0  0
 17 16  1  0  0  0
 16  9  1  0  0  0
  9 10  2  0  0  0
 10 11  1  0  0  0
 11 12  2  0  0  0
 12  7  1  0  0  0
  7  1  1  0  0  0
  1  2  2  0  0  0
  2  3  1  0  0  0
  3 25  1  0  0  0
 25 26  1  0  0  0
 26 27  2  0  0  0
 27 28  1  0  0  0
 28 29  2  0  0  0
 29 30  1  0  0  0
 30 32  1  0  0  0
 32 33  1  0  0  0
 33 34  2  0  0  0
 33 36  1  0  0  0
 36 37  2  0  0  0
 30 31  2  0  0  0
  3  4  2  0  0  0
  4  5  1  0  0  0
  5  6  2  0  0  0
 12 13  1  0  0  0
 13 14  2  0  0  0
 14 15  1  0  0  0
 23 24  2  0  0  0
 24 19  1  0  0  0
 14  9  1  0  0  0
  6  1  1  0  0  0
 31 26  1  0  0  0
  7  8  1  0  0  0
 32 35  1  0  0  0
M  END
> <minimizedAffinity>
-7.60736

> <CNNscore>
0.5452477336

> <CNNaffinity>
7.2756605148

> <CNN_VS>
3.9670374393

> <CNNaffinity_variance>
0.1287347227

$$$$
[H]C([H])=C([H])C(=O)N([H])c1c([H])c([H])c([H])c(Oc2nc([H])nc(N([H])c3c([H])c([H])c(OC([H])([H])c4c([H])c([H])c([H])c(F)c4[H])c(Cl)c3[H])c2[H])c1[H]


 37 40  0  0  0  0  0  0  0  0999 V2000
   -0.8700  -53.9820  -21.6383 C   0  0  0  0  0  0  0  0  0  0  0  0
   -0.5734  -52.9556  -22.5432 C   0  0  0  0  0  0  0  0  0  0  0  0
   -0.6946  -53.1743  -23.8733 C   0  0  0  0  0  0  0  0  0  0  0  0
   -1.1086  -54.4105  -24.3036 N   0  0  0  0  0  0  0  0  0  0  0  0
   -1.3888  -55.3808  -23.4484 C   0  0  0  0  0  0  0  0  0  0  0  0
   -1.2639  -55.1433  -22.1491 N   0  0  0  0  0  0  0  0  0  0  0  0
   -0.7598  -53.7051  -20.2470 N   0  0  0  0  0  0  0  0  0  0  0  0
   -1.4045  -54.2318  -19.5961 H   0  0  0  0  0  0  0  0  0  0  0  0
    1.9458  -50.8380  -18.6505 C   0  0  0  0  0  0  0  0  0  0  0  0
    0.6480  -51.0058  -18.1684 C   0  0  0  0  0  0  0  0  0  0  0  0
   -0.2195  -51.9254  -18.6806 C   0  0  0  0  0  0  0  0  0  0  0  0
    0.1727  -52.7665  -19.7471 C   0  0  0  0  0  0  0  0  0  0  0  0
    1.4335  -52.6138  -20.2303 C   0  0  0  0  0  0  0  0  0  0  0  0
    2.3035  -51.6806  -19.7050 C   0  0  0  0  0  0  0  0  0  0  0  0
    3.9130  -51.5444  -20.3821 Cl  0  0  0  0  0  0  0  0  0  0  0  0
    2.7995  -49.9373  -18.1442 O   0  0  0  0  0  0  0  0  0  0  0  0
    3.2906  -48.7286  -18.2240 C   0  0  0  0  0  0  0  0  0  0  0  0
    2.0884  -46.9092  -22.6358 F   0  0  0  0  0  0  0  0  0  0  0  0
    3.0343  -47.3040  -21.7544 C   0  0  0  0  0  0  0  0  0  0  0  0
    4.3570  -47.2144  -22.0863 C   0  0  0  0  0  0  0  0  0  0  0  0
    5.3204  -47.6121  -21.1933 C   0  0  0  0  0  0  0  0  0  0  0  0
    4.9278  -48.1089  -19.9416 C   0  0  0  0  0  0  0  0  0  0  0  0
    3.6065  -48.2028  -19.5975 C   0  0  0  0  0  0  0  0  0  0  0  0
    2.6682  -47.8019  -20.5009 C   0  0  0  0  0  0  0  0  0  0  0  0
   -0.4345  -52.2409  -24.8444 O   0  0  0  0  0  0  0  0  0  0  0  0
    0.7180  -52.2284  -25.5941 C   0  0  0  0  0  0  0  0  0  0  0  0
    0.7141  -52.7194  -26.8915 C   0  0  0  0  0  0  0  0  0  0  0  0
    1.8627  -52.7114  -27.6534 C   0  0  0  0  0  0  0  0  0  0  0  0
    3.0519  -52.2098  -27.1373 C   0  0  0  0  0  0  0  0  0  0  0  0
    3.1004  -51.7176  -25.8676 C   0  0  0  0  0  0  0  0  0  0  0  0
    1.9072  -51.7460  -25.1275 C   0  0  0  0  0  0  0  0  0  0  0  0
    4.2551  -51.1507  -25.2650 N   0  0  0  0  0  0  0  0  0  0  0  0
    5.0545  -51.6683  -24.2535 C   0  0  0  0  0  0  0  0  0  0  0  0
    4.7664  -52.8111  -23.7569 O   0  0  0  0  0  0  0  0  0  0  0  0
    4.5182  -50.1924  -25.6637 H   0  0  0  0  0  0  0  0  0  0  0  0
    6.2098  -50.9642  -23.7311 C   0  0  0  0  0  0  0  0  0  0  0  0
    6.5561  -49.7760  -24.1347 C   0  0  0  0  0  0  0  0  0  0  0  0
 18 19  1  0  0  0
 19 20  2  0  0  0
 20 21  1  0  0  0
 21 22  2  0  0  0
 22 23  1  0  0  0
 23 17  1  0  0  0
 17 16  1  0  0  0
 16  9  1  0  0  0
  9 10  2  0  0  0
 10 11  1  0  0  0
 11 12  2  0  0  0
 12  7  1  0  0  0
  7  1  1  0  0  0
  1  2  2  0  0  0
  2  3  1  0  0  0
  3 25  1  0  0  0
 25 26  1  0  0  0
 26 27  2  0  0  0
 27 28  1  0  0  0
 28 29  2  0  0  0
 29 30  1  0  0  0
 30 32  1  0  0  0
 32 33  1  0  0  0
 33 34  2  0  0  0
 33 36  1  0  0  0
 36 37  2  0  0  0
 30 31  2  0  0  0
  3  4  2  0  0  0
  4  5  1  0  0  0
  5  6  2  0  0  0
 12 13  1  0  0  0
 13 14  2  0  0  0
 14 15  1  0  0  0
 23 24  2  0  0  0
 24 19  1  0  0  0
 14  9  1  0  0  0
  6  1  1  0  0  0
 31 26  1  0  0  0
  7  8  1  0  0  0
 32 35  1  0  0  0
M  END
> <minimizedAffinity>
-7.48364

> <CNNscore>
0.5368219018

> <CNNaffinity>
7.3859429359

> <CNN_VS>
3.9649360180

> <CNNaffinity_variance>
0.1498043835

$$$$
[H]C([H])=C([H])C(=O)N([H])c1c([H])c([H])c([H])c(Oc2nc([H])nc(N([H])c3c([H])c([H])c(OC([H])([H])c4c([H])c([H])c([H])c(F)c4[H])c(Cl)c3[H])c2[H])c1[H]


 37 40  0  0  0  0  0  0  0  0999 V2000
   -1.1704  -52.5974  -17.4910 C   0  0  0  0  0  0  0  0  0  0  0  0
   -0.4515  -51.4824  -17.0437 C   0  0  0  0  0  0  0  0  0  0  0  0
   -1.0006  -50.6492  -16.1294 C   0  0  0  0  0  0  0  0  0  0  0  0
   -2.2619  -50.9226  -15.6613 N   0  0  0  0  0  0  0  0  0  0  0  0
   -2.9416  -51.9764  -16.0840 C   0  0  0  0  0  0  0  0  0  0  0  0
   -2.3829  -52.7799  -16.9798 N   0  0  0  0  0  0  0  0  0  0  0  0
   -0.5482  -53.4669  -18.4298 N   0  0  0  0  0  0  0  0  0  0  0  0
   -0.1164  -54.3553  -18.0544 H   0  0  0  0  0  0  0  0  0  0  0  0
   -0.3833  -52.4202  -22.5488 C   0  0  0  0  0  0  0  0  0  0  0  0
   -0.0728  -51.5242  -21.5264 C   0  0  0  0  0  0  0  0  0  0  0  0
   -0.1258  -51.8602  -20.2054 C   0  0  0  0  0  0  0  0  0  0  0  0
   -0.5067  -53.1631  -19.8106 C   0  0  0  0  0  0  0  0  0  0  0  0
   -0.8151  -54.0476  -20.7948 C   0  0  0  0  0  0  0  0  0  0  0  0
   -0.7581  -53.6979  -22.1283 C   0  0  0  0  0  0  0  0  0  0  0  0
   -1.1705  -54.8950  -23.3385 Cl  0  0  0  0  0  0  0  0  0  0  0  0
   -0.3270  -52.0912  -23.8470 O   0  0  0  0  0  0  0  0  0  0  0  0
    0.4299  -51.8870  -24.8929 C   0  0  0  0  0  0  0  0  0  0  0  0
   -3.2895  -52.5490  -28.0468 F   0  0  0  0  0  0  0  0  0  0  0  0
   -1.9614  -52.5328  -27.7953 C   0  0  0  0  0  0  0  0  0  0  0  0
   -1.0729  -52.8021  -28.7983 C   0  0  0  0  0  0  0  0  0  0  0  0
    0.2763  -52.7845  -28.5473 C   0  0  0  0  0  0  0  0  0  0  0  0
    0.7261  -52.4870  -27.2524 C   0  0  0  0  0  0  0  0  0  0  0  0
   -0.1537  -52.2150  -26.2400 C   0  0  0  0  0  0  0  0  0  0  0  0
   -1.4887  -52.2387  -26.5133 C   0  0  0  0  0  0  0  0  0  0  0  0
   -0.3850  -49.5335  -15.6213 O   0  0  0  0  0  0  0  0  0  0  0  0
    0.9020  -49.1678  -15.9380 C   0  0  0  0  0  0  0  0  0  0  0  0
    1.7294  -48.6127  -14.9727 C   0  0  0  0  0  0  0  0  0  0  0  0
    3.0217  -48.2430  -15.2777 C   0  0  0  0  0  0  0  0  0  0  0  0
    3.5251  -48.4191  -16.5613 C   0  0  0  0  0  0  0  0  0  0  0  0
    2.7467  -48.9609  -17.5399 C   0  0  0  0  0  0  0  0  0  0  0  0
    1.4369  -49.3223  -17.1849 C   0  0  0  0  0  0  0  0  0  0  0  0
    3.1806  -49.2151  -18.8684 N   0  0  0  0  0  0  0  0  0  0  0  0
    3.5715  -50.4180  -19.4432 C   0  0  0  0  0  0  0  0  0  0  0  0
    3.5569  -51.4806  -18.7319 O   0  0  0  0  0  0  0  0  0  0  0  0
    3.2017  -48.3405  -19.4856 H   0  0  0  0  0  0  0  0  0  0  0  0
    3.9995  -50.5226  -20.8250 C   0  0  0  0  0  0  0  0  0  0  0  0
    3.5399  -51.4265  -21.6413 C   0  0  0  0  0  0  0  0  0  0  0  0
 18 19  1  0  0  0
 19 20  2  0  0  0
 20 21  1  0  0  0
 21 22  2  0  0  0
 22 23  1  0  0  0
 23 17  1  0  0  0
 17 16  1  0  0  0
 16  9  1  0  0  0
  9 10  2  0  0  0
 10 11  1  0  0  0
 11 12  2  0  0  0
 12  7  1  0  0  0
  7  1  1  0  0  0
  1  2  2  0  0  0
  2  3  1  0  0  0
  3 25  1  0  0  0
 25 26  1  0  0  0
 26 27  2  0  0  0
 27 28  1  0  0  0
 28 29  2  0  0  0
 29 30  1  0  0  0
 30 32  1  0  0  0
 32 33  1  0  0  0
 33 34  2  0  0  0
 33 36  1  0  0  0
 36 37  2  0  0  0
 30 31  2  0  0  0
  3  4  2  0  0  0
  4  5  1  0  0  0
  5  6  2  0  0  0
 12 13  1  0  0  0
 13 14  2  0  0  0
 14 15  1  0  0  0
 23 24  2  0  0  0
 24 19  1  0  0  0
 14  9  1  0  0  0
  6  1  1  0  0  0
 31 26  1  0  0  0
  7  8  1  0  0  0
 32 35  1  0  0  0
M  END
> <minimizedAffinity>
-8.71662

> <CNNscore>
0.4224228263

> <CNNaffinity>
7.1176972389

> <CNN_VS>
3.0066778660

> <CNNaffinity_variance>
0.1718293875

$$$$
[H]C([H])=C([H])C(=O)N([H])c1c([H])c([H])c([H])c(Oc2nc([H])nc(N([H])c3c([H])c([H])c(OC([H])([H])c4c([H])c([H])c([H])c(F)c4[H])c(Cl)c3[H])c2[H])c1[H]


 37 40  0  0  0  0  0  0  0  0999 V2000
   -0.8062  -53.9047  -21.5015 C   0  0  0  0  0  0  0  0  0  0  0  0
   -0.2693  -53.0135  -22.4383 C   0  0  0  0  0  0  0  0  0  0  0  0
   -0.3668  -53.2861  -23.7604 C   0  0  0  0  0  0  0  0  0  0  0  0
   -0.9953  -54.4424  -24.1509 N   0  0  0  0  0  0  0  0  0  0  0  0
   -1.5028  -55.2850  -23.2655 C   0  0  0  0  0  0  0  0  0  0  0  0
   -1.3965  -54.9966  -21.9750 N   0  0  0  0  0  0  0  0  0  0  0  0
   -0.7111  -53.5692  -20.1221 N   0  0  0  0  0  0  0  0  0  0  0  0
   -1.3879  -54.0406  -19.4614 H   0  0  0  0  0  0  0  0  0  0  0  0
    2.2730  -50.8590  -18.7660 C   0  0  0  0  0  0  0  0  0  0  0  0
    2.5448  -51.9082  -19.6436 C   0  0  0  0  0  0  0  0  0  0  0  0
    1.5875  -52.7772  -20.0784 C   0  0  0  0  0  0  0  0  0  0  0  0
    0.2480  -52.6451  -19.6460 C   0  0  0  0  0  0  0  0  0  0  0  0
   -0.0330  -51.6293  -18.7884 C   0  0  0  0  0  0  0  0  0  0  0  0
    0.9426  -50.7553  -18.3547 C   0  0  0  0  0  0  0  0  0  0  0  0
    0.5014  -49.4706  -17.2491 Cl  0  0  0  0  0  0  0  0  0  0  0  0
    3.2130  -50.0025  -18.3424 O   0  0  0  0  0  0  0  0  0  0  0  0
    4.0098  -49.0123  -18.6478 C   0  0  0  0  0  0  0  0  0  0  0  0
    6.9944  -50.5290  -22.2549 F   0  0  0  0  0  0  0  0  0  0  0  0
    6.0057  -49.7145  -21.8230 C   0  0  0  0  0  0  0  0  0  0  0  0
    5.4378  -48.8152  -22.6813 C   0  0  0  0  0  0  0  0  0  0  0  0
    4.4322  -47.9880  -22.2472 C   0  0  0  0  0  0  0  0  0  0  0  0
    3.9991  -48.0803  -20.9162 C   0  0  0  0  0  0  0  0  0  0  0  0
    4.5594  -48.9771  -20.0475 C   0  0  0  0  0  0  0  0  0  0  0  0
    5.5565  -49.7877  -20.5016 C   0  0  0  0  0  0  0  0  0  0  0  0
    0.1192  -52.4829  -24.7606 O   0  0  0  0  0  0  0  0  0  0  0  0
    1.4236  -52.0520  -24.8200 C   0  0  0  0  0  0  0  0  0  0  0  0
    2.4608  -52.9143  -24.4956 C   0  0  0  0  0  0  0  0  0  0  0  0
    3.7724  -52.4945  -24.5522 C   0  0  0  0  0  0  0  0  0  0  0  0
    4.0849  -51.1958  -24.9367 C   0  0  0  0  0  0  0  0  0  0  0  0
    3.0971  -50.3160  -25.2640 C   0  0  0  0  0  0  0  0  0  0  0  0
    1.7757  -50.7862  -25.1917 C   0  0  0  0  0  0  0  0  0  0  0  0
    3.3162  -48.9832  -25.7039 N   0  0  0  0  0  0  0  0  0  0  0  0
    3.6447  -48.5268  -26.9742 C   0  0  0  0  0  0  0  0  0  0  0  0
    3.7785  -49.3732  -27.9235 O   0  0  0  0  0  0  0  0  0  0  0  0
    3.2099  -48.2540  -24.9271 H   0  0  0  0  0  0  0  0  0  0  0  0
    3.8448  -47.1219  -27.2738 C   0  0  0  0  0  0  0  0  0  0  0  0
    3.1769  -46.4936  -28.1978 C   0  0  0  0  0  0  0  0  0  0  0  0
 18 19  1  0  0  0
 19 20  2  0  0  0
 20 21  1  0  0  0
 21 22  2  0  0  0
 22 23  1  0  0  0
 23 17  1  0  0  0
 17 16  1  0  0  0
 16  9  1  0  0  0
  9 10  2  0  0  0
 10 11  1  0  0  0
 11 12  2  0  0  0
 12  7  1  0  0  0
  7  1  1  0  0  0
  1  2  2  0  0  0
  2  3  1  0  0  0
  3 25  1  0  0  0
 25 26  1  0  0  0
 26 27  2  0  0  0
 27 28  1  0  0  0
 28 29  2  0  0  0
 29 30  1  0  0  0
 30 32  1  0  0  0
 32 33  1  0  0  0
 33 34  2  0  0  0
 33 36  1  0  0  0
 36 37  2  0  0  0
 30 31  2  0  0  0
  3  4  2  0  0  0
  4  5  1  0  0  0
  5  6  2  0  0  0
 12 13  1  0  0  0
 13 14  2  0  0  0
 14 15  1  0  0  0
 23 24  2  0  0  0
 24 19  1  0  0  0
 14  9  1  0  0  0
  6  1  1  0  0  0
 31 26  1  0  0  0
  7  8  1  0  0  0
 32 35  1  0  0  0
M  END
> <minimizedAffinity>
-7.44126

> <CNNscore>
0.4161031544

> <CNNaffinity>
7.1243972778

> <CNN_VS>
2.9644842148

> <CNNaffinity_variance>
0.2528361082

$$$$
[H]C([H])=C([H])C(=O)N([H])c1c([H])c([H])c([H])c(Oc2nc([H])nc(N([H])c3c([H])c([H])c(OC([H])([H])c4c([H])c([H])c([H])c(F)c4[H])c(Cl)c3[H])c2[H])c1[H]


 37 40  0  0  0  0  0  0  0  0999 V2000
   -0.7440  -53.4890  -21.9745 C   0  0  0  0  0  0  0  0  0  0  0  0
   -0.5808  -52.7549  -23.1554 C   0  0  0  0  0  0  0  0  0  0  0  0
   -0.7745  -53.3541  -24.3534 C   0  0  0  0  0  0  0  0  0  0  0  0
   -1.1285  -54.6803  -24.3781 N   0  0  0  0  0  0  0  0  0  0  0  0
   -1.2826  -55.3744  -23.2619 C   0  0  0  0  0  0  0  0  0  0  0  0
   -1.0886  -54.7659  -22.0991 N   0  0  0  0  0  0  0  0  0  0  0  0
   -0.5613  -52.8170  -20.7337 N   0  0  0  0  0  0  0  0  0  0  0  0
   -1.2699  -53.0049  -19.9726 H   0  0  0  0  0  0  0  0  0  0  0  0
    2.7601  -50.2615  -20.0079 C   0  0  0  0  0  0  0  0  0  0  0  0
    2.6752  -51.5569  -19.4984 C   0  0  0  0  0  0  0  0  0  0  0  0
    1.6098  -52.3763  -19.7314 C   0  0  0  0  0  0  0  0  0  0  0  0
    0.5223  -51.9337  -20.5189 C   0  0  0  0  0  0  0  0  0  0  0  0
    0.5883  -50.6728  -21.0207 C   0  0  0  0  0  0  0  0  0  0  0  0
    1.6707  -49.8518  -20.7794 C   0  0  0  0  0  0  0  0  0  0  0  0
    1.6820  -48.2388  -21.4618 Cl  0  0  0  0  0  0  0  0  0  0  0  0
    3.8091  -49.4581  -19.7825 O   0  0  0  0  0  0  0  0  0  0  0  0
    4.9941  -49.0689  -20.1734 C   0  0  0  0  0  0  0  0  0  0  0  0
    5.0540  -52.5089  -23.6923 F   0  0  0  0  0  0  0  0  0  0  0  0
    5.6625  -51.4889  -23.0467 C   0  0  0  0  0  0  0  0  0  0  0  0
    6.9046  -51.0758  -23.4399 C   0  0  0  0  0  0  0  0  0  0  0  0
    7.5247  -50.0392  -22.7883 C   0  0  0  0  0  0  0  0  0  0  0  0
    6.8669  -49.4139  -21.7188 C   0  0  0  0  0  0  0  0  0  0  0  0
    5.6229  -49.8180  -21.3163 C   0  0  0  0  0  0  0  0  0  0  0  0
    5.0273  -50.8496  -21.9785 C   0  0  0  0  0  0  0  0  0  0  0  0
   -0.6456  -52.7297  -25.5680 O   0  0  0  0  0  0  0  0  0  0  0  0
    0.5380  -52.6649  -26.2648 C   0  0  0  0  0  0  0  0  0  0  0  0
    0.7031  -53.3946  -27.4331 C   0  0  0  0  0  0  0  0  0  0  0  0
    1.8843  -53.3372  -28.1409 C   0  0  0  0  0  0  0  0  0  0  0  0
    2.9376  -52.5451  -27.6990 C   0  0  0  0  0  0  0  0  0  0  0  0
    2.8181  -51.8119  -26.5566 C   0  0  0  0  0  0  0  0  0  0  0  0
    1.5977  -51.9010  -25.8673 C   0  0  0  0  0  0  0  0  0  0  0  0
    3.8209  -50.9457  -26.0446 N   0  0  0  0  0  0  0  0  0  0  0  0
    3.8091  -49.5601  -25.9457 C   0  0  0  0  0  0  0  0  0  0  0  0
    2.7805  -48.9167  -26.3503 O   0  0  0  0  0  0  0  0  0  0  0  0
    4.6937  -51.4602  -25.6986 H   0  0  0  0  0  0  0  0  0  0  0  0
    4.9206  -48.8047  -25.4003 C   0  0  0  0  0  0  0  0  0  0  0  0
    4.7726  -47.8866  -24.4894 C   0  0  0  0  0  0  0  0  0  0  0  0
 18 19  1  0  0  0
 19 20  2  0  0  0
 20 21  1  0  0  0
 21 22  2  0  0  0
 22 23  1  0  0  0
 23 17  1  0  0  0
 17 16  1  0  0  0
 16  9  1  0  0  0
  9 10  2  0  0  0
 10 11  1  0  0  0
 11 12  2  0  0  0
 12  7  1  0  0  0
  7  1  1  0  0  0
  1  2  2  0  0  0
  2  3  1  0  0  0
  3 25  1  0  0  0
 25 26  1  0  0  0
 26 27  2  0  0  0
 27 28  1  0  0  0
 28 29  2  0  0  0
 29 30  1  0  0  0
 30 32  1  0  0  0
 32 33  1  0  0  0
 33 34  2  0  0  0
 33 36  1  0  0  0
 36 37  2  0  0  0
 30 31  2  0  0  0
  3  4  2  0  0  0
  4  5  1  0  0  0
  5  6  2  0  0  0
 12 13  1  0  0  0
 13 14  2  0  0  0
 14 15  1  0  0  0
 23 24  2  0  0  0
 24 19  1  0  0  0
 14  9  1  0  0  0
  6  1  1  0  0  0
 31 26  1  0  0  0
  7  8  1  0  0  0
 32 35  1  0  0  0
M  END
> <minimizedAffinity>
-7.66210

> <CNNscore>
0.3602043092

> <CNNaffinity>
7.1865983009

> <CNN_VS>
2.5886437893

> <CNNaffinity_variance>
0.3007692695

$$$$
[H]C([H])=C([H])C(=O)N([H])c1c([H])c([H])c([H])c(Oc2nc([H])nc(N([H])c3c([H])c([H])c(OC([H])([H])c4c([H])c([H])c([H])c(F)c4[H])c(Cl)c3[H])c2[H])c1[H]


 37 40  0  0  0  0  0  0  0  0999 V2000
   -0.1847  -53.5331  -25.6379 C   0  0  0  0  0  0  0  0  0  0  0  0
    0.9215  -52.7362  -25.3193 C   0  0  0  0  0  0  0  0  0  0  0  0
    1.6256  -52.1353  -26.3066 C   0  0  0  0  0  0  0  0  0  0  0  0
    1.2322  -52.3266  -27.6079 N   0  0  0  0  0  0  0  0  0  0  0  0
    0.1866  -53.0799  -27.9092 C   0  0  0  0  0  0  0  0  0  0  0  0
   -0.4892  -53.6582  -26.9249 N   0  0  0  0  0  0  0  0  0  0  0  0
   -0.9180  -54.1238  -24.5712 N   0  0  0  0  0  0  0  0  0  0  0  0
   -1.6083  -54.8839  -24.8210 H   0  0  0  0  0  0  0  0  0  0  0  0
   -0.3924  -53.0370  -20.4930 C   0  0  0  0  0  0  0  0  0  0  0  0
   -0.6676  -54.3422  -20.8999 C   0  0  0  0  0  0  0  0  0  0  0  0
   -0.8361  -54.6904  -22.2080 C   0  0  0  0  0  0  0  0  0  0  0  0
   -0.7354  -53.7176  -23.2287 C   0  0  0  0  0  0  0  0  0  0  0  0
   -0.4703  -52.4403  -22.8487 C   0  0  0  0  0  0  0  0  0  0  0  0
   -0.3013  -52.0983  -21.5227 C   0  0  0  0  0  0  0  0  0  0  0  0
    0.0386  -50.4298  -21.1127 Cl  0  0  0  0  0  0  0  0  0  0  0  0
   -0.2225  -52.6958  -19.2080 O   0  0  0  0  0  0  0  0  0  0  0  0
   -0.6764  -52.7755  -17.9847 C   0  0  0  0  0  0  0  0  0  0  0  0
   -2.3954  -49.8498  -14.4204 F   0  0  0  0  0  0  0  0  0  0  0  0
   -1.5249  -50.0706  -15.4308 C   0  0  0  0  0  0  0  0  0  0  0  0
   -0.5909  -49.1242  -15.7468 C   0  0  0  0  0  0  0  0  0  0  0  0
    0.2961  -49.3457  -16.7705 C   0  0  0  0  0  0  0  0  0  0  0  0
    0.2291  -50.5523  -17.4828 C   0  0  0  0  0  0  0  0  0  0  0  0
   -0.7011  -51.5078  -17.1754 C   0  0  0  0  0  0  0  0  0  0  0  0
   -1.5713  -51.2651  -16.1550 C   0  0  0  0  0  0  0  0  0  0  0  0
    2.7202  -51.3329  -26.1072 O   0  0  0  0  0  0  0  0  0  0  0  0
    3.5572  -51.4488  -25.0225 C   0  0  0  0  0  0  0  0  0  0  0  0
    4.5904  -52.3745  -25.0318 C   0  0  0  0  0  0  0  0  0  0  0  0
    5.4366  -52.4995  -23.9510 C   0  0  0  0  0  0  0  0  0  0  0  0
    5.2730  -51.6990  -22.8265 C   0  0  0  0  0  0  0  0  0  0  0  0
    4.2712  -50.7768  -22.7753 C   0  0  0  0  0  0  0  0  0  0  0  0
    3.4328  -50.6841  -23.8981 C   0  0  0  0  0  0  0  0  0  0  0  0
    4.0460  -49.8889  -21.6895 N   0  0  0  0  0  0  0  0  0  0  0  0
    3.5262  -50.1642  -20.4310 C   0  0  0  0  0  0  0  0  0  0  0  0
    3.1884  -51.3645  -20.1468 O   0  0  0  0  0  0  0  0  0  0  0  0
    4.3211  -48.8762  -21.9018 H   0  0  0  0  0  0  0  0  0  0  0  0
    3.3475  -49.1425  -19.4172 C   0  0  0  0  0  0  0  0  0  0  0  0
    2.4536  -48.2009  -19.5118 C   0  0  0  0  0  0  0  0  0  0  0  0
 18 19  1  0  0  0
 19 20  2  0  0  0
 20 21  1  0  0  0
 21 22  2  0  0  0
 22 23  1  0  0  0
 23 17  1  0  0  0
 17 16  1  0  0  0
 16  9  1  0  0  0
  9 10  2  0  0  0
 10 11  1  0  0  0
 11 12  2  0  0  0
 12  7  1  0  0  0
  7  1  1  0  0  0
  1  2  2  0  0  0
  2  3  1  0  0  0
  3 25  1  0  0  0
 25 26  1  0  0  0
 26 27  2  0  0  0
 27 28  1  0  0  0
 28 29  2  0  0  0
 29 30  1  0  0  0
 30 32  1  0  0  0
 32 33  1  0  0  0
 33 34  2  0  0  0
 33 36  1  0  0  0
 36 37  2  0  0  0
 30 31  2  0  0  0
  3  4  2  0  0  0
  4  5  1  0  0  0
  5  6  2  0  0  0
 12 13  1  0  0  0
 13 14  2  0  0  0
 14 15  1  0  0  0
 23 24  2  0  0  0
 24 19  1  0  0  0
 14  9  1  0  0  0
  6  1  1  0  0  0
 31 26  1  0  0  0
  7  8  1  0  0  0
 32 35  1  0  0  0
M  END
> <minimizedAffinity>
-8.26357

> <CNNscore>
0.3548621535

> <CNNaffinity>
7.1964559555

> <CNN_VS>
2.5537497997

> <CNNaffinity_variance>
0.2080651969

$$$$
[H]C([H])=C([H])C(=O)N([H])c1c([H])c([H])c([H])c(Oc2nc([H])nc(N([H])c3c([H])c([H])c(OC([H])([H])c4c([H])c([H])c([H])c(F)c4[H])c(Cl)c3[H])c2[H])c1[H]


 37 40  0  0  0  0  0  0  0  0999 V2000
   -0.4145  -52.3145  -18.1292 C   0  0  0  0  0  0  0  0  0  0  0  0
    0.3699  -51.2529  -18.5959 C   0  0  0  0  0  0  0  0  0  0  0  0
    0.6409  -50.2065  -17.7814 C   0  0  0  0  0  0  0  0  0  0  0  0
    0.1325  -50.2143  -16.5062 N   0  0  0  0  0  0  0  0  0  0  0  0
   -0.6091  -51.2177  -16.0649 C   0  0  0  0  0  0  0  0  0  0  0  0
   -0.8607  -52.2332  -16.8806 N   0  0  0  0  0  0  0  0  0  0  0  0
   -0.6526  -53.4108  -19.0045 N   0  0  0  0  0  0  0  0  0  0  0  0
   -1.0452  -54.2943  -18.5779 H   0  0  0  0  0  0  0  0  0  0  0  0
    0.2452  -53.0473  -23.1458 C   0  0  0  0  0  0  0  0  0  0  0  0
    0.7218  -52.1549  -22.1861 C   0  0  0  0  0  0  0  0  0  0  0  0
    0.4337  -52.2717  -20.8579 C   0  0  0  0  0  0  0  0  0  0  0  0
   -0.3795  -53.3292  -20.3899 C   0  0  0  0  0  0  0  0  0  0  0  0
   -0.8543  -54.2060  -21.3128 C   0  0  0  0  0  0  0  0  0  0  0  0
   -0.5569  -54.0792  -22.6542 C   0  0  0  0  0  0  0  0  0  0  0  0
   -1.2067  -55.2505  -23.7826 Cl  0  0  0  0  0  0  0  0  0  0  0  0
    0.5320  -52.9349  -24.4503 O   0  0  0  0  0  0  0  0  0  0  0  0
    0.7494  -52.1316  -25.4583 C   0  0  0  0  0  0  0  0  0  0  0  0
   -3.3286  -52.5833  -28.1760 F   0  0  0  0  0  0  0  0  0  0  0  0
   -1.9810  -52.6255  -28.0775 C   0  0  0  0  0  0  0  0  0  0  0  0
   -1.2243  -52.9115  -29.1791 C   0  0  0  0  0  0  0  0  0  0  0  0
    0.1442  -52.9532  -29.0835 C   0  0  0  0  0  0  0  0  0  0  0  0
    0.7502  -52.6985  -27.8444 C   0  0  0  0  0  0  0  0  0  0  0  0
    0.0033  -52.4103  -26.7344 C   0  0  0  0  0  0  0  0  0  0  0  0
   -1.3538  -52.3749  -26.8539 C   0  0  0  0  0  0  0  0  0  0  0  0
    1.3995  -49.1193  -18.1339 O   0  0  0  0  0  0  0  0  0  0  0  0
    1.9303  -48.9408  -19.3896 C   0  0  0  0  0  0  0  0  0  0  0  0
    1.1106  -48.5896  -20.4523 C   0  0  0  0  0  0  0  0  0  0  0  0
    1.6309  -48.4069  -21.7155 C   0  0  0  0  0  0  0  0  0  0  0  0
    2.9908  -48.5704  -21.9523 C   0  0  0  0  0  0  0  0  0  0  0  0
    3.8320  -48.9148  -20.9371 C   0  0  0  0  0  0  0  0  0  0  0  0
    3.2588  -49.0913  -19.6672 C   0  0  0  0  0  0  0  0  0  0  0  0
    5.2379  -49.0682  -21.0703 N   0  0  0  0  0  0  0  0  0  0  0  0
    5.9660  -50.2127  -21.3700 C   0  0  0  0  0  0  0  0  0  0  0  0
    5.3428  -51.3117  -21.5688 O   0  0  0  0  0  0  0  0  0  0  0  0
    5.7837  -48.1614  -20.9087 H   0  0  0  0  0  0  0  0  0  0  0  0
    7.4130  -50.2168  -21.4676 C   0  0  0  0  0  0  0  0  0  0  0  0
    8.0501  -49.8665  -22.5474 C   0  0  0  0  0  0  0  0  0  0  0  0
 18 19  1  0  0  0
 19 20  2  0  0  0
 20 21  1  0  0  0
 21 22  2  0  0  0
 22 23  1  0  0  0
 23 17  1  0  0  0
 17 16  1  0  0  0
 16  9  1  0  0  0
  9 10  2  0  0  0
 10 11  1  0  0  0
 11 12  2  0  0  0
 12  7  1  0  0  0
  7  1  1  0  0  0
  1  2  2  0  0  0
  2  3  1  0  0  0
  3 25  1  0  0  0
 25 26  1  0  0  0
 26 27  2  0  0  0
 27 28  1  0  0  0
 28 29  2  0  0  0
 29 30  1  0  0  0
 30 32  1  0  0  0
 32 33  1  0  0  0
 33 34  2  0  0  0
 33 36  1  0  0  0
 36 37  2  0  0  0
 30 31  2  0  0  0
  3  4  2  0  0  0
  4  5  1  0  0  0
  5  6  2  0  0  0
 12 13  1  0  0  0
 13 14  2  0  0  0
 14 15  1  0  0  0
 23 24  2  0  0  0
 24 19  1  0  0  0
 14  9  1  0  0  0
  6  1  1  0  0  0
 31 26  1  0  0  0
  7  8  1  0  0  0
 32 35  1  0  0  0
M  END
> <minimizedAffinity>
-9.20677

> <CNNscore>
0.3271076381

> <CNNaffinity>
7.1635055542

> <CNN_VS>
2.3432374001

> <CNNaffinity_variance>
0.1721600145

$$$$
[H]/C(=N\OC([H])([H])c1c([H])c([H])c([H])c([H])c1OC([H])([H])[H])c1c(N([H])[H])nc([H])nc1N([H])c1c([H])c([H])c2c(c([H])nn2C([H])([H])c2c([H])c([H])c([H])c(F)c2[H])c1[H]


 40 44  0  0  0  0  0  0  0  0999 V2000
   -0.7077  -52.9564  -26.8722 C   0  0  0  0  0  0  0  0  0  0  0  0
   -1.6980  -52.6471  -27.8163 C   0  0  0  0  0  0  0  0  0  0  0  0
   -2.9706  -52.2942  -27.2738 N   0  0  0  0  0  0  0  0  0  0  0  0
   -1.4571  -52.6830  -29.1390 N   0  0  0  0  0  0  0  0  0  0  0  0
   -0.2384  -53.0223  -29.6071 C   0  0  0  0  0  0  0  0  0  0  0  0
    0.7137  -53.3191  -28.7234 N   0  0  0  0  0  0  0  0  0  0  0  0
    0.5260  -53.2994  -27.3697 C   0  0  0  0  0  0  0  0  0  0  0  0
   -3.6991  -53.0081  -27.0968 H   0  0  0  0  0  0  0  0  0  0  0  0
   -3.2080  -51.2916  -27.0359 H   0  0  0  0  0  0  0  0  0  0  0  0
   -0.6928  -53.9041  -24.6596 N   0  0  0  0  0  0  0  0  0  0  0  0
   -0.9840  -52.9102  -25.4594 C   0  0  0  0  0  0  0  0  0  0  0  0
   -0.9570  -53.8588  -23.3117 O   0  0  0  0  0  0  0  0  0  0  0  0
    0.1547  -53.8254  -22.4366 C   0  0  0  0  0  0  0  0  0  0  0  0
    0.0006  -51.9464  -20.8044 C   0  0  0  0  0  0  0  0  0  0  0  0
    0.2596  -50.6350  -20.4235 C   0  0  0  0  0  0  0  0  0  0  0  0
    0.9504  -49.7794  -21.2546 C   0  0  0  0  0  0  0  0  0  0  0  0
    1.3679  -50.2825  -22.4703 C   0  0  0  0  0  0  0  0  0  0  0  0
    1.1267  -51.5701  -22.8711 C   0  0  0  0  0  0  0  0  0  0  0  0
    0.4336  -52.4081  -22.0229 C   0  0  0  0  0  0  0  0  0  0  0  0
   -0.5459  -52.6828  -18.5914 C   0  0  0  0  0  0  0  0  0  0  0  0
   -0.6939  -52.8355  -19.9889 O   0  0  0  0  0  0  0  0  0  0  0  0
    1.5627  -53.6631  -26.4823 N   0  0  0  0  0  0  0  0  0  0  0  0
    1.7121  -54.6453  -26.1507 H   0  0  0  0  0  0  0  0  0  0  0  0
    2.4693  -52.6843  -25.9944 C   0  0  0  0  0  0  0  0  0  0  0  0
    2.3889  -51.3712  -26.4400 C   0  0  0  0  0  0  0  0  0  0  0  0
    3.2685  -50.4078  -26.0232 C   0  0  0  0  0  0  0  0  0  0  0  0
    4.2832  -50.6960  -25.1354 C   0  0  0  0  0  0  0  0  0  0  0  0
    5.2715  -49.9884  -24.5578 N   0  0  0  0  0  0  0  0  0  0  0  0
    5.9520  -50.8165  -23.7783 N   0  0  0  0  0  0  0  0  0  0  0  0
    5.4335  -52.0537  -23.8299 C   0  0  0  0  0  0  0  0  0  0  0  0
    4.3688  -51.9946  -24.6906 C   0  0  0  0  0  0  0  0  0  0  0  0
    3.4633  -52.9819  -25.1216 C   0  0  0  0  0  0  0  0  0  0  0  0
    5.5557  -48.5971  -24.7352 C   0  0  0  0  0  0  0  0  0  0  0  0
    4.5197  -47.6948  -24.1992 C   0  0  0  0  0  0  0  0  0  0  0  0
    3.9107  -46.7687  -24.9957 C   0  0  0  0  0  0  0  0  0  0  0  0
    2.9290  -45.9146  -24.4866 C   0  0  0  0  0  0  0  0  0  0  0  0
    2.5615  -45.9998  -23.1595 C   0  0  0  0  0  0  0  0  0  0  0  0
    3.1693  -46.9250  -22.3619 C   0  0  0  0  0  0  0  0  0  0  0  0
    2.7944  -46.9928  -21.0613 F   0  0  0  0  0  0  0  0  0  0  0  0
    4.1346  -47.7627  -22.8685 C   0  0  0  0  0  0  0  0  0  0  0  0
 20 21  1  0  0  0
 21 14  1  0  0  0
 14 15  2  0  0  0
 15 16  1  0  0  0
 16 17  2  0  0  0
 17 18  1  0  0  0
 18 19  2  0  0  0
 19 13  1  0  0  0
 13 12  1  0  0  0
 12 10  1  0  0  0
 10 11  2  0  0  0
 11  1  1  0  0  0
  1  2  2  0  0  0
  2  3  1  0  0  0
  2  4  1  0  0  0
  4  5  2  0  0  0
  5  6  1  0  0  0
  6  7  2  0  0  0
  7 22  1  0  0  0
 22 24  1  0  0  0
 24 25  2  0  0  0
 25 26  1  0  0  0
 26 27  2  0  0  0
 27 28  1  0  0  0
 28 33  1  0  0  0
 33 34  1  0  0  0
 34 35  2  0  0  0
 35 36  1  0  0  0
 36 37  2  0  0  0
 37 38  1  0  0  0
 38 39  1  0  0  0
 38 40  2  0  0  0
 28 29  1  0  0  0
 29 30  2  0  0  0
 30 31  1  0  0  0
 31 32  2  0  0  0
 19 14  1  0  0  0
  7  1  1  0  0  0
 32 24  1  0  0  0
 31 27  1  0  0  0
 40 34  1  0  0  0
  3  8  1  0  0  0
  3  9  1  0  0  0
 22 23  1  0  0  0
M  END
> <minimizedAffinity>
-8.76329

> <CNNscore>
0.4865256846

> <CNNaffinity>
7.7081575394

> <CNN_VS>
3.7502167225

> <CNNaffinity_variance>
0.1491310894

$$$$
[H]/C(=N\OC([H])([H])c1c([H])c([H])c([H])c([H])c1OC([H])([H])[H])c1c(N([H])[H])nc([H])nc1N([H])c1c([H])c([H])c2c(c([H])nn2C([H])([H])c2c([H])c([H])c([H])c(F)c2[H])c1[H]


 40 44  0  0  0  0  0  0  0  0999 V2000
   -0.6780  -52.8699  -26.8913 C   0  0  0  0  0  0  0  0  0  0  0  0
   -1.6866  -52.6320  -27.8368 C   0  0  0  0  0  0  0  0  0  0  0  0
   -2.9893  -52.4073  -27.2973 N   0  0  0  0  0  0  0  0  0  0  0  0
   -1.4355  -52.6183  -29.1580 N   0  0  0  0  0  0  0  0  0  0  0  0
   -0.1883  -52.8358  -29.6232 C   0  0  0  0  0  0  0  0  0  0  0  0
    0.7816  -53.0635  -28.7383 N   0  0  0  0  0  0  0  0  0  0  0  0
    0.5847  -53.0892  -27.3859 C   0  0  0  0  0  0  0  0  0  0  0  0
   -3.6510  -53.1879  -27.1405 H   0  0  0  0  0  0  0  0  0  0  0  0
   -3.3181  -51.4355  -27.0410 H   0  0  0  0  0  0  0  0  0  0  0  0
   -0.6236  -53.8757  -24.7053 N   0  0  0  0  0  0  0  0  0  0  0  0
   -0.9659  -52.8784  -25.4801 C   0  0  0  0  0  0  0  0  0  0  0  0
   -0.8990  -53.8827  -23.3588 O   0  0  0  0  0  0  0  0  0  0  0  0
    0.2051  -53.9225  -22.4742 C   0  0  0  0  0  0  0  0  0  0  0  0
    0.1445  -52.3030  -20.5791 C   0  0  0  0  0  0  0  0  0  0  0  0
    0.3644  -51.0386  -20.0454 C   0  0  0  0  0  0  0  0  0  0  0  0
    0.8814  -50.0228  -20.8206 C   0  0  0  0  0  0  0  0  0  0  0  0
    1.1669  -50.3188  -22.1382 C   0  0  0  0  0  0  0  0  0  0  0  0
    0.9602  -51.5555  -22.6902 C   0  0  0  0  0  0  0  0  0  0  0  0
    0.4421  -52.5564  -21.8953 C   0  0  0  0  0  0  0  0  0  0  0  0
   -1.7753  -53.5466  -19.8675 C   0  0  0  0  0  0  0  0  0  0  0  0
   -0.3761  -53.3500  -19.8236 O   0  0  0  0  0  0  0  0  0  0  0  0
    1.6448  -53.3758  -26.4979 N   0  0  0  0  0  0  0  0  0  0  0  0
    1.9026  -54.3498  -26.2122 H   0  0  0  0  0  0  0  0  0  0  0  0
    2.4253  -52.3252  -25.9455 C   0  0  0  0  0  0  0  0  0  0  0  0
    2.0452  -51.0014  -26.1249 C   0  0  0  0  0  0  0  0  0  0  0  0
    2.7914  -49.9598  -25.6416 C   0  0  0  0  0  0  0  0  0  0  0  0
    3.9638  -50.1756  -24.9489 C   0  0  0  0  0  0  0  0  0  0  0  0
    4.8858  -49.3849  -24.3693 N   0  0  0  0  0  0  0  0  0  0  0  0
    5.8133  -50.1725  -23.8441 N   0  0  0  0  0  0  0  0  0  0  0  0
    5.5223  -51.4643  -24.0649 C   0  0  0  0  0  0  0  0  0  0  0  0
    4.3463  -51.4843  -24.7682 C   0  0  0  0  0  0  0  0  0  0  0  0
    3.5770  -52.5520  -25.2668 C   0  0  0  0  0  0  0  0  0  0  0  0
    4.8869  -47.9549  -24.3155 C   0  0  0  0  0  0  0  0  0  0  0  0
    4.4357  -47.3022  -25.5586 C   0  0  0  0  0  0  0  0  0  0  0  0
    5.2321  -47.2691  -26.6665 C   0  0  0  0  0  0  0  0  0  0  0  0
    4.8032  -46.6506  -27.8438 C   0  0  0  0  0  0  0  0  0  0  0  0
    3.5571  -46.0610  -27.8986 C   0  0  0  0  0  0  0  0  0  0  0  0
    2.7597  -46.0933  -26.7920 C   0  0  0  0  0  0  0  0  0  0  0  0
    1.5394  -45.5084  -26.8660 F   0  0  0  0  0  0  0  0  0  0  0  0
    3.1872  -46.7032  -25.6364 C   0  0  0  0  0  0  0  0  0  0  0  0
 20 21  1  0  0  0
 21 14  1  0  0  0
 14 15  2  0  0  0
 15 16  1  0  0  0
 16 17  2  0  0  0
 17 18  1  0  0  0
 18 19  2  0  0  0
 19 13  1  0  0  0
 13 12  1  0  0  0
 12 10  1  0  0  0
 10 11  2  0  0  0
 11  1  1  0  0  0
  1  2  2  0  0  0
  2  3  1  0  0  0
  2  4  1  0  0  0
  4  5  2  0  0  0
  5  6  1  0  0  0
  6  7  2  0  0  0
  7 22  1  0  0  0
 22 24  1  0  0  0
 24 25  2  0  0  0
 25 26  1  0  0  0
 26 27  2  0  0  0
 27 28  1  0  0  0
 28 33  1  0  0  0
 33 34  1  0  0  0
 34 35  2  0  0  0
 35 36  1  0  0  0
 36 37  2  0  0  0
 37 38  1  0  0  0
 38 39  1  0  0  0
 38 40  2  0  0  0
 28 29  1  0  0  0
 29 30  2  0  0  0
 30 31  1  0  0  0
 31 32  2  0  0  0
 19 14  1  0  0  0
  7  1  1  0  0  0
 32 24  1  0  0  0
 31 27  1  0  0  0
 40 34  1  0  0  0
  3  8  1  0  0  0
  3  9  1  0  0  0
 22 23  1  0  0  0
M  END
> <minimizedAffinity>
-8.67053

> <CNNscore>
0.3797905445

> <CNNaffinity>
7.4424200058

> <CNN_VS>
2.8265607357

> <CNNaffinity_variance>
0.4392418861

$$$$
[H]/C(=N\OC([H])([H])c1c([H])c([H])c([H])c([H])c1OC([H])([H])[H])c1c(N([H])[H])nc([H])nc1N([H])c1c([H])c([H])c2c(c([H])nn2C([H])([H])c2c([H])c([H])c([H])c(F)c2[H])c1[H]


 40 44  0  0  0  0  0  0  0  0999 V2000
   -0.4463  -52.8466  -26.8009 C   0  0  0  0  0  0  0  0  0  0  0  0
   -1.5719  -52.6009  -27.6012 C   0  0  0  0  0  0  0  0  0  0  0  0
   -2.7906  -52.3803  -26.8908 N   0  0  0  0  0  0  0  0  0  0  0  0
   -1.4995  -52.5766  -28.9440 N   0  0  0  0  0  0  0  0  0  0  0  0
   -0.3259  -52.7905  -29.5734 C   0  0  0  0  0  0  0  0  0  0  0  0
    0.7532  -53.0255  -28.8278 N   0  0  0  0  0  0  0  0  0  0  0  0
    0.7387  -53.0621  -27.4616 C   0  0  0  0  0  0  0  0  0  0  0  0
   -3.4263  -53.1620  -26.6533 H   0  0  0  0  0  0  0  0  0  0  0  0
   -3.0810  -51.4106  -26.5852 H   0  0  0  0  0  0  0  0  0  0  0  0
   -0.5799  -53.9836  -24.6836 N   0  0  0  0  0  0  0  0  0  0  0  0
   -0.5432  -52.8664  -25.3641 C   0  0  0  0  0  0  0  0  0  0  0  0
   -0.6724  -54.0012  -23.3125 O   0  0  0  0  0  0  0  0  0  0  0  0
   -0.8755  -52.7602  -22.6631 C   0  0  0  0  0  0  0  0  0  0  0  0
    0.3474  -52.4957  -20.5061 C   0  0  0  0  0  0  0  0  0  0  0  0
    1.4820  -52.1549  -19.7790 C   0  0  0  0  0  0  0  0  0  0  0  0
    2.6224  -51.7102  -20.4130 C   0  0  0  0  0  0  0  0  0  0  0  0
    2.5834  -51.6208  -21.7899 C   0  0  0  0  0  0  0  0  0  0  0  0
    1.4795  -51.9499  -22.5313 C   0  0  0  0  0  0  0  0  0  0  0  0
    0.3499  -52.3923  -21.8752 C   0  0  0  0  0  0  0  0  0  0  0  0
   -0.8859  -52.8695  -18.4868 C   0  0  0  0  0  0  0  0  0  0  0  0
   -0.8197  -52.9478  -19.8967 O   0  0  0  0  0  0  0  0  0  0  0  0
    1.9076  -53.3560  -26.7254 N   0  0  0  0  0  0  0  0  0  0  0  0
    2.2342  -54.3335  -26.5392 H   0  0  0  0  0  0  0  0  0  0  0  0
    2.7086  -52.3083  -26.1975 C   0  0  0  0  0  0  0  0  0  0  0  0
    3.7293  -52.5917  -25.2992 C   0  0  0  0  0  0  0  0  0  0  0  0
    4.4975  -51.6063  -24.7385 C   0  0  0  0  0  0  0  0  0  0  0  0
    4.2940  -50.2765  -25.0402 C   0  0  0  0  0  0  0  0  0  0  0  0
    4.8655  -49.1174  -24.6646 N   0  0  0  0  0  0  0  0  0  0  0  0
    4.2345  -48.1383  -25.2967 N   0  0  0  0  0  0  0  0  0  0  0  0
    3.2603  -48.6271  -26.0804 C   0  0  0  0  0  0  0  0  0  0  0  0
    3.2843  -49.9889  -25.9287 C   0  0  0  0  0  0  0  0  0  0  0  0
    2.4968  -51.0042  -26.5025 C   0  0  0  0  0  0  0  0  0  0  0  0
    5.9553  -48.9469  -23.7530 C   0  0  0  0  0  0  0  0  0  0  0  0
    5.5961  -48.2496  -22.5041 C   0  0  0  0  0  0  0  0  0  0  0  0
    4.8177  -48.8525  -21.5589 C   0  0  0  0  0  0  0  0  0  0  0  0
    4.4783  -48.1907  -20.3760 C   0  0  0  0  0  0  0  0  0  0  0  0
    4.9317  -46.9076  -20.1492 C   0  0  0  0  0  0  0  0  0  0  0  0
    5.7100  -46.3035  -21.0929 C   0  0  0  0  0  0  0  0  0  0  0  0
    6.1452  -45.0429  -20.8514 F   0  0  0  0  0  0  0  0  0  0  0  0
    6.0405  -46.9596  -22.2550 C   0  0  0  0  0  0  0  0  0  0  0  0
 20 21  1  0  0  0
 21 14  1  0  0  0
 14 15  2  0  0  0
 15 16  1  0  0  0
 16 17  2  0  0  0
 17 18  1  0  0  0
 18 19  2  0  0  0
 19 13  1  0  0  0
 13 12  1  0  0  0
 12 10  1  0  0  0
 10 11  2  0  0  0
 11  1  1  0  0  0
  1  2  2  0  0  0
  2  3  1  0  0  0
  2  4  1  0  0  0
  4  5  2  0  0  0
  5  6  1  0  0  0
  6  7  2  0  0  0
  7 22  1  0  0  0
 22 24  1  0  0  0
 24 25  2  0  0  0
 25 26  1  0  0  0
 26 27  2  0  0  0
 27 28  1  0  0  0
 28 33  1  0  0  0
 33 34  1  0  0  0
 34 35  2  0  0  0
 35 36  1  0  0  0
 36 37  2  0  0  0
 37 38  1  0  0  0
 38 39  1  0  0  0
 38 40  2  0  0  0
 28 29  1  0  0  0
 29 30  2  0  0  0
 30 31  1  0  0  0
 31 32  2  0  0  0
 19 14  1  0  0  0
  7  1  1  0  0  0
 32 24  1  0  0  0
 31 27  1  0  0  0
 40 34  1  0  0  0
  3  8  1  0  0  0
  3  9  1  0  0  0
 22 23  1  0  0  0
M  END
> <minimizedAffinity>
-8.02999

> <CNNscore>
0.3461599052

> <CNNaffinity>
7.4661536217

> <CNN_VS>
2.5844831467

> <CNNaffinity_variance>
0.1816771328

$$$$
[H]/C(=N\OC([H])([H])c1c([H])c([H])c([H])c([H])c1OC([H])([H])[H])c1c(N([H])[H])nc([H])nc1N([H])c1c([H])c([H])c2c(c([H])nn2C([H])([H])c2c([H])c([H])c([H])c(F)c2[H])c1[H]


 40 44  0  0  0  0  0  0  0  0999 V2000
   -0.6339  -52.8468  -26.7991 C   0  0  0  0  0  0  0  0  0  0  0  0
   -1.6508  -52.6100  -27.7359 C   0  0  0  0  0  0  0  0  0  0  0  0
   -2.9345  -52.3174  -27.1836 N   0  0  0  0  0  0  0  0  0  0  0  0
   -1.4239  -52.6574  -29.0607 N   0  0  0  0  0  0  0  0  0  0  0  0
   -0.1940  -52.9380  -29.5381 C   0  0  0  0  0  0  0  0  0  0  0  0
    0.7834  -53.1655  -28.6615 N   0  0  0  0  0  0  0  0  0  0  0  0
    0.6109  -53.1308  -27.3061 C   0  0  0  0  0  0  0  0  0  0  0  0
   -3.6204  -53.0667  -26.9844 H   0  0  0  0  0  0  0  0  0  0  0  0
   -3.2239  -51.3250  -26.9608 H   0  0  0  0  0  0  0  0  0  0  0  0
   -0.7855  -53.8400  -24.6118 N   0  0  0  0  0  0  0  0  0  0  0  0
   -0.8958  -52.7893  -25.3840 C   0  0  0  0  0  0  0  0  0  0  0  0
   -1.0357  -53.7839  -23.2616 O   0  0  0  0  0  0  0  0  0  0  0  0
    0.0816  -53.8439  -22.3949 C   0  0  0  0  0  0  0  0  0  0  0  0
    0.1542  -52.1837  -20.5357 C   0  0  0  0  0  0  0  0  0  0  0  0
    0.4334  -50.9150  -20.0412 C   0  0  0  0  0  0  0  0  0  0  0  0
    0.9412  -49.9309  -20.8620 C   0  0  0  0  0  0  0  0  0  0  0  0
    1.1565  -50.2627  -22.1846 C   0  0  0  0  0  0  0  0  0  0  0  0
    0.8904  -51.5044  -22.6985 C   0  0  0  0  0  0  0  0  0  0  0  0
    0.3828  -52.4731  -21.8583 C   0  0  0  0  0  0  0  0  0  0  0  0
   -0.8542  -52.8319  -18.4618 C   0  0  0  0  0  0  0  0  0  0  0  0
   -0.3590  -53.1993  -19.7338 O   0  0  0  0  0  0  0  0  0  0  0  0
    1.6764  -53.4204  -26.4256 N   0  0  0  0  0  0  0  0  0  0  0  0
    1.9106  -54.3921  -26.1129 H   0  0  0  0  0  0  0  0  0  0  0  0
    2.4957  -52.3763  -25.9188 C   0  0  0  0  0  0  0  0  0  0  0  0
    3.5127  -52.6596  -25.0162 C   0  0  0  0  0  0  0  0  0  0  0  0
    4.2981  -51.6767  -24.4754 C   0  0  0  0  0  0  0  0  0  0  0  0
    4.1167  -50.3496  -24.8026 C   0  0  0  0  0  0  0  0  0  0  0  0
    4.7081  -49.1933  -24.4499 N   0  0  0  0  0  0  0  0  0  0  0  0
    4.0929  -48.2161  -25.1002 N   0  0  0  0  0  0  0  0  0  0  0  0
    3.1095  -48.7034  -25.8733 C   0  0  0  0  0  0  0  0  0  0  0  0
    3.1108  -50.0622  -25.6954 C   0  0  0  0  0  0  0  0  0  0  0  0
    2.3055  -51.0750  -26.2486 C   0  0  0  0  0  0  0  0  0  0  0  0
    5.8019  -49.0237  -23.5429 C   0  0  0  0  0  0  0  0  0  0  0  0
    7.0827  -48.6927  -24.1947 C   0  0  0  0  0  0  0  0  0  0  0  0
    7.8103  -49.6472  -24.8447 C   0  0  0  0  0  0  0  0  0  0  0  0
    9.0235  -49.3321  -25.4621 C   0  0  0  0  0  0  0  0  0  0  0  0
    9.5031  -48.0392  -25.4205 C   0  0  0  0  0  0  0  0  0  0  0  0
    8.7771  -47.0838  -24.7712 C   0  0  0  0  0  0  0  0  0  0  0  0
    9.2654  -45.8199  -24.7415 F   0  0  0  0  0  0  0  0  0  0  0  0
    7.5840  -47.3999  -24.1655 C   0  0  0  0  0  0  0  0  0  0  0  0
 20 21  1  0  0  0
 21 14  1  0  0  0
 14 15  2  0  0  0
 15 16  1  0  0  0
 16 17  2  0  0  0
 17 18  1  0  0  0
 18 19  2  0  0  0
 19 13  1  0  0  0
 13 12  1  0  0  0
 12 10  1  0  0  0
 10 11  2  0  0  0
 11  1  1  0  0  0
  1  2  2  0  0  0
  2  3  1  0  0  0
  2  4  1  0  0  0
  4  5  2  0  0  0
  5  6  1  0  0  0
  6  7  2  0  0  0
  7 22  1  0  0  0
 22 24  1  0  0  0
 24 25  2  0  0  0
 25 26  1  0  0  0
 26 27  2  0  0  0
 27 28  1  0  0  0
 28 33  1  0  0  0
 33 34  1  0  0  0
 34 35  2  0  0  0
 35 36  1  0  0  0
 36 37  2  0  0  0
 37 38  1  0  0  0
 38 39  1  0  0  0
 38 40  2  0  0  0
 28 29  1  0  0  0
 29 30  2  0  0  0
 30 31  1  0  0  0
 31 32  2  0  0  0
 19 14  1  0  0  0
  7  1  1  0  0  0
 32 24  1  0  0  0
 31 27  1  0  0  0
 40 34  1  0  0  0
  3  8  1  0  0  0
  3  9  1  0  0  0
 22 23  1  0  0  0
M  END
> <minimizedAffinity>
-8.38154

> <CNNscore>
0.3356806338

> <CNNaffinity>
7.2476792336

> <CNN_VS>
2.4329056740

> <CNNaffinity_variance>
0.2948693037

$$$$
[H]/C(=N\OC([H])([H])c1c([H])c([H])c([H])c([H])c1OC([H])([H])[H])c1c(N([H])[H])nc([H])nc1N([H])c1c([H])c([H])c2c(c([H])nn2C([H])([H])c2c([H])c([H])c([H])c(F)c2[H])c1[H]


 40 44  0  0  0  0  0  0  0  0999 V2000
    1.8614  -52.0841  -26.9437 C   0  0  0  0  0  0  0  0  0  0  0  0
    2.2132  -53.0106  -27.9364 C   0  0  0  0  0  0  0  0  0  0  0  0
    3.4974  -52.8136  -28.5286 N   0  0  0  0  0  0  0  0  0  0  0  0
    1.3921  -54.0120  -28.2993 N   0  0  0  0  0  0  0  0  0  0  0  0
    0.1868  -54.1600  -27.7122 C   0  0  0  0  0  0  0  0  0  0  0  0
   -0.1630  -53.2881  -26.7671 N   0  0  0  0  0  0  0  0  0  0  0  0
    0.6299  -52.2525  -26.3586 C   0  0  0  0  0  0  0  0  0  0  0  0
    3.6190  -52.2246  -29.3712 H   0  0  0  0  0  0  0  0  0  0  0  0
    4.3643  -53.2640  -28.1239 H   0  0  0  0  0  0  0  0  0  0  0  0
    2.3582  -49.7760  -26.4750 N   0  0  0  0  0  0  0  0  0  0  0  0
    2.7553  -51.0195  -26.5669 C   0  0  0  0  0  0  0  0  0  0  0  0
    3.2121  -48.7610  -26.1155 O   0  0  0  0  0  0  0  0  0  0  0  0
    4.2702  -48.4614  -27.0064 C   0  0  0  0  0  0  0  0  0  0  0  0
    4.4321  -47.4034  -29.2587 C   0  0  0  0  0  0  0  0  0  0  0  0
    3.9956  -46.4946  -30.2155 C   0  0  0  0  0  0  0  0  0  0  0  0
    2.9285  -45.6591  -29.9640 C   0  0  0  0  0  0  0  0  0  0  0  0
    2.3209  -45.7675  -28.7293 C   0  0  0  0  0  0  0  0  0  0  0  0
    2.7300  -46.6537  -27.7680 C   0  0  0  0  0  0  0  0  0  0  0  0
    3.8000  -47.4796  -28.0422 C   0  0  0  0  0  0  0  0  0  0  0  0
    5.3752  -49.2050  -30.5248 C   0  0  0  0  0  0  0  0  0  0  0  0
    5.5061  -48.2607  -29.4810 O   0  0  0  0  0  0  0  0  0  0  0  0
    0.1883  -51.3355  -25.3795 N   0  0  0  0  0  0  0  0  0  0  0  0
   -0.1762  -50.3819  -25.6135 H   0  0  0  0  0  0  0  0  0  0  0  0
    0.2197  -51.6820  -24.0022 C   0  0  0  0  0  0  0  0  0  0  0  0
    1.2764  -51.2700  -23.2003 C   0  0  0  0  0  0  0  0  0  0  0  0
    1.3625  -51.6164  -21.8782 C   0  0  0  0  0  0  0  0  0  0  0  0
    0.3985  -52.3958  -21.2746 C   0  0  0  0  0  0  0  0  0  0  0  0
    0.2102  -52.8866  -20.0358 N   0  0  0  0  0  0  0  0  0  0  0  0
   -0.9180  -53.5817  -20.0493 N   0  0  0  0  0  0  0  0  0  0  0  0
   -1.4768  -53.5593  -21.2698 C   0  0  0  0  0  0  0  0  0  0  0  0
   -0.6503  -52.8076  -22.0633 C   0  0  0  0  0  0  0  0  0  0  0  0
   -0.7350  -52.4500  -23.4217 C   0  0  0  0  0  0  0  0  0  0  0  0
    1.0568  -52.7049  -18.8964 C   0  0  0  0  0  0  0  0  0  0  0  0
    0.7367  -51.5133  -18.0886 C   0  0  0  0  0  0  0  0  0  0  0  0
   -0.3546  -51.4894  -17.2694 C   0  0  0  0  0  0  0  0  0  0  0  0
   -0.6566  -50.3598  -16.5044 C   0  0  0  0  0  0  0  0  0  0  0  0
    0.1542  -49.2454  -16.5702 C   0  0  0  0  0  0  0  0  0  0  0  0
    1.2455  -49.2677  -17.3886 C   0  0  0  0  0  0  0  0  0  0  0  0
    2.0293  -48.1631  -17.4393 F   0  0  0  0  0  0  0  0  0  0  0  0
    1.5375  -50.3820  -18.1391 C   0  0  0  0  0  0  0  0  0  0  0  0
 20 21  1  0  0  0
 21 14  1  0  0  0
 14 15  2  0  0  0
 15 16  1  0  0  0
 16 17  2  0  0  0
 17 18  1  0  0  0
 18 19  2  0  0  0
 19 13  1  0  0  0
 13 12  1  0  0  0
 12 10  1  0  0  0
 10 11  2  0  0  0
 11  1  1  0  0  0
  1  2  2  0  0  0
  2  3  1  0  0  0
  2  4  1  0  0  0
  4  5  2  0  0  0
  5  6  1  0  0  0
  6  7  2  0  0  0
  7 22  1  0  0  0
 22 24  1  0  0  0
 24 25  2  0  0  0
 25 26  1  0  0  0
 26 27  2  0  0  0
 27 28  1  0  0  0
 28 33  1  0  0  0
 33 34  1  0  0  0
 34 35  2  0  0  0
 35 36  1  0  0  0
 36 37  2  0  0  0
 37 38  1  0  0  0
 38 39  1  0  0  0
 38 40  2  0  0  0
 28 29  1  0  0  0
 29 30  2  0  0  0
 30 31  1  0  0  0
 31 32  2  0  0  0
 19 14  1  0  0  0
  7  1  1  0  0  0
 32 24  1  0  0  0
 31 27  1  0  0  0
 40 34  1  0  0  0
  3  8  1  0  0  0
  3  9  1  0  0  0
 22 23  1  0  0  0
M  END
> <minimizedAffinity>
-7.44203

> <CNNscore>
0.3353119493

> <CNNaffinity>
7.1204938889

> <CNN_VS>
2.3875865936

> <CNNaffinity_variance>
0.4081245959

$$$$
[H]/C(=N\OC([H])([H])c1c([H])c([H])c([H])c([H])c1OC([H])([H])[H])c1c(N([H])[H])nc([H])nc1N([H])c1c([H])c([H])c2c(c([H])nn2C([H])([H])c2c([H])c([H])c([H])c(F)c2[H])c1[H]


 40 44  0  0  0  0  0  0  0  0999 V2000
   -0.5607  -52.8976  -26.8043 C   0  0  0  0  0  0  0  0  0  0  0  0
   -1.6550  -52.5444  -27.6076 C   0  0  0  0  0  0  0  0  0  0  0  0
   -2.8377  -52.1718  -26.8999 N   0  0  0  0  0  0  0  0  0  0  0  0
   -1.5865  -52.5583  -28.9508 N   0  0  0  0  0  0  0  0  0  0  0  0
   -0.4475  -52.9175  -29.5776 C   0  0  0  0  0  0  0  0  0  0  0  0
    0.6016  -53.2561  -28.8290 N   0  0  0  0  0  0  0  0  0  0  0  0
    0.5894  -53.2603  -27.4623 C   0  0  0  0  0  0  0  0  0  0  0  0
   -3.5565  -52.8712  -26.6434 H   0  0  0  0  0  0  0  0  0  0  0  0
   -3.0154  -51.1689  -26.6158 H   0  0  0  0  0  0  0  0  0  0  0  0
   -0.9155  -53.9490  -24.6683 N   0  0  0  0  0  0  0  0  0  0  0  0
   -0.6525  -52.8743  -25.3671 C   0  0  0  0  0  0  0  0  0  0  0  0
   -1.0030  -53.9255  -23.2970 O   0  0  0  0  0  0  0  0  0  0  0  0
    0.2091  -54.0098  -22.5712 C   0  0  0  0  0  0  0  0  0  0  0  0
    0.5767  -51.8224  -21.4318 C   0  0  0  0  0  0  0  0  0  0  0  0
    0.5117  -51.0028  -20.3111 C   0  0  0  0  0  0  0  0  0  0  0  0
    0.0112  -51.4747  -19.1166 C   0  0  0  0  0  0  0  0  0  0  0  0
   -0.4176  -52.7865  -19.0876 C   0  0  0  0  0  0  0  0  0  0  0  0
   -0.3651  -53.6163  -20.1764 C   0  0  0  0  0  0  0  0  0  0  0  0
    0.1396  -53.1221  -21.3609 C   0  0  0  0  0  0  0  0  0  0  0  0
    1.4971  -50.0294  -22.7265 C   0  0  0  0  0  0  0  0  0  0  0  0
    1.0764  -51.3769  -22.6523 O   0  0  0  0  0  0  0  0  0  0  0  0
    1.7210  -53.6678  -26.7221 N   0  0  0  0  0  0  0  0  0  0  0  0
    1.9875  -54.6725  -26.5934 H   0  0  0  0  0  0  0  0  0  0  0  0
    2.5660  -52.7041  -26.1095 C   0  0  0  0  0  0  0  0  0  0  0  0
    3.2820  -53.0276  -24.9640 C   0  0  0  0  0  0  0  0  0  0  0  0
    4.0763  -52.1151  -24.3224 C   0  0  0  0  0  0  0  0  0  0  0  0
    4.2050  -50.8226  -24.7848 C   0  0  0  0  0  0  0  0  0  0  0  0
    4.8868  -49.7329  -24.3862 N   0  0  0  0  0  0  0  0  0  0  0  0
    4.6155  -48.7576  -25.2414 N   0  0  0  0  0  0  0  0  0  0  0  0
    3.7702  -49.1811  -26.1945 C   0  0  0  0  0  0  0  0  0  0  0  0
    3.4982  -50.4955  -25.9184 C   0  0  0  0  0  0  0  0  0  0  0  0
    2.6826  -51.4359  -26.5748 C   0  0  0  0  0  0  0  0  0  0  0  0
    5.7526  -49.6223  -23.2521 C   0  0  0  0  0  0  0  0  0  0  0  0
    5.0490  -49.4308  -21.9702 C   0  0  0  0  0  0  0  0  0  0  0  0
    4.6540  -48.1900  -21.5613 C   0  0  0  0  0  0  0  0  0  0  0  0
    3.9872  -48.0101  -20.3466 C   0  0  0  0  0  0  0  0  0  0  0  0
    3.7185  -49.0966  -19.5399 C   0  0  0  0  0  0  0  0  0  0  0  0
    4.1127  -50.3377  -19.9471 C   0  0  0  0  0  0  0  0  0  0  0  0
    3.8396  -51.3920  -19.1405 F   0  0  0  0  0  0  0  0  0  0  0  0
    4.7685  -50.5085  -21.1434 C   0  0  0  0  0  0  0  0  0  0  0  0
 20 21  1  0  0  0
 21 14  1  0  0  0
 14 15  2  0  0  0
 15 16  1  0  0  0
 16 17  2  0  0  0
 17 18  1  0  0  0
 18 19  2  0  0  0
 19 13  1  0  0  0
 13 12  1  0  0  0
 12 10  1  0  0  0
 10 11  2  0  0  0
 11  1  1  0  0  0
  1  2  2  0  0  0
  2  3  1  0  0  0
  2  4  1  0  0  0
  4  5  2  0  0  0
  5  6  1  0  0  0
  6  7  2  0  0  0
  7 22  1  0  0  0
 22 24  1  0  0  0
 24 25  2  0  0  0
 25 26  1  0  0  0
 26 27  2  0  0  0
 27 28  1  0  0  0
 28 33  1  0  0  0
 33 34  1  0  0  0
 34 35  2  0  0  0
 35 36  1  0  0  0
 36 37  2  0  0  0
 37 38  1  0  0  0
 38 39  1  0  0  0
 38 40  2  0  0  0
 28 29  1  0  0  0
 29 30  2  0  0  0
 30 31  1  0  0  0
 31 32  2  0  0  0
 19 14  1  0  0  0
  7  1  1  0  0  0
 32 24  1  0  0  0
 31 27  1  0  0  0
 40 34  1  0  0  0
  3  8  1  0  0  0
  3  9  1  0  0  0
 22 23  1  0  0  0
M  END
> <minimizedAffinity>
-8.52963

> <CNNscore>
0.3258350492

> <CNNaffinity>
7.6068353653

> <CNN_VS>
2.4785735607

> <CNNaffinity_variance>
0.1355980635

$$$$
[H]/C(=N\OC([H])([H])c1c([H])c([H])c([H])c([H])c1OC([H])([H])[H])c1c(N([H])[H])nc([H])nc1N([H])c1c([H])c([H])c2c(c([H])nn2C([H])([H])c2c([H])c([H])c([H])c(F)c2[H])c1[H]


 40 44  0  0  0  0  0  0  0  0999 V2000
    0.0924  -53.6759  -23.4233 C   0  0  0  0  0  0  0  0  0  0  0  0
   -0.6590  -54.3296  -24.4112 C   0  0  0  0  0  0  0  0  0  0  0  0
   -1.7657  -55.0937  -23.9316 N   0  0  0  0  0  0  0  0  0  0  0  0
   -0.3516  -54.2377  -25.7173 N   0  0  0  0  0  0  0  0  0  0  0  0
    0.7039  -53.5038  -26.1254 C   0  0  0  0  0  0  0  0  0  0  0  0
    1.4284  -52.8763  -25.1995 N   0  0  0  0  0  0  0  0  0  0  0  0
    1.1630  -52.9340  -23.8600 C   0  0  0  0  0  0  0  0  0  0  0  0
   -1.6647  -56.0938  -23.6842 H   0  0  0  0  0  0  0  0  0  0  0  0
   -2.7232  -54.6606  -23.8142 H   0  0  0  0  0  0  0  0  0  0  0  0
   -1.0743  -52.9471  -21.4482 N   0  0  0  0  0  0  0  0  0  0  0  0
   -0.2537  -53.7844  -22.0295 C   0  0  0  0  0  0  0  0  0  0  0  0
   -1.4038  -53.0516  -20.1181 O   0  0  0  0  0  0  0  0  0  0  0  0
   -0.3391  -53.2136  -19.1999 C   0  0  0  0  0  0  0  0  0  0  0  0
   -0.3812  -51.5349  -17.3566 C   0  0  0  0  0  0  0  0  0  0  0  0
   -0.0319  -50.3013  -16.8197 C   0  0  0  0  0  0  0  0  0  0  0  0
    0.7352  -49.4083  -17.5368 C   0  0  0  0  0  0  0  0  0  0  0  0
    1.1353  -49.7944  -18.8003 C   0  0  0  0  0  0  0  0  0  0  0  0
    0.8058  -51.0034  -19.3540 C   0  0  0  0  0  0  0  0  0  0  0  0
    0.0374  -51.8806  -18.6177 C   0  0  0  0  0  0  0  0  0  0  0  0
   -2.4428  -52.0465  -16.2491 C   0  0  0  0  0  0  0  0  0  0  0  0
   -1.1542  -52.4588  -16.6589 O   0  0  0  0  0  0  0  0  0  0  0  0
    1.9912  -52.2798  -22.9216 N   0  0  0  0  0  0  0  0  0  0  0  0
    2.2532  -52.7018  -21.9995 H   0  0  0  0  0  0  0  0  0  0  0  0
    2.5174  -50.9903  -23.2013 C   0  0  0  0  0  0  0  0  0  0  0  0
    3.5574  -50.8402  -24.1097 C   0  0  0  0  0  0  0  0  0  0  0  0
    4.1175  -49.6194  -24.3769 C   0  0  0  0  0  0  0  0  0  0  0  0
    3.6737  -48.4725  -23.7535 C   0  0  0  0  0  0  0  0  0  0  0  0
    4.0108  -47.1706  -23.8044 N   0  0  0  0  0  0  0  0  0  0  0  0
    3.2192  -46.5204  -22.9635 N   0  0  0  0  0  0  0  0  0  0  0  0
    2.3682  -47.3655  -22.3603 C   0  0  0  0  0  0  0  0  0  0  0  0
    2.6443  -48.6143  -22.8524 C   0  0  0  0  0  0  0  0  0  0  0  0
    2.0716  -49.8706  -22.5801 C   0  0  0  0  0  0  0  0  0  0  0  0
    5.0314  -46.5732  -24.6102 C   0  0  0  0  0  0  0  0  0  0  0  0
    4.5446  -46.0088  -25.8828 C   0  0  0  0  0  0  0  0  0  0  0  0
    4.5520  -44.6623  -26.1054 C   0  0  0  0  0  0  0  0  0  0  0  0
    4.0907  -44.1290  -27.3117 C   0  0  0  0  0  0  0  0  0  0  0  0
    3.6183  -44.9673  -28.3004 C   0  0  0  0  0  0  0  0  0  0  0  0
    3.6102  -46.3136  -28.0795 C   0  0  0  0  0  0  0  0  0  0  0  0
    3.1422  -47.1201  -29.0630 F   0  0  0  0  0  0  0  0  0  0  0  0
    4.0653  -46.8325  -26.8905 C   0  0  0  0  0  0  0  0  0  0  0  0
 20 21  1  0  0  0
 21 14  1  0  0  0
 14 15  2  0  0  0
 15 16  1  0  0  0
 16 17  2  0  0  0
 17 18  1  0  0  0
 18 19  2  0  0  0
 19 13  1  0  0  0
 13 12  1  0  0  0
 12 10  1  0  0  0
 10 11  2  0  0  0
 11  1  1  0  0  0
  1  2  2  0  0  0
  2  3  1  0  0  0
  2  4  1  0  0  0
  4  5  2  0  0  0
  5  6  1  0  0  0
  6  7  2  0  0  0
  7 22  1  0  0  0
 22 24  1  0  0  0
 24 25  2  0  0  0
 25 26  1  0  0  0
 26 27  2  0  0  0
 27 28  1  0  0  0
 28 33  1  0  0  0
 33 34  1  0  0  0
 34 35  2  0  0  0
 35 36  1  0  0  0
 36 37  2  0  0  0
 37 38  1  0  0  0
 38 39  1  0  0  0
 38 40  2  0  0  0
 28 29  1  0  0  0
 29 30  2  0  0  0
 30 31  1  0  0  0
 31 32  2  0  0  0
 19 14  1  0  0  0
  7  1  1  0  0  0
 32 24  1  0  0  0
 31 27  1  0  0  0
 40 34  1  0  0  0
  3  8  1  0  0  0
  3  9  1  0  0  0
 22 23  1  0  0  0
M  END
> <minimizedAffinity>
-7.50710

> <CNNscore>
0.3078937829

> <CNNaffinity>
7.2182593346

> <CNN_VS>
2.2224571705

> <CNNaffinity_variance>
0.2164448947

$$$$
[H]/C(=N\OC([H])([H])c1c([H])c([H])c([H])c([H])c1OC([H])([H])[H])c1c(N([H])[H])nc([H])nc1N([H])c1c([H])c([H])c2c(c([H])nn2C([H])([H])c2c([H])c([H])c([H])c(F)c2[H])c1[H]


 40 44  0  0  0  0  0  0  0  0999 V2000
    0.0067  -53.7883  -23.3373 C   0  0  0  0  0  0  0  0  0  0  0  0
   -0.7055  -54.5008  -24.3135 C   0  0  0  0  0  0  0  0  0  0  0  0
   -1.7661  -55.3196  -23.8203 N   0  0  0  0  0  0  0  0  0  0  0  0
   -0.4037  -54.4130  -25.6212 N   0  0  0  0  0  0  0  0  0  0  0  0
    0.6075  -53.6261  -26.0423 C   0  0  0  0  0  0  0  0  0  0  0  0
    1.2943  -52.9424  -25.1277 N   0  0  0  0  0  0  0  0  0  0  0  0
    1.0326  -52.9930  -23.7872 C   0  0  0  0  0  0  0  0  0  0  0  0
   -1.6073  -56.3079  -23.5563 H   0  0  0  0  0  0  0  0  0  0  0  0
   -2.7471  -54.9408  -23.7094 H   0  0  0  0  0  0  0  0  0  0  0  0
   -1.1559  -53.0587  -21.3600 N   0  0  0  0  0  0  0  0  0  0  0  0
   -0.3328  -53.8934  -21.9416 C   0  0  0  0  0  0  0  0  0  0  0  0
   -1.4790  -53.1600  -20.0281 O   0  0  0  0  0  0  0  0  0  0  0  0
   -0.4083  -53.2947  -19.1124 C   0  0  0  0  0  0  0  0  0  0  0  0
    0.2683  -51.0682  -18.2163 C   0  0  0  0  0  0  0  0  0  0  0  0
    0.1963  -50.0640  -17.2580 C   0  0  0  0  0  0  0  0  0  0  0  0
   -0.6256  -50.1916  -16.1588 C   0  0  0  0  0  0  0  0  0  0  0  0
   -1.3656  -51.3524  -16.0569 C   0  0  0  0  0  0  0  0  0  0  0  0
   -1.3142  -52.3578  -16.9860 C   0  0  0  0  0  0  0  0  0  0  0  0
   -0.4846  -52.2080  -18.0776 C   0  0  0  0  0  0  0  0  0  0  0  0
    1.0315  -49.7674  -20.0774 C   0  0  0  0  0  0  0  0  0  0  0  0
    1.0878  -50.9705  -19.3374 O   0  0  0  0  0  0  0  0  0  0  0  0
    1.8213  -52.2764  -22.8605 N   0  0  0  0  0  0  0  0  0  0  0  0
    1.7888  -52.4503  -21.8282 H   0  0  0  0  0  0  0  0  0  0  0  0
    2.7158  -51.2664  -23.3055 C   0  0  0  0  0  0  0  0  0  0  0  0
    2.2643  -49.9675  -23.5009 C   0  0  0  0  0  0  0  0  0  0  0  0
    3.0859  -48.9755  -23.9659 C   0  0  0  0  0  0  0  0  0  0  0  0
    4.4096  -49.2190  -24.2647 C   0  0  0  0  0  0  0  0  0  0  0  0
    5.4337  -48.4761  -24.7234 N   0  0  0  0  0  0  0  0  0  0  0  0
    6.4916  -49.2690  -24.8164 N   0  0  0  0  0  0  0  0  0  0  0  0
    6.1866  -50.5177  -24.4289 C   0  0  0  0  0  0  0  0  0  0  0  0
    4.8630  -50.5034  -24.0740 C   0  0  0  0  0  0  0  0  0  0  0  0
    4.0155  -51.5203  -23.5964 C   0  0  0  0  0  0  0  0  0  0  0  0
    5.4107  -47.0844  -25.0559 C   0  0  0  0  0  0  0  0  0  0  0  0
    4.3701  -46.7127  -26.0325 C   0  0  0  0  0  0  0  0  0  0  0  0
    3.3432  -45.8827  -25.6870 C   0  0  0  0  0  0  0  0  0  0  0  0
    2.3580  -45.5312  -26.6134 C   0  0  0  0  0  0  0  0  0  0  0  0
    2.4141  -46.0249  -27.9005 C   0  0  0  0  0  0  0  0  0  0  0  0
    3.4400  -46.8547  -28.2476 C   0  0  0  0  0  0  0  0  0  0  0  0
    3.4772  -47.3291  -29.5166 F   0  0  0  0  0  0  0  0  0  0  0  0
    4.4064  -47.1971  -27.3316 C   0  0  0  0  0  0  0  0  0  0  0  0
 20 21  1  0  0  0
 21 14  1  0  0  0
 14 15  2  0  0  0
 15 16  1  0  0  0
 16 17  2  0  0  0
 17 18  1  0  0  0
 18 19  2  0  0  0
 19 13  1  0  0  0
 13 12  1  0  0  0
 12 10  1  0  0  0
 10 11  2  0  0  0
 11  1  1  0  0  0
  1  2  2  0  0  0
  2  3  1  0  0  0
  2  4  1  0  0  0
  4  5  2  0  0  0
  5  6  1  0  0  0
  6  7  2  0  0  0
  7 22  1  0  0  0
 22 24  1  0  0  0
 24 25  2  0  0  0
 25 26  1  0  0  0
 26 27  2  0  0  0
 27 28  1  0  0  0
 28 33  1  0  0  0
 33 34  1  0  0  0
 34 35  2  0  0  0
 35 36  1  0  0  0
 36 37  2  0  0  0
 37 38  1  0  0  0
 38 39  1  0  0  0
 38 40  2  0  0  0
 28 29  1  0  0  0
 29 30  2  0  0  0
 30 31  1  0  0  0
 31 32  2  0  0  0
 19 14  1  0  0  0
  7  1  1  0  0  0
 32 24  1  0  0  0
 31 27  1  0  0  0
 40 34  1  0  0  0
  3  8  1  0  0  0
  3  9  1  0  0  0
 22 23  1  0  0  0
M  END
> <minimizedAffinity>
-7.84574

> <CNNscore>
0.3015953600

> <CNNaffinity>
7.1482629776

> <CNN_VS>
2.1558828354

> <CNNaffinity_variance>
0.1538485587

$$$$
[H]/C(=N\OC([H])([H])c1c([H])c([H])c([H])c([H])c1OC([H])([H])[H])c1c(N([H])[H])nc([H])nc1N([H])c1c([H])c([H])c2c(c([H])nn2C([H])([H])c2c([H])c([H])c([H])c(F)c2[H])c1[H]


 40 44  0  0  0  0  0  0  0  0999 V2000
   -0.5922  -53.0196  -26.8222 C   0  0  0  0  0  0  0  0  0  0  0  0
   -1.6353  -52.6555  -27.6866 C   0  0  0  0  0  0  0  0  0  0  0  0
   -2.9015  -52.4445  -27.0615 N   0  0  0  0  0  0  0  0  0  0  0  0
   -1.4472  -52.5170  -29.0111 N   0  0  0  0  0  0  0  0  0  0  0  0
   -0.2326  -52.7266  -29.5588 C   0  0  0  0  0  0  0  0  0  0  0  0
    0.7693  -53.0732  -28.7516 N   0  0  0  0  0  0  0  0  0  0  0  0
    0.6365  -53.2285  -27.4001 C   0  0  0  0  0  0  0  0  0  0  0  0
   -3.5834  -53.2152  -26.9490 H   0  0  0  0  0  0  0  0  0  0  0  0
   -3.1814  -51.4934  -26.6939 H   0  0  0  0  0  0  0  0  0  0  0  0
   -0.6030  -52.1787  -24.5669 N   0  0  0  0  0  0  0  0  0  0  0  0
   -0.8125  -53.1608  -25.4059 C   0  0  0  0  0  0  0  0  0  0  0  0
   -0.8136  -52.3146  -23.2156 O   0  0  0  0  0  0  0  0  0  0  0  0
    0.1241  -53.0880  -22.4907 C   0  0  0  0  0  0  0  0  0  0  0  0
    1.1300  -51.5540  -20.8016 C   0  0  0  0  0  0  0  0  0  0  0  0
    1.2375  -51.0679  -19.5038 C   0  0  0  0  0  0  0  0  0  0  0  0
    0.4610  -51.5829  -18.4880 C   0  0  0  0  0  0  0  0  0  0  0  0
   -0.4188  -52.5939  -18.8184 C   0  0  0  0  0  0  0  0  0  0  0  0
   -0.5454  -53.0919  -20.0883 C   0  0  0  0  0  0  0  0  0  0  0  0
    0.2419  -52.5611  -21.0885 C   0  0  0  0  0  0  0  0  0  0  0  0
    1.6550  -49.7240  -22.2554 C   0  0  0  0  0  0  0  0  0  0  0  0
    1.8991  -51.0559  -21.8496 O   0  0  0  0  0  0  0  0  0  0  0  0
    1.7264  -53.6369  -26.6003 N   0  0  0  0  0  0  0  0  0  0  0  0
    1.9580  -54.6425  -26.4214 H   0  0  0  0  0  0  0  0  0  0  0  0
    2.5754  -52.6729  -25.9936 C   0  0  0  0  0  0  0  0  0  0  0  0
    2.7165  -51.4109  -26.5563 C   0  0  0  0  0  0  0  0  0  0  0  0
    3.5546  -50.4680  -26.0236 C   0  0  0  0  0  0  0  0  0  0  0  0
    4.3040  -50.7269  -24.8956 C   0  0  0  0  0  0  0  0  0  0  0  0
    5.1875  -50.0280  -24.1592 N   0  0  0  0  0  0  0  0  0  0  0  0
    5.5915  -50.8125  -23.1704 N   0  0  0  0  0  0  0  0  0  0  0  0
    4.9935  -52.0124  -23.2394 C   0  0  0  0  0  0  0  0  0  0  0  0
    4.1694  -51.9750  -24.3337 C   0  0  0  0  0  0  0  0  0  0  0  0
    3.3073  -52.9414  -24.8843 C   0  0  0  0  0  0  0  0  0  0  0  0
    5.6257  -48.6839  -24.3813 C   0  0  0  0  0  0  0  0  0  0  0  0
    4.6561  -47.6545  -23.9628 C   0  0  0  0  0  0  0  0  0  0  0  0
    3.8875  -46.9962  -24.8786 C   0  0  0  0  0  0  0  0  0  0  0  0
    2.9691  -46.0212  -24.4807 C   0  0  0  0  0  0  0  0  0  0  0  0
    2.8285  -45.7110  -23.1438 C   0  0  0  0  0  0  0  0  0  0  0  0
    3.5961  -46.3681  -22.2270 C   0  0  0  0  0  0  0  0  0  0  0  0
    3.4431  -46.0489  -20.9187 F   0  0  0  0  0  0  0  0  0  0  0  0
    4.4981  -47.3264  -22.6245 C   0  0  0  0  0  0  0  0  0  0  0  0
 20 21  1  0  0  0
 21 14  1  0  0  0
 14 15  2  0  0  0
 15 16  1  0  0  0
 16 17  2  0  0  0
 17 18  1  0  0  0
 18 19  2  0  0  0
 19 13  1  0  0  0
 13 12  1  0  0  0
 12 10  1  0  0  0
 10 11  2  0  0  0
 11  1  1  0  0  0
  1  2  2  0  0  0
  2  3  1  0  0  0
  2  4  1  0  0  0
  4  5  2  0  0  0
  5  6  1  0  0  0
  6  7  2  0  0  0
  7 22  1  0  0  0
 22 24  1  0  0  0
 24 25  2  0  0  0
 25 26  1  0  0  0
 26 27  2  0  0  0
 27 28  1  0  0  0
 28 33  1  0  0  0
 33 34  1  0  0  0
 34 35  2  0  0  0
 35 36  1  0  0  0
 36 37  2  0  0  0
 37 38  1  0  0  0
 38 39  1  0  0  0
 38 40  2  0  0  0
 28 29  1  0  0  0
 29 30  2  0  0  0
 30 31  1  0  0  0
 31 32  2  0  0  0
 19 14  1  0  0  0
  7  1  1  0  0  0
 32 24  1  0  0  0
 31 27  1  0  0  0
 40 34  1  0  0  0
  3  8  1  0  0  0
  3  9  1  0  0  0
 22 23  1  0  0  0
M  END
> <minimizedAffinity>
-8.47895

> <CNNscore>
0.2896343470

> <CNNaffinity>
7.1994848251

> <CNN_VS>
2.0852181911

> <CNNaffinity_variance>
0.2825288475

$$$$
[H]C([H])=C([H])C(=O)N([H])c1c([H])c(-n2c(=O)c([H])c(C([H])([H])[H])c3c([H])nc(N([H])c4c([H])c([H])c(N5C([H])([H])C([H])([H])N(C([H])([H])[H])C([H])(C([H])([H])[H])C5([H])[H])c([H])c4OC([H])([H])[H])nc32)c([H])c(C(F)(F)F)c1[H]


 46 50  0  0  0  0  0  0  0  0999 V2000
   -0.2117  -52.4429  -22.5462 C   0  0  0  0  0  0  0  0  0  0  0  0
   -0.8757  -53.3883  -23.2131 N   0  0  0  0  0  0  0  0  0  0  0  0
   -0.5747  -53.7958  -24.4357 C   0  0  0  0  0  0  0  0  0  0  0  0
    0.5019  -53.2002  -25.0630 C   0  0  0  0  0  0  0  0  0  0  0  0
    0.8644  -53.5810  -26.3369 C   0  0  0  0  0  0  0  0  0  0  0  0
    0.0938  -54.6402  -27.0546 C   0  0  0  0  0  0  0  0  0  0  0  0
    1.9547  -52.9409  -26.9062 C   0  0  0  0  0  0  0  0  0  0  0  0
    2.6181  -51.9696  -26.1896 C   0  0  0  0  0  0  0  0  0  0  0  0
    3.6161  -51.3870  -26.7160 O   0  0  0  0  0  0  0  0  0  0  0  0
    2.2694  -51.5953  -24.9500 N   0  0  0  0  0  0  0  0  0  0  0  0
    1.2092  -52.2128  -24.3878 C   0  0  0  0  0  0  0  0  0  0  0  0
    0.8594  -51.8455  -23.1612 N   0  0  0  0  0  0  0  0  0  0  0  0
    3.0057  -50.5729  -24.2449 C   0  0  0  0  0  0  0  0  0  0  0  0
    3.1041  -49.3041  -24.6752 C   0  0  0  0  0  0  0  0  0  0  0  0
    3.8201  -48.2982  -23.9966 C   0  0  0  0  0  0  0  0  0  0  0  0
    4.4307  -48.7005  -22.8355 C   0  0  0  0  0  0  0  0  0  0  0  0
    4.3644  -49.9981  -22.3401 C   0  0  0  0  0  0  0  0  0  0  0  0
    3.6435  -50.9147  -23.0674 C   0  0  0  0  0  0  0  0  0  0  0  0
    3.8701  -47.0018  -24.5561 N   0  0  0  0  0  0  0  0  0  0  0  0
    3.0964  -45.9108  -24.1731 C   0  0  0  0  0  0  0  0  0  0  0  0
    2.2174  -45.9815  -23.2348 O   0  0  0  0  0  0  0  0  0  0  0  0
    4.5665  -46.8618  -25.3344 H   0  0  0  0  0  0  0  0  0  0  0  0
    3.2294  -44.6022  -24.8146 C   0  0  0  0  0  0  0  0  0  0  0  0
    3.7013  -44.4525  -26.0084 C   0  0  0  0  0  0  0  0  0  0  0  0
    5.0463  -50.3770  -21.0751 C   0  0  0  0  0  0  0  0  0  0  0  0
    5.1306  -49.2417  -20.2904 F   0  0  0  0  0  0  0  0  0  0  0  0
    4.2623  -51.3041  -20.4166 F   0  0  0  0  0  0  0  0  0  0  0  0
    6.2784  -50.9415  -21.3084 F   0  0  0  0  0  0  0  0  0  0  0  0
   -0.5025  -51.9844  -21.2516 N   0  0  0  0  0  0  0  0  0  0  0  0
   -1.4122  -52.3582  -20.8295 H   0  0  0  0  0  0  0  0  0  0  0  0
    0.3209  -51.4072  -19.0399 C   0  0  0  0  0  0  0  0  0  0  0  0
    1.0088  -50.5535  -18.2340 C   0  0  0  0  0  0  0  0  0  0  0  0
    1.6305  -49.3891  -18.6496 C   0  0  0  0  0  0  0  0  0  0  0  0
    1.5306  -49.0955  -19.9827 C   0  0  0  0  0  0  0  0  0  0  0  0
    0.8292  -49.9511  -20.8456 C   0  0  0  0  0  0  0  0  0  0  0  0
    0.2170  -51.1033  -20.4191 C   0  0  0  0  0  0  0  0  0  0  0  0
    2.3220  -48.5607  -17.7194 N   0  0  0  0  0  0  0  0  0  0  0  0
    3.2588  -47.5914  -18.1862 C   0  0  0  0  0  0  0  0  0  0  0  0
    4.2877  -47.1479  -17.2070 C   0  0  0  0  0  0  0  0  0  0  0  0
    3.9013  -47.1238  -15.8393 N   0  0  0  0  0  0  0  0  0  0  0  0
    4.1391  -45.7895  -15.3143 C   0  0  0  0  0  0  0  0  0  0  0  0
    2.5550  -47.4908  -15.5479 C   0  0  0  0  0  0  0  0  0  0  0  0
    2.5213  -47.9092  -14.0709 C   0  0  0  0  0  0  0  0  0  0  0  0
    2.0674  -48.7036  -16.3190 C   0  0  0  0  0  0  0  0  0  0  0  0
   -1.0617  -52.6743  -17.4617 C   0  0  0  0  0  0  0  0  0  0  0  0
   -0.2917  -52.5600  -18.6167 O   0  0  0  0  0  0  0  0  0  0  0  0
 45 46  1  0  0  0
 46 31  1  0  0  0
 31 32  2  0  0  0
 32 33  1  0  0  0
 33 34  2  0  0  0
 34 35  1  0  0  0
 35 36  2  0  0  0
 36 29  1  0  0  0
 29  1  1  0  0  0
  1  2  2  0  0  0
  2  3  1  0  0  0
  3  4  2  0  0  0
  4  5  1  0  0  0
  5  6  1  0  0  0
  5  7  2  0  0  0
  7  8  1  0  0  0
  8  9  2  0  0  0
  8 10  1  0  0  0
 10 13  1  0  0  0
 13 14  2  0  0  0
 14 15  1  0  0  0
 15 19  1  0  0  0
 19 20  1  0  0  0
 20 21  2  0  0  0
 20 23  1  0  0  0
 23 24  2  0  0  0
 15 16  2  0  0  0
 16 17  1  0  0  0
 17 18  2  0  0  0
 17 25  1  0  0  0
 25 26  1  0  0  0
 25 27  1  0  0  0
 25 28  1  0  0  0
 10 11  1  0  0  0
 11 12  2  0  0  0
 33 37  1  0  0  0
 37 38  1  0  0  0
 38 39  1  0  0  0
 39 40  1  0  0  0
 40 41  1  0  0  0
 40 42  1  0  0  0
 42 43  1  0  0  0
 42 44  1  0  0  0
 36 31  1  0  0  0
 12  1  1  0  0  0
 44 37  1  0  0  0
 11  4  1  0  0  0
 18 13  1  0  0  0
 29 30  1  0  0  0
 19 22  1  0  0  0
M  END
> <minimizedAffinity>
-7.95945

> <CNNscore>
0.3608295619

> <CNNaffinity>
7.7546792030

> <CNN_VS>
2.7981173992

> <CNNaffinity_variance>
0.2133192718

$$$$
[H]C([H])=C([H])C(=O)N([H])c1c([H])c(-n2c(=O)c([H])c(C([H])([H])[H])c3c([H])nc(N([H])c4c([H])c([H])c(N5C([H])([H])C([H])([H])N(C([H])([H])[H])C([H])(C([H])([H])[H])C5([H])[H])c([H])c4OC([H])([H])[H])nc32)c([H])c(C(F)(F)F)c1[H]


 46 50  0  0  0  0  0  0  0  0999 V2000
   -0.2727  -52.5103  -22.2553 C   0  0  0  0  0  0  0  0  0  0  0  0
   -0.9314  -53.4949  -22.8687 N   0  0  0  0  0  0  0  0  0  0  0  0
   -0.6339  -53.9613  -24.0710 C   0  0  0  0  0  0  0  0  0  0  0  0
    0.4327  -53.3880  -24.7351 C   0  0  0  0  0  0  0  0  0  0  0  0
    0.7910  -53.8297  -25.9904 C   0  0  0  0  0  0  0  0  0  0  0  0
    0.0266  -54.9316  -26.6480 C   0  0  0  0  0  0  0  0  0  0  0  0
    1.8711  -53.2089  -26.5989 C   0  0  0  0  0  0  0  0  0  0  0  0
    2.5293  -52.1959  -25.9372 C   0  0  0  0  0  0  0  0  0  0  0  0
    3.5180  -51.6312  -26.4994 O   0  0  0  0  0  0  0  0  0  0  0  0
    2.1846  -51.7623  -24.7159 N   0  0  0  0  0  0  0  0  0  0  0  0
    1.1342  -52.3606  -24.1158 C   0  0  0  0  0  0  0  0  0  0  0  0
    0.7884  -51.9346  -22.9072 N   0  0  0  0  0  0  0  0  0  0  0  0
    2.9149  -50.6981  -24.0689 C   0  0  0  0  0  0  0  0  0  0  0  0
    2.9734  -49.4446  -24.5485 C   0  0  0  0  0  0  0  0  0  0  0  0
    3.6832  -48.3984  -23.9266 C   0  0  0  0  0  0  0  0  0  0  0  0
    4.3320  -48.7431  -22.7678 C   0  0  0  0  0  0  0  0  0  0  0  0
    4.3080  -50.0222  -22.2229 C   0  0  0  0  0  0  0  0  0  0  0  0
    3.5901  -50.9812  -22.8966 C   0  0  0  0  0  0  0  0  0  0  0  0
    3.6894  -47.1232  -24.5351 N   0  0  0  0  0  0  0  0  0  0  0  0
    2.9567  -46.0136  -24.1257 C   0  0  0  0  0  0  0  0  0  0  0  0
    2.1630  -46.0442  -23.1123 O   0  0  0  0  0  0  0  0  0  0  0  0
    4.3155  -47.0163  -25.3758 H   0  0  0  0  0  0  0  0  0  0  0  0
    3.0384  -44.7298  -24.8235 C   0  0  0  0  0  0  0  0  0  0  0  0
    3.8065  -44.5356  -25.8445 C   0  0  0  0  0  0  0  0  0  0  0  0
    5.0302  -50.3382  -20.9630 C   0  0  0  0  0  0  0  0  0  0  0  0
    5.0841  -49.1790  -20.2112 F   0  0  0  0  0  0  0  0  0  0  0  0
    4.2981  -51.2773  -20.2631 F   0  0  0  0  0  0  0  0  0  0  0  0
    6.2793  -50.8590  -21.2072 F   0  0  0  0  0  0  0  0  0  0  0  0
   -0.5600  -51.9893  -20.9838 N   0  0  0  0  0  0  0  0  0  0  0  0
   -1.4938  -52.3012  -20.5639 H   0  0  0  0  0  0  0  0  0  0  0  0
    0.3102  -51.4059  -18.7918 C   0  0  0  0  0  0  0  0  0  0  0  0
    1.0277  -50.5578  -18.0059 C   0  0  0  0  0  0  0  0  0  0  0  0
    1.6653  -49.4102  -18.4437 C   0  0  0  0  0  0  0  0  0  0  0  0
    1.5496  -49.1283  -19.7780 C   0  0  0  0  0  0  0  0  0  0  0  0
    0.8177  -49.9787  -20.6205 C   0  0  0  0  0  0  0  0  0  0  0  0
    0.1900  -51.1141  -20.1722 C   0  0  0  0  0  0  0  0  0  0  0  0
    2.3878  -48.5861  -17.5334 N   0  0  0  0  0  0  0  0  0  0  0  0
    2.3059  -48.8306  -16.1303 C   0  0  0  0  0  0  0  0  0  0  0  0
    2.6312  -47.6810  -15.2435 C   0  0  0  0  0  0  0  0  0  0  0  0
    3.5997  -46.7573  -15.7224 N   0  0  0  0  0  0  0  0  0  0  0  0
    4.6602  -46.6444  -14.7349 C   0  0  0  0  0  0  0  0  0  0  0  0
    4.1893  -47.0463  -16.9877 C   0  0  0  0  0  0  0  0  0  0  0  0
    4.7480  -45.7217  -17.5272 C   0  0  0  0  0  0  0  0  0  0  0  0
    3.1975  -47.5188  -18.0348 C   0  0  0  0  0  0  0  0  0  0  0  0
   -1.1610  -52.6036  -17.2398 C   0  0  0  0  0  0  0  0  0  0  0  0
   -0.3179  -52.5420  -18.3467 O   0  0  0  0  0  0  0  0  0  0  0  0
 45 46  1  0  0  0
 46 31  1  0  0  0
 31 32  2  0  0  0
 32 33  1  0  0  0
 33 34  2  0  0  0
 34 35  1  0  0  0
 35 36  2  0  0  0
 36 29  1  0  0  0
 29  1  1  0  0  0
  1  2  2  0  0  0
  2  3  1  0  0  0
  3  4  2  0  0  0
  4  5  1  0  0  0
  5  6  1  0  0  0
  5  7  2  0  0  0
  7  8  1  0  0  0
  8  9  2  0  0  0
  8 10  1  0  0  0
 10 13  1  0  0  0
 13 14  2  0  0  0
 14 15  1  0  0  0
 15 19  1  0  0  0
 19 20  1  0  0  0
 20 21  2  0  0  0
 20 23  1  0  0  0
 23 24  2  0  0  0
 15 16  2  0  0  0
 16 17  1  0  0  0
 17 18  2  0  0  0
 17 25  1  0  0  0
 25 26  1  0  0  0
 25 27  1  0  0  0
 25 28  1  0  0  0
 10 11  1  0  0  0
 11 12  2  0  0  0
 33 37  1  0  0  0
 37 38  1  0  0  0
 38 39  1  0  0  0
 39 40  1  0  0  0
 40 41  1  0  0  0
 40 42  1  0  0  0
 42 43  1  0  0  0
 42 44  1  0  0  0
 36 31  1  0  0  0
 12  1  1  0  0  0
 44 37  1  0  0  0
 11  4  1  0  0  0
 18 13  1  0  0  0
 29 30  1  0  0  0
 19 22  1  0  0  0
M  END
> <minimizedAffinity>
-7.86582

> <CNNscore>
0.3566583991

> <CNNaffinity>
7.7526063919

> <CNN_VS>
2.7650322914

> <CNNaffinity_variance>
0.1895462573

$$$$
[H]C([H])=C([H])C(=O)N([H])c1c([H])c(-n2c(=O)c([H])c(C([H])([H])[H])c3c([H])nc(N([H])c4c([H])c([H])c(N5C([H])([H])C([H])([H])N(C([H])([H])[H])C([H])(C([H])([H])[H])C5([H])[H])c([H])c4OC([H])([H])[H])nc32)c([H])c(C(F)(F)F)c1[H]


 46 50  0  0  0  0  0  0  0  0999 V2000
    1.0015  -52.5326  -21.3546 C   0  0  0  0  0  0  0  0  0  0  0  0
    0.0363  -53.2944  -21.8717 N   0  0  0  0  0  0  0  0  0  0  0  0
   -0.3392  -53.2710  -23.1406 C   0  0  0  0  0  0  0  0  0  0  0  0
    0.3149  -52.3971  -23.9866 C   0  0  0  0  0  0  0  0  0  0  0  0
   -0.0314  -52.3259  -25.3186 C   0  0  0  0  0  0  0  0  0  0  0  0
   -1.1212  -53.1914  -25.8610 C   0  0  0  0  0  0  0  0  0  0  0  0
    0.6661  -51.4262  -26.1100 C   0  0  0  0  0  0  0  0  0  0  0  0
    1.6573  -50.6552  -25.5441 C   0  0  0  0  0  0  0  0  0  0  0  0
    2.2929  -49.8331  -26.2739 O   0  0  0  0  0  0  0  0  0  0  0  0
    1.9979  -50.7204  -24.2487 N   0  0  0  0  0  0  0  0  0  0  0  0
    1.3243  -51.5933  -23.4705 C   0  0  0  0  0  0  0  0  0  0  0  0
    1.6570  -51.6613  -22.1874 N   0  0  0  0  0  0  0  0  0  0  0  0
    3.0495  -49.8897  -23.7114 C   0  0  0  0  0  0  0  0  0  0  0  0
    4.2502  -49.7473  -24.2969 C   0  0  0  0  0  0  0  0  0  0  0  0
    5.2840  -48.9405  -23.7820 C   0  0  0  0  0  0  0  0  0  0  0  0
    4.9861  -48.2885  -22.6121 C   0  0  0  0  0  0  0  0  0  0  0  0
    3.7625  -48.3962  -21.9603 C   0  0  0  0  0  0  0  0  0  0  0  0
    2.8114  -49.2056  -22.5343 C   0  0  0  0  0  0  0  0  0  0  0  0
    6.5137  -48.8836  -24.4755 N   0  0  0  0  0  0  0  0  0  0  0  0
    6.6884  -48.5396  -25.8122 C   0  0  0  0  0  0  0  0  0  0  0  0
    5.7030  -48.2323  -26.5819 O   0  0  0  0  0  0  0  0  0  0  0  0
    7.3718  -49.1239  -23.9133 H   0  0  0  0  0  0  0  0  0  0  0  0
    8.0110  -48.5045  -26.4375 C   0  0  0  0  0  0  0  0  0  0  0  0
    8.1858  -48.6189  -27.7129 C   0  0  0  0  0  0  0  0  0  0  0  0
    3.4953  -47.6654  -20.6941 C   0  0  0  0  0  0  0  0  0  0  0  0
    3.8680  -46.3478  -20.8865 F   0  0  0  0  0  0  0  0  0  0  0  0
    2.1370  -47.7019  -20.4465 F   0  0  0  0  0  0  0  0  0  0  0  0
    4.1445  -48.2396  -19.6264 F   0  0  0  0  0  0  0  0  0  0  0  0
    1.4249  -52.5288  -20.0161 N   0  0  0  0  0  0  0  0  0  0  0  0
    1.9648  -53.3996  -19.7066 H   0  0  0  0  0  0  0  0  0  0  0  0
    0.0486  -51.5721  -18.2575 C   0  0  0  0  0  0  0  0  0  0  0  0
   -0.1277  -50.6288  -17.2928 C   0  0  0  0  0  0  0  0  0  0  0  0
    0.7786  -49.6325  -16.9749 C   0  0  0  0  0  0  0  0  0  0  0  0
    1.9370  -49.6169  -17.7037 C   0  0  0  0  0  0  0  0  0  0  0  0
    2.1553  -50.5730  -18.7072 C   0  0  0  0  0  0  0  0  0  0  0  0
    1.2468  -51.5558  -19.0119 C   0  0  0  0  0  0  0  0  0  0  0  0
    0.4921  -48.6881  -15.9474 N   0  0  0  0  0  0  0  0  0  0  0  0
    1.5244  -47.8370  -15.4525 C   0  0  0  0  0  0  0  0  0  0  0  0
    1.3157  -47.2753  -14.0905 C   0  0  0  0  0  0  0  0  0  0  0  0
   -0.0277  -47.0194  -13.7028 N   0  0  0  0  0  0  0  0  0  0  0  0
   -0.1368  -45.6264  -13.3025 C   0  0  0  0  0  0  0  0  0  0  0  0
   -1.0367  -47.2912  -14.6724 C   0  0  0  0  0  0  0  0  0  0  0  0
   -2.3536  -47.4655  -13.9021 C   0  0  0  0  0  0  0  0  0  0  0  0
   -0.8348  -48.5959  -15.4210 C   0  0  0  0  0  0  0  0  0  0  0  0
   -1.7583  -53.1177  -17.6624 C   0  0  0  0  0  0  0  0  0  0  0  0
   -0.8574  -52.5563  -18.5641 O   0  0  0  0  0  0  0  0  0  0  0  0
 45 46  1  0  0  0
 46 31  1  0  0  0
 31 32  2  0  0  0
 32 33  1  0  0  0
 33 34  2  0  0  0
 34 35  1  0  0  0
 35 36  2  0  0  0
 36 29  1  0  0  0
 29  1  1  0  0  0
  1  2  2  0  0  0
  2  3  1  0  0  0
  3  4  2  0  0  0
  4  5  1  0  0  0
  5  6  1  0  0  0
  5  7  2  0  0  0
  7  8  1  0  0  0
  8  9  2  0  0  0
  8 10  1  0  0  0
 10 13  1  0  0  0
 13 14  2  0  0  0
 14 15  1  0  0  0
 15 19  1  0  0  0
 19 20  1  0  0  0
 20 21  2  0  0  0
 20 23  1  0  0  0
 23 24  2  0  0  0
 15 16  2  0  0  0
 16 17  1  0  0  0
 17 18  2  0  0  0
 17 25  1  0  0  0
 25 26  1  0  0  0
 25 27  1  0  0  0
 25 28  1  0  0  0
 10 11  1  0  0  0
 11 12  2  0  0  0
 33 37  1  0  0  0
 37 38  1  0  0  0
 38 39  1  0  0  0
 39 40  1  0  0  0
 40 41  1  0  0  0
 40 42  1  0  0  0
 42 43  1  0  0  0
 42 44  1  0  0  0
 36 31  1  0  0  0
 12  1  1  0  0  0
 44 37  1  0  0  0
 11  4  1  0  0  0
 18 13  1  0  0  0
 29 30  1  0  0  0
 19 22  1  0  0  0
M  END
> <minimizedAffinity>
-7.17491

> <CNNscore>
0.2333511412

> <CNNaffinity>
7.3353767395

> <CNN_VS>
1.7117185593

> <CNNaffinity_variance>
0.5902501345

$$$$
[H]C([H])=C([H])C(=O)N([H])c1c([H])c(-n2c(=O)c([H])c(C([H])([H])[H])c3c([H])nc(N([H])c4c([H])c([H])c(N5C([H])([H])C([H])([H])N(C([H])([H])[H])C([H])(C([H])([H])[H])C5([H])[H])c([H])c4OC([H])([H])[H])nc32)c([H])c(C(F)(F)F)c1[H]


 46 50  0  0  0  0  0  0  0  0999 V2000
   -0.3433  -52.6184  -18.6865 C   0  0  0  0  0  0  0  0  0  0  0  0
   -1.5195  -53.2324  -18.5486 N   0  0  0  0  0  0  0  0  0  0  0  0
   -2.3679  -53.0140  -17.5565 C   0  0  0  0  0  0  0  0  0  0  0  0
   -2.0093  -52.0858  -16.5989 C   0  0  0  0  0  0  0  0  0  0  0  0
   -2.8501  -51.8152  -15.5411 C   0  0  0  0  0  0  0  0  0  0  0  0
   -4.1577  -52.5263  -15.4171 C   0  0  0  0  0  0  0  0  0  0  0  0
   -2.4264  -50.8728  -14.6166 C   0  0  0  0  0  0  0  0  0  0  0  0
   -1.2064  -50.2573  -14.7895 C   0  0  0  0  0  0  0  0  0  0  0  0
   -0.8237  -49.3948  -13.9398 O   0  0  0  0  0  0  0  0  0  0  0  0
   -0.3845  -50.5171  -15.8169 N   0  0  0  0  0  0  0  0  0  0  0  0
   -0.7885  -51.4332  -16.7217 C   0  0  0  0  0  0  0  0  0  0  0  0
    0.0217  -51.6946  -17.7401 N   0  0  0  0  0  0  0  0  0  0  0  0
    0.8822  -49.8369  -15.9488 C   0  0  0  0  0  0  0  0  0  0  0  0
    1.6144  -49.8512  -17.0751 C   0  0  0  0  0  0  0  0  0  0  0  0
    2.8516  -49.1922  -17.2155 C   0  0  0  0  0  0  0  0  0  0  0  0
    3.2802  -48.5144  -16.1021 C   0  0  0  0  0  0  0  0  0  0  0  0
    2.5669  -48.4633  -14.9096 C   0  0  0  0  0  0  0  0  0  0  0  0
    1.3689  -49.1353  -14.8621 C   0  0  0  0  0  0  0  0  0  0  0  0
    3.5426  -49.2943  -18.4437 N   0  0  0  0  0  0  0  0  0  0  0  0
    3.8046  -50.4673  -19.1444 C   0  0  0  0  0  0  0  0  0  0  0  0
    3.4319  -51.6244  -18.7201 O   0  0  0  0  0  0  0  0  0  0  0  0
    3.8831  -48.3873  -18.8582 H   0  0  0  0  0  0  0  0  0  0  0  0
    4.5262  -50.4655  -20.4176 C   0  0  0  0  0  0  0  0  0  0  0  0
    4.8853  -49.3785  -21.0172 C   0  0  0  0  0  0  0  0  0  0  0  0
    3.0805  -47.7120  -13.7345 C   0  0  0  0  0  0  0  0  0  0  0  0
    3.4841  -48.6387  -12.7911 F   0  0  0  0  0  0  0  0  0  0  0  0
    4.1854  -46.9839  -14.1301 F   0  0  0  0  0  0  0  0  0  0  0  0
    2.1425  -46.8377  -13.2377 F   0  0  0  0  0  0  0  0  0  0  0  0
    0.5815  -52.8252  -19.7223 N   0  0  0  0  0  0  0  0  0  0  0  0
    1.5996  -52.9307  -19.4097 H   0  0  0  0  0  0  0  0  0  0  0  0
    0.7792  -51.8242  -21.9271 C   0  0  0  0  0  0  0  0  0  0  0  0
    0.5771  -51.9042  -23.2704 C   0  0  0  0  0  0  0  0  0  0  0  0
    0.0027  -52.9772  -23.9291 C   0  0  0  0  0  0  0  0  0  0  0  0
   -0.3840  -54.0293  -23.1438 C   0  0  0  0  0  0  0  0  0  0  0  0
   -0.1925  -53.9840  -21.7546 C   0  0  0  0  0  0  0  0  0  0  0  0
    0.3786  -52.9125  -21.1145 C   0  0  0  0  0  0  0  0  0  0  0  0
   -0.1685  -52.9567  -25.3434 N   0  0  0  0  0  0  0  0  0  0  0  0
   -1.3121  -52.3236  -25.9145 C   0  0  0  0  0  0  0  0  0  0  0  0
   -1.6951  -52.7692  -27.2815 C   0  0  0  0  0  0  0  0  0  0  0  0
   -0.6393  -53.1797  -28.1401 N   0  0  0  0  0  0  0  0  0  0  0  0
   -0.7070  -52.3984  -29.3638 C   0  0  0  0  0  0  0  0  0  0  0  0
    0.6837  -53.0870  -27.6173 C   0  0  0  0  0  0  0  0  0  0  0  0
    1.5539  -54.0424  -28.4466 C   0  0  0  0  0  0  0  0  0  0  0  0
    0.8138  -53.5687  -26.1841 C   0  0  0  0  0  0  0  0  0  0  0  0
    0.7099  -49.5443  -21.0300 C   0  0  0  0  0  0  0  0  0  0  0  0
    1.3503  -50.7547  -21.2844 O   0  0  0  0  0  0  0  0  0  0  0  0
 45 46  1  0  0  0
 46 31  1  0  0  0
 31 32  2  0  0  0
 32 33  1  0  0  0
 33 34  2  0  0  0
 34 35  1  0  0  0
 35 36  2  0  0  0
 36 29  1  0  0  0
 29  1  1  0  0  0
  1  2  2  0  0  0
  2  3  1  0  0  0
  3  4  2  0  0  0
  4  5  1  0  0  0
  5  6  1  0  0  0
  5  7  2  0  0  0
  7  8  1  0  0  0
  8  9  2  0  0  0
  8 10  1  0  0  0
 10 13  1  0  0  0
 13 14  2  0  0  0
 14 15  1  0  0  0
 15 19  1  0  0  0
 19 20  1  0  0  0
 20 21  2  0  0  0
 20 23  1  0  0  0
 23 24  2  0  0  0
 15 16  2  0  0  0
 16 17  1  0  0  0
 17 18  2  0  0  0
 17 25  1  0  0  0
 25 26  1  0  0  0
 25 27  1  0  0  0
 25 28  1  0  0  0
 10 11  1  0  0  0
 11 12  2  0  0  0
 33 37  1  0  0  0
 37 38  1  0  0  0
 38 39  1  0  0  0
 39 40  1  0  0  0
 40 41  1  0  0  0
 40 42  1  0  0  0
 42 43  1  0  0  0
 42 44  1  0  0  0
 36 31  1  0  0  0
 12  1  1  0  0  0
 44 37  1  0  0  0
 11  4  1  0  0  0
 18 13  1  0  0  0
 29 30  1  0  0  0
 19 22  1  0  0  0
M  END
> <minimizedAffinity>
-8.52232

> <CNNscore>
0.1903199404

> <CNNaffinity>
7.3457627296

> <CNN_VS>
1.3980451822

> <CNNaffinity_variance>
0.1291586310

$$$$
[H]C([H])=C([H])C(=O)N([H])c1c([H])c(-n2c(=O)c([H])c(C([H])([H])[H])c3c([H])nc(N([H])c4c([H])c([H])c(N5C([H])([H])C([H])([H])N(C([H])([H])[H])C([H])(C([H])([H])[H])C5([H])[H])c([H])c4OC([H])([H])[H])nc32)c([H])c(C(F)(F)F)c1[H]


 46 50  0  0  0  0  0  0  0  0999 V2000
   -0.2405  -52.0601  -23.4005 C   0  0  0  0  0  0  0  0  0  0  0  0
   -0.7157  -53.1453  -24.0136 N   0  0  0  0  0  0  0  0  0  0  0  0
   -0.2826  -53.5987  -25.1791 C   0  0  0  0  0  0  0  0  0  0  0  0
    0.7319  -52.8989  -25.8021 C   0  0  0  0  0  0  0  0  0  0  0  0
    1.2251  -53.3207  -27.0179 C   0  0  0  0  0  0  0  0  0  0  0  0
    0.6645  -54.5383  -27.6768 C   0  0  0  0  0  0  0  0  0  0  0  0
    2.2429  -52.5703  -27.5865 C   0  0  0  0  0  0  0  0  0  0  0  0
    2.7107  -51.4557  -26.9263 C   0  0  0  0  0  0  0  0  0  0  0  0
    3.6432  -50.7725  -27.4518 O   0  0  0  0  0  0  0  0  0  0  0  0
    2.2342  -51.0409  -25.7433 N   0  0  0  0  0  0  0  0  0  0  0  0
    1.2432  -51.7650  -25.1823 C   0  0  0  0  0  0  0  0  0  0  0  0
    0.7676  -51.3583  -24.0117 N   0  0  0  0  0  0  0  0  0  0  0  0
    2.7672  -49.8658  -25.0955 C   0  0  0  0  0  0  0  0  0  0  0  0
    3.3856  -49.8962  -23.9032 C   0  0  0  0  0  0  0  0  0  0  0  0
    3.9088  -48.7567  -23.2609 C   0  0  0  0  0  0  0  0  0  0  0  0
    3.7455  -47.5773  -23.9429 C   0  0  0  0  0  0  0  0  0  0  0  0
    3.1149  -47.4831  -25.1787 C   0  0  0  0  0  0  0  0  0  0  0  0
    2.6348  -48.6461  -25.7318 C   0  0  0  0  0  0  0  0  0  0  0  0
    4.5219  -48.9080  -21.9970 N   0  0  0  0  0  0  0  0  0  0  0  0
    5.8529  -49.2390  -21.7634 C   0  0  0  0  0  0  0  0  0  0  0  0
    6.6898  -49.4547  -22.7178 O   0  0  0  0  0  0  0  0  0  0  0  0
    3.9006  -48.7488  -21.1610 H   0  0  0  0  0  0  0  0  0  0  0  0
    6.3944  -49.3658  -20.4098 C   0  0  0  0  0  0  0  0  0  0  0  0
    5.7318  -49.0205  -19.3554 C   0  0  0  0  0  0  0  0  0  0  0  0
    2.9668  -46.1770  -25.8722 C   0  0  0  0  0  0  0  0  0  0  0  0
    2.2076  -46.3915  -27.0077 F   0  0  0  0  0  0  0  0  0  0  0  0
    2.2749  -45.3172  -25.0418 F   0  0  0  0  0  0  0  0  0  0  0  0
    4.1864  -45.6107  -26.1604 F   0  0  0  0  0  0  0  0  0  0  0  0
   -0.6755  -51.5492  -22.1673 N   0  0  0  0  0  0  0  0  0  0  0  0
   -1.7364  -51.5415  -22.0262 H   0  0  0  0  0  0  0  0  0  0  0  0
    0.1963  -51.8329  -19.9175 C   0  0  0  0  0  0  0  0  0  0  0  0
    0.9082  -51.3395  -18.8681 C   0  0  0  0  0  0  0  0  0  0  0  0
    1.5331  -50.1051  -18.8369 C   0  0  0  0  0  0  0  0  0  0  0  0
    1.4101  -49.3388  -19.9643 C   0  0  0  0  0  0  0  0  0  0  0  0
    0.6837  -49.8131  -21.0670 C   0  0  0  0  0  0  0  0  0  0  0  0
    0.0687  -51.0401  -21.0838 C   0  0  0  0  0  0  0  0  0  0  0  0
    2.2507  -49.6810  -17.6814 N   0  0  0  0  0  0  0  0  0  0  0  0
    2.5219  -48.2953  -17.4787 C   0  0  0  0  0  0  0  0  0  0  0  0
    3.6689  -47.9744  -16.5868 C   0  0  0  0  0  0  0  0  0  0  0  0
    3.9304  -48.8856  -15.5276 N   0  0  0  0  0  0  0  0  0  0  0  0
    3.9270  -48.1513  -14.2733 C   0  0  0  0  0  0  0  0  0  0  0  0
    3.0439  -49.9952  -15.4041 C   0  0  0  0  0  0  0  0  0  0  0  0
    3.7926  -51.0716  -14.6050 C   0  0  0  0  0  0  0  0  0  0  0  0
    2.6912  -50.6508  -16.7266 C   0  0  0  0  0  0  0  0  0  0  0  0
    0.1952  -54.2521  -20.3117 C   0  0  0  0  0  0  0  0  0  0  0  0
   -0.4191  -53.0593  -19.9376 O   0  0  0  0  0  0  0  0  0  0  0  0
 45 46  1  0  0  0
 46 31  1  0  0  0
 31 32  2  0  0  0
 32 33  1  0  0  0
 33 34  2  0  0  0
 34 35  1  0  0  0
 35 36  2  0  0  0
 36 29  1  0  0  0
 29  1  1  0  0  0
  1  2  2  0  0  0
  2  3  1  0  0  0
  3  4  2  0  0  0
  4  5  1  0  0  0
  5  6  1  0  0  0
  5  7  2  0  0  0
  7  8  1  0  0  0
  8  9  2  0  0  0
  8 10  1  0  0  0
 10 13  1  0  0  0
 13 14  2  0  0  0
 14 15  1  0  0  0
 15 19  1  0  0  0
 19 20  1  0  0  0
 20 21  2  0  0  0
 20 23  1  0  0  0
 23 24  2  0  0  0
 15 16  2  0  0  0
 16 17  1  0  0  0
 17 18  2  0  0  0
 17 25  1  0  0  0
 25 26  1  0  0  0
 25 27  1  0  0  0
 25 28  1  0  0  0
 10 11  1  0  0  0
 11 12  2  0  0  0
 33 37  1  0  0  0
 37 38  1  0  0  0
 38 39  1  0  0  0
 39 40  1  0  0  0
 40 41  1  0  0  0
 40 42  1  0  0  0
 42 43  1  0  0  0
 42 44  1  0  0  0
 36 31  1  0  0  0
 12  1  1  0  0  0
 44 37  1  0  0  0
 11  4  1  0  0  0
 18 13  1  0  0  0
 29 30  1  0  0  0
 19 22  1  0  0  0
M  END
> <minimizedAffinity>
-7.30122

> <CNNscore>
0.1057142094

> <CNNaffinity>
7.2945609093

> <CNN_VS>
0.7711387277

> <CNNaffinity_variance>
0.5430544019

$$$$
[H]C([H])=C([H])C(=O)N([H])c1c([H])c(-n2c(=O)c([H])c(C([H])([H])[H])c3c([H])nc(N([H])c4c([H])c([H])c(N5C([H])([H])C([H])([H])N(C([H])([H])[H])C([H])(C([H])([H])[H])C5([H])[H])c([H])c4OC([H])([H])[H])nc32)c([H])c(C(F)(F)F)c1[H]


 46 50  0  0  0  0  0  0  0  0999 V2000
   -0.9651  -52.8510  -17.8722 C   0  0  0  0  0  0  0  0  0  0  0  0
   -2.2324  -53.2525  -17.7615 N   0  0  0  0  0  0  0  0  0  0  0  0
   -3.1012  -52.7629  -16.8914 C   0  0  0  0  0  0  0  0  0  0  0  0
   -2.6639  -51.7671  -16.0402 C   0  0  0  0  0  0  0  0  0  0  0  0
   -3.5214  -51.2177  -15.1117 C   0  0  0  0  0  0  0  0  0  0  0  0
   -4.9328  -51.6963  -15.0136 C   0  0  0  0  0  0  0  0  0  0  0  0
   -3.0154  -50.2229  -14.2891 C   0  0  0  0  0  0  0  0  0  0  0  0
   -1.7024  -49.8317  -14.4304 C   0  0  0  0  0  0  0  0  0  0  0  0
   -1.2447  -48.9199  -13.6743 O   0  0  0  0  0  0  0  0  0  0  0  0
   -0.8640  -50.3631  -15.3321 N   0  0  0  0  0  0  0  0  0  0  0  0
   -1.3476  -51.3323  -16.1371 C   0  0  0  0  0  0  0  0  0  0  0  0
   -0.5216  -51.8622  -17.0309 N   0  0  0  0  0  0  0  0  0  0  0  0
    0.5027  -49.9097  -15.4375 C   0  0  0  0  0  0  0  0  0  0  0  0
    0.8881  -48.9076  -16.2451 C   0  0  0  0  0  0  0  0  0  0  0  0
    2.2182  -48.4569  -16.3571 C   0  0  0  0  0  0  0  0  0  0  0  0
    3.1261  -49.1203  -15.5707 C   0  0  0  0  0  0  0  0  0  0  0  0
    2.7874  -50.1636  -14.7160 C   0  0  0  0  0  0  0  0  0  0  0  0
    1.4656  -50.5375  -14.6702 C   0  0  0  0  0  0  0  0  0  0  0  0
    2.5083  -47.4061  -17.2559 N   0  0  0  0  0  0  0  0  0  0  0  0
    3.4240  -47.4490  -18.3025 C   0  0  0  0  0  0  0  0  0  0  0  0
    4.1309  -48.4937  -18.5608 O   0  0  0  0  0  0  0  0  0  0  0  0
    1.9700  -46.5122  -17.1097 H   0  0  0  0  0  0  0  0  0  0  0  0
    3.6476  -46.3030  -19.1848 C   0  0  0  0  0  0  0  0  0  0  0  0
    3.8713  -46.4279  -20.4515 C   0  0  0  0  0  0  0  0  0  0  0  0
    3.8144  -50.8461  -13.8863 C   0  0  0  0  0  0  0  0  0  0  0  0
    4.7573  -49.9003  -13.5284 F   0  0  0  0  0  0  0  0  0  0  0  0
    3.2079  -51.3130  -12.7366 F   0  0  0  0  0  0  0  0  0  0  0  0
    4.3739  -51.9162  -14.5444 F   0  0  0  0  0  0  0  0  0  0  0  0
   -0.0162  -53.3475  -18.7800 N   0  0  0  0  0  0  0  0  0  0  0  0
    0.8253  -53.8381  -18.3365 H   0  0  0  0  0  0  0  0  0  0  0  0
    0.8748  -52.3788  -20.8221 C   0  0  0  0  0  0  0  0  0  0  0  0
    0.8891  -52.3247  -22.1816 C   0  0  0  0  0  0  0  0  0  0  0  0
    0.1118  -53.1042  -23.0202 C   0  0  0  0  0  0  0  0  0  0  0  0
   -0.7302  -53.9927  -22.4080 C   0  0  0  0  0  0  0  0  0  0  0  0
   -0.7737  -54.0778  -21.0082 C   0  0  0  0  0  0  0  0  0  0  0  0
    0.0033  -53.2978  -20.1886 C   0  0  0  0  0  0  0  0  0  0  0  0
    0.2002  -52.9632  -24.4352 N   0  0  0  0  0  0  0  0  0  0  0  0
    1.4610  -53.1003  -25.0884 C   0  0  0  0  0  0  0  0  0  0  0  0
    1.5830  -52.4527  -26.4225 C   0  0  0  0  0  0  0  0  0  0  0  0
    0.4043  -52.3916  -27.2145 N   0  0  0  0  0  0  0  0  0  0  0  0
    0.6785  -53.0090  -28.5014 C   0  0  0  0  0  0  0  0  0  0  0  0
   -0.7672  -52.9909  -26.6662 C   0  0  0  0  0  0  0  0  0  0  0  0
   -1.9658  -52.3582  -27.3878 C   0  0  0  0  0  0  0  0  0  0  0  0
   -0.9809  -52.6894  -25.1943 C   0  0  0  0  0  0  0  0  0  0  0  0
    1.3945  -50.2669  -19.6919 C   0  0  0  0  0  0  0  0  0  0  0  0
    1.6508  -51.6008  -20.0000 O   0  0  0  0  0  0  0  0  0  0  0  0
 45 46  1  0  0  0
 46 31  1  0  0  0
 31 32  2  0  0  0
 32 33  1  0  0  0
 33 34  2  0  0  0
 34 35  1  0  0  0
 35 36  2  0  0  0
 36 29  1  0  0  0
 29  1  1  0  0  0
  1  2  2  0  0  0
  2  3  1  0  0  0
  3  4  2  0  0  0
  4  5  1  0  0  0
  5  6  1  0  0  0
  5  7  2  0  0  0
  7  8  1  0  0  0
  8  9  2  0  0  0
  8 10  1  0  0  0
 10 13  1  0  0  0
 13 14  2  0  0  0
 14 15  1  0  0  0
 15 19  1  0  0  0
 19 20  1  0  0  0
 20 21  2  0  0  0
 20 23  1  0  0  0
 23 24  2  0  0  0
 15 16  2  0  0  0
 16 17  1  0  0  0
 17 18  2  0  0  0
 17 25  1  0  0  0
 25 26  1  0  0  0
 25 27  1  0  0  0
 25 28  1  0  0  0
 10 11  1  0  0  0
 11 12  2  0  0  0
 33 37  1  0  0  0
 37 38  1  0  0  0
 38 39  1  0  0  0
 39 40  1  0  0  0
 40 41  1  0  0  0
 40 42  1  0  0  0
 42 43  1  0  0  0
 42 44  1  0  0  0
 36 31  1  0  0  0
 12  1  1  0  0  0
 44 37  1  0  0  0
 11  4  1  0  0  0
 18 13  1  0  0  0
 29 30  1  0  0  0
 19 22  1  0  0  0
M  END
> <minimizedAffinity>
-8.70477

> <CNNscore>
0.1022553220

> <CNNaffinity>
7.3340811729

> <CNN_VS>
0.7499488592

> <CNNaffinity_variance>
0.1749607176

$$$$
[H]C([H])=C([H])C(=O)N([H])c1c([H])c(-n2c(=O)c([H])c(C([H])([H])[H])c3c([H])nc(N([H])c4c([H])c([H])c(N5C([H])([H])C([H])([H])N(C([H])([H])[H])C([H])(C([H])([H])[H])C5([H])[H])c([H])c4OC([H])([H])[H])nc32)c([H])c(C(F)(F)F)c1[H]


 46 50  0  0  0  0  0  0  0  0999 V2000
    1.2228  -52.4933  -22.3572 C   0  0  0  0  0  0  0  0  0  0  0  0
    0.4501  -53.5153  -22.7285 N   0  0  0  0  0  0  0  0  0  0  0  0
    0.2842  -53.9145  -23.9794 C   0  0  0  0  0  0  0  0  0  0  0  0
    0.9586  -53.2243  -24.9673 C   0  0  0  0  0  0  0  0  0  0  0  0
    0.8258  -53.5917  -26.2889 C   0  0  0  0  0  0  0  0  0  0  0  0
   -0.0526  -54.7389  -26.6674 C   0  0  0  0  0  0  0  0  0  0  0  0
    1.5310  -52.8546  -27.2280 C   0  0  0  0  0  0  0  0  0  0  0  0
    2.3200  -51.8059  -26.8103 C   0  0  0  0  0  0  0  0  0  0  0  0
    2.9638  -51.1346  -27.6748 O   0  0  0  0  0  0  0  0  0  0  0  0
    2.4525  -51.4442  -25.5257 N   0  0  0  0  0  0  0  0  0  0  0  0
    1.7697  -52.1559  -24.6045 C   0  0  0  0  0  0  0  0  0  0  0  0
    1.8968  -51.8016  -23.3316 N   0  0  0  0  0  0  0  0  0  0  0  0
    3.2983  -50.3374  -25.1461 C   0  0  0  0  0  0  0  0  0  0  0  0
    4.4416  -50.4843  -24.4561 C   0  0  0  0  0  0  0  0  0  0  0  0
    5.2746  -49.4123  -24.0795 C   0  0  0  0  0  0  0  0  0  0  0  0
    4.8382  -48.1711  -24.4688 C   0  0  0  0  0  0  0  0  0  0  0  0
    3.6651  -47.9564  -25.1839 C   0  0  0  0  0  0  0  0  0  0  0  0
    2.9139  -49.0604  -25.5092 C   0  0  0  0  0  0  0  0  0  0  0  0
    6.4446  -49.6868  -23.3366 N   0  0  0  0  0  0  0  0  0  0  0  0
    6.6374  -49.4315  -21.9826 C   0  0  0  0  0  0  0  0  0  0  0  0
    5.7311  -48.8912  -21.2446 O   0  0  0  0  0  0  0  0  0  0  0  0
    7.2371  -50.1301  -23.8712 H   0  0  0  0  0  0  0  0  0  0  0  0
    7.8905  -49.7606  -21.3020 C   0  0  0  0  0  0  0  0  0  0  0  0
    8.1906  -49.3069  -20.1297 C   0  0  0  0  0  0  0  0  0  0  0  0
    3.2418  -46.5878  -25.5796 C   0  0  0  0  0  0  0  0  0  0  0  0
    2.7435  -45.9629  -24.4514 F   0  0  0  0  0  0  0  0  0  0  0  0
    4.3558  -45.8920  -26.0066 F   0  0  0  0  0  0  0  0  0  0  0  0
    2.3283  -46.6130  -26.6073 F   0  0  0  0  0  0  0  0  0  0  0  0
    1.4213  -52.0409  -21.0431 N   0  0  0  0  0  0  0  0  0  0  0  0
    2.3804  -51.6064  -20.8509 H   0  0  0  0  0  0  0  0  0  0  0  0
    0.7046  -51.0876  -18.9265 C   0  0  0  0  0  0  0  0  0  0  0  0
   -0.1278  -51.1214  -17.8506 C   0  0  0  0  0  0  0  0  0  0  0  0
   -1.1315  -52.0519  -17.6463 C   0  0  0  0  0  0  0  0  0  0  0  0
   -1.2780  -53.0035  -18.6191 C   0  0  0  0  0  0  0  0  0  0  0  0
   -0.4386  -53.0019  -19.7434 C   0  0  0  0  0  0  0  0  0  0  0  0
    0.5534  -52.0724  -19.9328 C   0  0  0  0  0  0  0  0  0  0  0  0
   -1.9455  -52.0006  -16.4781 N   0  0  0  0  0  0  0  0  0  0  0  0
   -1.5735  -51.1621  -15.3856 C   0  0  0  0  0  0  0  0  0  0  0  0
   -2.1338  -51.5282  -14.0567 C   0  0  0  0  0  0  0  0  0  0  0  0
   -3.4202  -52.1329  -14.0490 N   0  0  0  0  0  0  0  0  0  0  0  0
   -4.2930  -51.3541  -13.1862 C   0  0  0  0  0  0  0  0  0  0  0  0
   -4.0599  -52.2929  -15.3128 C   0  0  0  0  0  0  0  0  0  0  0  0
   -5.1124  -53.3972  -15.1381 C   0  0  0  0  0  0  0  0  0  0  0  0
   -3.1371  -52.7891  -16.4108 C   0  0  0  0  0  0  0  0  0  0  0  0
    2.4118  -49.5355  -18.0994 C   0  0  0  0  0  0  0  0  0  0  0  0
    1.6968  -50.1593  -19.1191 O   0  0  0  0  0  0  0  0  0  0  0  0
 45 46  1  0  0  0
 46 31  1  0  0  0
 31 32  2  0  0  0
 32 33  1  0  0  0
 33 34  2  0  0  0
 34 35  1  0  0  0
 35 36  2  0  0  0
 36 29  1  0  0  0
 29  1  1  0  0  0
  1  2  2  0  0  0
  2  3  1  0  0  0
  3  4  2  0  0  0
  4  5  1  0  0  0
  5  6  1  0  0  0
  5  7  2  0  0  0
  7  8  1  0  0  0
  8  9  2  0  0  0
  8 10  1  0  0  0
 10 13  1  0  0  0
 13 14  2  0  0  0
 14 15  1  0  0  0
 15 19  1  0  0  0
 19 20  1  0  0  0
 20 21  2  0  0  0
 20 23  1  0  0  0
 23 24  2  0  0  0
 15 16  2  0  0  0
 16 17  1  0  0  0
 17 18  2  0  0  0
 17 25  1  0  0  0
 25 26  1  0  0  0
 25 27  1  0  0  0
 25 28  1  0  0  0
 10 11  1  0  0  0
 11 12  2  0  0  0
 33 37  1  0  0  0
 37 38  1  0  0  0
 38 39  1  0  0  0
 39 40  1  0  0  0
 40 41  1  0  0  0
 40 42  1  0  0  0
 42 43  1  0  0  0
 42 44  1  0  0  0
 36 31  1  0  0  0
 12  1  1  0  0  0
 44 37  1  0  0  0
 11  4  1  0  0  0
 18 13  1  0  0  0
 29 30  1  0  0  0
 19 22  1  0  0  0
M  END
> <minimizedAffinity>
-8.04437

> <CNNscore>
0.0989666134

> <CNNaffinity>
7.3977861404

> <CNN_VS>
0.7321338654

> <CNNaffinity_variance>
0.4625909925

$$$$
[H]C([H])=C([H])C(=O)N([H])c1c([H])c(-n2c(=O)c([H])c(C([H])([H])[H])c3c([H])nc(N([H])c4c([H])c([H])c(N5C([H])([H])C([H])([H])N(C([H])([H])[H])C([H])(C([H])([H])[H])C5([H])[H])c([H])c4OC([H])([H])[H])nc32)c([H])c(C(F)(F)F)c1[H]


 46 50  0  0  0  0  0  0  0  0999 V2000
    1.4797  -49.1995  -19.5501 C   0  0  0  0  0  0  0  0  0  0  0  0
    0.9905  -49.4339  -18.3314 N   0  0  0  0  0  0  0  0  0  0  0  0
    0.3159  -50.5201  -17.9899 C   0  0  0  0  0  0  0  0  0  0  0  0
    0.1049  -51.4762  -18.9639 C   0  0  0  0  0  0  0  0  0  0  0  0
   -0.5913  -52.6287  -18.6700 C   0  0  0  0  0  0  0  0  0  0  0  0
   -1.1286  -52.8544  -17.2948 C   0  0  0  0  0  0  0  0  0  0  0  0
   -0.7665  -53.5450  -19.6957 C   0  0  0  0  0  0  0  0  0  0  0  0
   -0.2480  -53.2718  -20.9421 C   0  0  0  0  0  0  0  0  0  0  0  0
   -0.4113  -54.1150  -21.8775 O   0  0  0  0  0  0  0  0  0  0  0  0
    0.4300  -52.1520  -21.2333 N   0  0  0  0  0  0  0  0  0  0  0  0
    0.6054  -51.2541  -20.2411 C   0  0  0  0  0  0  0  0  0  0  0  0
    1.2752  -50.1437  -20.5243 N   0  0  0  0  0  0  0  0  0  0  0  0
    0.9549  -51.9214  -22.5584 C   0  0  0  0  0  0  0  0  0  0  0  0
    2.2122  -51.5107  -22.7936 C   0  0  0  0  0  0  0  0  0  0  0  0
    2.7352  -51.2817  -24.0816 C   0  0  0  0  0  0  0  0  0  0  0  0
    1.8605  -51.5081  -25.1142 C   0  0  0  0  0  0  0  0  0  0  0  0
    0.5490  -51.9335  -24.9333 C   0  0  0  0  0  0  0  0  0  0  0  0
    0.1230  -52.1322  -23.6418 C   0  0  0  0  0  0  0  0  0  0  0  0
    4.0686  -50.8311  -24.2054 N   0  0  0  0  0  0  0  0  0  0  0  0
    5.2155  -51.5840  -23.9740 C   0  0  0  0  0  0  0  0  0  0  0  0
    5.1708  -52.8161  -23.6027 O   0  0  0  0  0  0  0  0  0  0  0  0
    4.1908  -49.8285  -24.5054 H   0  0  0  0  0  0  0  0  0  0  0  0
    6.5574  -51.0233  -24.1371 C   0  0  0  0  0  0  0  0  0  0  0  0
    7.2661  -50.6029  -23.1416 C   0  0  0  0  0  0  0  0  0  0  0  0
   -0.3545  -52.1635  -26.0907 C   0  0  0  0  0  0  0  0  0  0  0  0
   -1.4758  -51.3755  -25.9075 F   0  0  0  0  0  0  0  0  0  0  0  0
    0.2897  -51.7439  -27.2382 F   0  0  0  0  0  0  0  0  0  0  0  0
   -0.6709  -53.4939  -26.2351 F   0  0  0  0  0  0  0  0  0  0  0  0
    2.1972  -48.0606  -19.9487 N   0  0  0  0  0  0  0  0  0  0  0  0
    2.2867  -47.2954  -19.2057 H   0  0  0  0  0  0  0  0  0  0  0  0
    4.1561  -48.1805  -21.3807 C   0  0  0  0  0  0  0  0  0  0  0  0
    4.7584  -47.8891  -22.5656 C   0  0  0  0  0  0  0  0  0  0  0  0
    4.1677  -47.2081  -23.6156 C   0  0  0  0  0  0  0  0  0  0  0  0
    2.8737  -46.8067  -23.4213 C   0  0  0  0  0  0  0  0  0  0  0  0
    2.2187  -47.0883  -22.2129 C   0  0  0  0  0  0  0  0  0  0  0  0
    2.8175  -47.7648  -21.1795 C   0  0  0  0  0  0  0  0  0  0  0  0
    4.8917  -46.9492  -24.8150 N   0  0  0  0  0  0  0  0  0  0  0  0
    4.3079  -46.1502  -25.8424 C   0  0  0  0  0  0  0  0  0  0  0  0
    4.8537  -46.3421  -27.2133 C   0  0  0  0  0  0  0  0  0  0  0  0
    6.2291  -46.6870  -27.3121 N   0  0  0  0  0  0  0  0  0  0  0  0
    6.8894  -45.7173  -28.1701 C   0  0  0  0  0  0  0  0  0  0  0  0
    6.9560  -46.7771  -26.0891 C   0  0  0  0  0  0  0  0  0  0  0  0
    8.1878  -47.6493  -26.3709 C   0  0  0  0  0  0  0  0  0  0  0  0
    6.2059  -47.4899  -24.9789 C   0  0  0  0  0  0  0  0  0  0  0  0
    4.9738  -50.2318  -20.3172 C   0  0  0  0  0  0  0  0  0  0  0  0
    4.7517  -48.8571  -20.3460 O   0  0  0  0  0  0  0  0  0  0  0  0
 45 46  1  0  0  0
 46 31  1  0  0  0
 31 32  2  0  0  0
 32 33  1  0  0  0
 33 34  2  0  0  0
 34 35  1  0  0  0
 35 36  2  0  0  0
 36 29  1  0  0  0
 29  1  1  0  0  0
  1  2  2  0  0  0
  2  3  1  0  0  0
  3  4  2  0  0  0
  4  5  1  0  0  0
  5  6  1  0  0  0
  5  7  2  0  0  0
  7  8  1  0  0  0
  8  9  2  0  0  0
  8 10  1  0  0  0
 10 13  1  0  0  0
 13 14  2  0  0  0
 14 15  1  0  0  0
 15 19  1  0  0  0
 19 20  1  0  0  0
 20 21  2  0  0  0
 20 23  1  0  0  0
 23 24  2  0  0  0
 15 16  2  0  0  0
 16 17  1  0  0  0
 17 18  2  0  0  0
 17 25  1  0  0  0
 25 26  1  0  0  0
 25 27  1  0  0  0
 25 28  1  0  0  0
 10 11  1  0  0  0
 11 12  2  0  0  0
 33 37  1  0  0  0
 37 38  1  0  0  0
 38 39  1  0  0  0
 39 40  1  0  0  0
 40 41  1  0  0  0
 40 42  1  0  0  0
 42 43  1  0  0  0
 42 44  1  0  0  0
 36 31  1  0  0  0
 12  1  1  0  0  0
 44 37  1  0  0  0
 11  4  1  0  0  0
 18 13  1  0  0  0
 29 30  1  0  0  0
 19 22  1  0  0  0
M  END
> <minimizedAffinity>
-8.40314

> <CNNscore>
0.0905997381

> <CNNaffinity>
7.1369886398

> <CNN_VS>
0.6466093063

> <CNNaffinity_variance>
0.2627700865

$$$$
[H]C([H])=C([H])C(=O)N([H])c1c([H])c(-n2c(=O)c([H])c(C([H])([H])[H])c3c([H])nc(N([H])c4c([H])c([H])c(N5C([H])([H])C([H])([H])N(C([H])([H])[H])C([H])(C([H])([H])[H])C5([H])[H])c([H])c4OC([H])([H])[H])nc32)c([H])c(C(F)(F)F)c1[H]


 46 50  0  0  0  0  0  0  0  0999 V2000
    0.1443  -52.4380  -22.2627 C   0  0  0  0  0  0  0  0  0  0  0  0
   -0.8604  -53.1758  -21.7878 N   0  0  0  0  0  0  0  0  0  0  0  0
   -1.2046  -53.2420  -20.5116 C   0  0  0  0  0  0  0  0  0  0  0  0
   -0.4720  -52.4945  -19.6106 C   0  0  0  0  0  0  0  0  0  0  0  0
   -0.7813  -52.5222  -18.2679 C   0  0  0  0  0  0  0  0  0  0  0  0
   -1.9108  -53.3644  -17.7721 C   0  0  0  0  0  0  0  0  0  0  0  0
   -0.0040  -51.7481  -17.4200 C   0  0  0  0  0  0  0  0  0  0  0  0
    1.0255  -50.9976  -17.9435 C   0  0  0  0  0  0  0  0  0  0  0  0
    1.7338  -50.2904  -17.1622 O   0  0  0  0  0  0  0  0  0  0  0  0
    1.3306  -50.9673  -19.2491 N   0  0  0  0  0  0  0  0  0  0  0  0
    0.5795  -51.7178  -20.0820 C   0  0  0  0  0  0  0  0  0  0  0  0
    0.8778  -51.6920  -21.3752 N   0  0  0  0  0  0  0  0  0  0  0  0
    2.4197  -50.1575  -19.7416 C   0  0  0  0  0  0  0  0  0  0  0  0
    2.4646  -48.8212  -19.6103 C   0  0  0  0  0  0  0  0  0  0  0  0
    3.5211  -48.0206  -20.0873 C   0  0  0  0  0  0  0  0  0  0  0  0
    4.5328  -48.7039  -20.7135 C   0  0  0  0  0  0  0  0  0  0  0  0
    4.5424  -50.0845  -20.8791 C   0  0  0  0  0  0  0  0  0  0  0  0
    3.4705  -50.7866  -20.3821 C   0  0  0  0  0  0  0  0  0  0  0  0
    3.4496  -46.6208  -19.9088 N   0  0  0  0  0  0  0  0  0  0  0  0
    3.7511  -45.9244  -18.7426 C   0  0  0  0  0  0  0  0  0  0  0  0
    4.1353  -46.5142  -17.6645 O   0  0  0  0  0  0  0  0  0  0  0  0
    3.1402  -46.0640  -20.7481 H   0  0  0  0  0  0  0  0  0  0  0  0
    3.6504  -44.4667  -18.6619 C   0  0  0  0  0  0  0  0  0  0  0  0
    3.0492  -43.8591  -17.6926 C   0  0  0  0  0  0  0  0  0  0  0  0
    5.6669  -50.7717  -21.5662 C   0  0  0  0  0  0  0  0  0  0  0  0
    5.2744  -52.0757  -21.8063 F   0  0  0  0  0  0  0  0  0  0  0  0
    5.8816  -50.1510  -22.7812 F   0  0  0  0  0  0  0  0  0  0  0  0
    6.8297  -50.7041  -20.8353 F   0  0  0  0  0  0  0  0  0  0  0  0
    0.5389  -52.3445  -23.6068 N   0  0  0  0  0  0  0  0  0  0  0  0
    0.1360  -53.0964  -24.2532 H   0  0  0  0  0  0  0  0  0  0  0  0
    1.5178  -51.4645  -25.6487 C   0  0  0  0  0  0  0  0  0  0  0  0
    2.3430  -50.5718  -26.2600 C   0  0  0  0  0  0  0  0  0  0  0  0
    3.0834  -49.5969  -25.6146 C   0  0  0  0  0  0  0  0  0  0  0  0
    2.9577  -49.5479  -24.2526 C   0  0  0  0  0  0  0  0  0  0  0  0
    2.1167  -50.4518  -23.5861 C   0  0  0  0  0  0  0  0  0  0  0  0
    1.3881  -51.4141  -24.2395 C   0  0  0  0  0  0  0  0  0  0  0  0
    3.9239  -48.7135  -26.3515 N   0  0  0  0  0  0  0  0  0  0  0  0
    4.6145  -47.6606  -25.6811 C   0  0  0  0  0  0  0  0  0  0  0  0
    5.0304  -46.5071  -26.5240 C   0  0  0  0  0  0  0  0  0  0  0  0
    5.3602  -46.7896  -27.8775 N   0  0  0  0  0  0  0  0  0  0  0  0
    6.7012  -46.2946  -28.1405 C   0  0  0  0  0  0  0  0  0  0  0  0
    5.2956  -48.1554  -28.2805 C   0  0  0  0  0  0  0  0  0  0  0  0
    5.1529  -48.1583  -29.8094 C   0  0  0  0  0  0  0  0  0  0  0  0
    4.0740  -48.8923  -27.7628 C   0  0  0  0  0  0  0  0  0  0  0  0
    0.8711  -52.7045  -27.6616 C   0  0  0  0  0  0  0  0  0  0  0  0
    0.7876  -52.4273  -26.2992 O   0  0  0  0  0  0  0  0  0  0  0  0
 45 46  1  0  0  0
 46 31  1  0  0  0
 31 32  2  0  0  0
 32 33  1  0  0  0
 33 34  2  0  0  0
 34 35  1  0  0  0
 35 36  2  0  0  0
 36 29  1  0  0  0
 29  1  1  0  0  0
  1  2  2  0  0  0
  2  3  1  0  0  0
  3  4  2  0  0  0
  4  5  1  0  0  0
  5  6  1  0  0  0
  5  7  2  0  0  0
  7  8  1  0  0  0
  8  9  2  0  0  0
  8 10  1  0  0  0
 10 13  1  0  0  0
 13 14  2  0  0  0
 14 15  1  0  0  0
 15 19  1  0  0  0
 19 20  1  0  0  0
 20 21  2  0  0  0
 20 23  1  0  0  0
 23 24  2  0  0  0
 15 16  2  0  0  0
 16 17  1  0  0  0
 17 18  2  0  0  0
 17 25  1  0  0  0
 25 26  1  0  0  0
 25 27  1  0  0  0
 25 28  1  0  0  0
 10 11  1  0  0  0
 11 12  2  0  0  0
 33 37  1  0  0  0
 37 38  1  0  0  0
 38 39  1  0  0  0
 39 40  1  0  0  0
 40 41  1  0  0  0
 40 42  1  0  0  0
 42 43  1  0  0  0
 42 44  1  0  0  0
 36 31  1  0  0  0
 12  1  1  0  0  0
 44 37  1  0  0  0
 11  4  1  0  0  0
 18 13  1  0  0  0
 29 30  1  0  0  0
 19 22  1  0  0  0
M  END
> <minimizedAffinity>
-7.36939

> <CNNscore>
0.0874441117

> <CNNaffinity>
7.1689119339

> <CNN_VS>
0.6268791556

> <CNNaffinity_variance>
0.4927085042

$$$$
[H]/C(C(=O)N([H])c1sc2nc([H])nc(N([H])c3c([H])c([H])c(F)c(Cl)c3[H])c2c1[H])=C(/[H])C([H])([H])N1C([H])([H])C([H])([H])C([H])(SC([H])([H])[H])C([H])([H])C1([H])[H]


 34 37  0  0  0  0  0  0  0  0999 V2000
    1.1453  -50.9252  -21.2580 C   0  0  0  0  0  0  0  0  0  0  0  0
    0.9289  -51.8502  -22.2363 C   0  0  0  0  0  0  0  0  0  0  0  0
    0.0134  -52.8190  -22.0261 C   0  0  0  0  0  0  0  0  0  0  0  0
   -0.3548  -53.8642  -22.9153 C   0  0  0  0  0  0  0  0  0  0  0  0
   -1.2789  -54.7065  -22.5063 N   0  0  0  0  0  0  0  0  0  0  0  0
   -1.9317  -54.7087  -21.3397 C   0  0  0  0  0  0  0  0  0  0  0  0
   -1.5943  -53.7239  -20.4844 N   0  0  0  0  0  0  0  0  0  0  0  0
   -0.6401  -52.8027  -20.8305 C   0  0  0  0  0  0  0  0  0  0  0  0
    0.0267  -51.4537  -20.0327 S   0  0  0  0  0  0  0  0  0  0  0  0
    3.3757  -49.9255  -20.8871 C   0  0  0  0  0  0  0  0  0  0  0  0
    4.0128  -50.9716  -20.6714 O   0  0  0  0  0  0  0  0  0  0  0  0
    2.0192  -49.8005  -21.1733 N   0  0  0  0  0  0  0  0  0  0  0  0
    1.5944  -48.8623  -21.3367 H   0  0  0  0  0  0  0  0  0  0  0  0
    4.1335  -47.8418  -21.8701 C   0  0  0  0  0  0  0  0  0  0  0  0
    4.1509  -48.6517  -20.8335 C   0  0  0  0  0  0  0  0  0  0  0  0
    4.8824  -46.5584  -21.8869 C   0  0  0  0  0  0  0  0  0  0  0  0
    4.5354  -44.8470  -25.6023 C   0  0  0  0  0  0  0  0  0  0  0  0
    3.2769  -44.7491  -24.7665 C   0  0  0  0  0  0  0  0  0  0  0  0
    3.5381  -45.2973  -23.4192 C   0  0  0  0  0  0  0  0  0  0  0  0
    4.7927  -45.9077  -23.1743 N   0  0  0  0  0  0  0  0  0  0  0  0
    5.3631  -46.6853  -24.2314 C   0  0  0  0  0  0  0  0  0  0  0  0
    4.9217  -46.3234  -25.6029 C   0  0  0  0  0  0  0  0  0  0  0  0
    2.9426  -45.2619  -28.0565 C   0  0  0  0  0  0  0  0  0  0  0  0
    4.2599  -44.2613  -27.2937 S   0  0  0  0  0  0  0  0  0  0  0  0
    0.2524  -53.9621  -24.1943 N   0  0  0  0  0  0  0  0  0  0  0  0
    1.1865  -54.5064  -24.2521 H   0  0  0  0  0  0  0  0  0  0  0  0
   -0.1962  -53.4536  -25.4055 C   0  0  0  0  0  0  0  0  0  0  0  0
   -1.3307  -52.6369  -25.4188 C   0  0  0  0  0  0  0  0  0  0  0  0
   -1.8365  -52.0702  -26.5707 C   0  0  0  0  0  0  0  0  0  0  0  0
   -1.2059  -52.3120  -27.7605 C   0  0  0  0  0  0  0  0  0  0  0  0
   -1.6875  -51.7656  -28.9075 F   0  0  0  0  0  0  0  0  0  0  0  0
   -0.0887  -53.1076  -27.7929 C   0  0  0  0  0  0  0  0  0  0  0  0
    0.6835  -53.3888  -29.3322 Cl  0  0  0  0  0  0  0  0  0  0  0  0
    0.4059  -53.6724  -26.6032 C   0  0  0  0  0  0  0  0  0  0  0  0
 23 24  1  0  0  0
 24 17  1  0  0  0
 17 18  1  0  0  0
 18 19  1  0  0  0
 19 20  1  0  0  0
 20 16  1  0  0  0
 16 14  1  0  0  0
 14 15  2  0  0  0
 15 10  1  0  0  0
 10 11  2  0  0  0
 10 12  1  0  0  0
 12  1  1  0  0  0
  1  2  2  0  0  0
  2  3  1  0  0  0
  3  4  2  0  0  0
  4 25  1  0  0  0
 25 27  1  0  0  0
 27 28  2  0  0  0
 28 29  1  0  0  0
 29 30  2  0  0  0
 30 31  1  0  0  0
 30 32  1  0  0  0
 32 33  1  0  0  0
 32 34  2  0  0  0
  4  5  1  0  0  0
  5  6  2  0  0  0
  6  7  1  0  0  0
  7  8  2  0  0  0
  8  9  1  0  0  0
 20 21  1  0  0  0
 21 22  1  0  0  0
 22 17  1  0  0  0
  9  1  1  0  0  0
  8  3  1  0  0  0
 34 27  1  0  0  0
 12 13  1  0  0  0
 25 26  1  0  0  0
M  END
> <minimizedAffinity>
-6.26623

> <CNNscore>
0.5736178756

> <CNNaffinity>
7.2394990921

> <CNN_VS>
4.1527061462

> <CNNaffinity_variance>
0.2324934900

$$$$
[H]/C(C(=O)N([H])c1sc2nc([H])nc(N([H])c3c([H])c([H])c(F)c(Cl)c3[H])c2c1[H])=C(/[H])C([H])([H])N1C([H])([H])C([H])([H])C([H])(SC([H])([H])[H])C([H])([H])C1([H])[H]


 34 37  0  0  0  0  0  0  0  0999 V2000
    1.3778  -50.0514  -22.2698 C   0  0  0  0  0  0  0  0  0  0  0  0
    1.2359  -51.1824  -23.0184 C   0  0  0  0  0  0  0  0  0  0  0  0
    0.4277  -52.1646  -22.5681 C   0  0  0  0  0  0  0  0  0  0  0  0
    0.1487  -53.4075  -23.1976 C   0  0  0  0  0  0  0  0  0  0  0  0
   -0.6767  -54.2247  -22.5800 N   0  0  0  0  0  0  0  0  0  0  0  0
   -1.3017  -54.0360  -21.4134 C   0  0  0  0  0  0  0  0  0  0  0  0
   -1.0479  -52.8620  -20.8027 N   0  0  0  0  0  0  0  0  0  0  0  0
   -0.1992  -51.9517  -21.3771 C   0  0  0  0  0  0  0  0  0  0  0  0
    0.3440  -50.4053  -20.9141 S   0  0  0  0  0  0  0  0  0  0  0  0
    3.4952  -48.7786  -22.1790 C   0  0  0  0  0  0  0  0  0  0  0  0
    4.2317  -49.6778  -21.7365 O   0  0  0  0  0  0  0  0  0  0  0  0
    2.1350  -48.8577  -22.4638 N   0  0  0  0  0  0  0  0  0  0  0  0
    1.6201  -48.0299  -22.8338 H   0  0  0  0  0  0  0  0  0  0  0  0
    4.0874  -46.9387  -23.6440 C   0  0  0  0  0  0  0  0  0  0  0  0
    4.1396  -47.4577  -22.4362 C   0  0  0  0  0  0  0  0  0  0  0  0
    4.7077  -45.6289  -23.9722 C   0  0  0  0  0  0  0  0  0  0  0  0
    4.1783  -44.8289  -27.9638 C   0  0  0  0  0  0  0  0  0  0  0  0
    2.9153  -45.2767  -27.2595 C   0  0  0  0  0  0  0  0  0  0  0  0
    3.1881  -45.4363  -25.8159 C   0  0  0  0  0  0  0  0  0  0  0  0
    4.5223  -45.2870  -25.3642 N   0  0  0  0  0  0  0  0  0  0  0  0
    5.5621  -45.7963  -26.2051 C   0  0  0  0  0  0  0  0  0  0  0  0
    5.2293  -45.8900  -27.6499 C   0  0  0  0  0  0  0  0  0  0  0  0
    2.5347  -45.7535  -30.2389 C   0  0  0  0  0  0  0  0  0  0  0  0
    3.9306  -44.6892  -29.7524 S   0  0  0  0  0  0  0  0  0  0  0  0
    0.7361  -53.7221  -24.4507 N   0  0  0  0  0  0  0  0  0  0  0  0
    1.6148  -54.3544  -24.4342 H   0  0  0  0  0  0  0  0  0  0  0  0
    0.3296  -53.3305  -25.7188 C   0  0  0  0  0  0  0  0  0  0  0  0
    1.2845  -53.2272  -26.7346 C   0  0  0  0  0  0  0  0  0  0  0  0
    0.9705  -52.8663  -28.0288 C   0  0  0  0  0  0  0  0  0  0  0  0
   -0.3331  -52.5951  -28.3435 C   0  0  0  0  0  0  0  0  0  0  0  0
   -0.6649  -52.2363  -29.6113 F   0  0  0  0  0  0  0  0  0  0  0  0
   -1.3027  -52.6847  -27.3770 C   0  0  0  0  0  0  0  0  0  0  0  0
   -2.9520  -52.3302  -27.8232 Cl  0  0  0  0  0  0  0  0  0  0  0  0
   -0.9546  -53.0555  -26.0654 C   0  0  0  0  0  0  0  0  0  0  0  0
 23 24  1  0  0  0
 24 17  1  0  0  0
 17 18  1  0  0  0
 18 19  1  0  0  0
 19 20  1  0  0  0
 20 16  1  0  0  0
 16 14  1  0  0  0
 14 15  2  0  0  0
 15 10  1  0  0  0
 10 11  2  0  0  0
 10 12  1  0  0  0
 12  1  1  0  0  0
  1  2  2  0  0  0
  2  3  1  0  0  0
  3  4  2  0  0  0
  4 25  1  0  0  0
 25 27  1  0  0  0
 27 28  2  0  0  0
 28 29  1  0  0  0
 29 30  2  0  0  0
 30 31  1  0  0  0
 30 32  1  0  0  0
 32 33  1  0  0  0
 32 34  2  0  0  0
  4  5  1  0  0  0
  5  6  2  0  0  0
  6  7  1  0  0  0
  7  8  2  0  0  0
  8  9  1  0  0  0
 20 21  1  0  0  0
 21 22  1  0  0  0
 22 17  1  0  0  0
  9  1  1  0  0  0
  8  3  1  0  0  0
 34 27  1  0  0  0
 12 13  1  0  0  0
 25 26  1  0  0  0
M  END
> <minimizedAffinity>
-7.34123

> <CNNscore>
0.5173373222

> <CNNaffinity>
7.2700891495

> <CNN_VS>
3.7610883713

> <CNNaffinity_variance>
0.1853755414

$$$$
[H]/C(C(=O)N([H])c1sc2nc([H])nc(N([H])c3c([H])c([H])c(F)c(Cl)c3[H])c2c1[H])=C(/[H])C([H])([H])N1C([H])([H])C([H])([H])C([H])(SC([H])([H])[H])C([H])([H])C1([H])[H]


 34 37  0  0  0  0  0  0  0  0999 V2000
    1.2599  -50.8123  -22.5056 C   0  0  0  0  0  0  0  0  0  0  0  0
    0.9153  -51.4660  -21.3595 C   0  0  0  0  0  0  0  0  0  0  0  0
    0.1359  -52.5642  -21.4450 C   0  0  0  0  0  0  0  0  0  0  0  0
   -0.3263  -53.3782  -20.3760 C   0  0  0  0  0  0  0  0  0  0  0  0
   -1.0802  -54.4106  -20.6863 N   0  0  0  0  0  0  0  0  0  0  0  0
   -1.4771  -54.8039  -21.9008 C   0  0  0  0  0  0  0  0  0  0  0  0
   -1.0477  -54.0426  -22.9262 N   0  0  0  0  0  0  0  0  0  0  0  0
   -0.2574  -52.9473  -22.6921 C   0  0  0  0  0  0  0  0  0  0  0  0
    0.4583  -51.7831  -23.7085 S   0  0  0  0  0  0  0  0  0  0  0  0
    3.3866  -49.7271  -23.1469 C   0  0  0  0  0  0  0  0  0  0  0  0
    4.0644  -50.7514  -23.3425 O   0  0  0  0  0  0  0  0  0  0  0  0
    2.0543  -49.6527  -22.7504 N   0  0  0  0  0  0  0  0  0  0  0  0
    1.5899  -48.7286  -22.6175 H   0  0  0  0  0  0  0  0  0  0  0  0
    3.4845  -47.4869  -24.0714 C   0  0  0  0  0  0  0  0  0  0  0  0
    4.0772  -48.4218  -23.3604 C   0  0  0  0  0  0  0  0  0  0  0  0
    4.1135  -46.1648  -24.3254 C   0  0  0  0  0  0  0  0  0  0  0  0
    3.7067  -45.2013  -28.2952 C   0  0  0  0  0  0  0  0  0  0  0  0
    2.4159  -45.6453  -27.6408 C   0  0  0  0  0  0  0  0  0  0  0  0
    2.6472  -45.8662  -26.1980 C   0  0  0  0  0  0  0  0  0  0  0  0
    3.9723  -45.7660  -25.7074 N   0  0  0  0  0  0  0  0  0  0  0  0
    5.0218  -46.2676  -26.5409 C   0  0  0  0  0  0  0  0  0  0  0  0
    4.7247  -46.2983  -27.9961 C   0  0  0  0  0  0  0  0  0  0  0  0
    3.4798  -46.6290  -30.8725 C   0  0  0  0  0  0  0  0  0  0  0  0
    3.5090  -44.9878  -30.0828 S   0  0  0  0  0  0  0  0  0  0  0  0
    0.0403  -53.0777  -19.0383 N   0  0  0  0  0  0  0  0  0  0  0  0
    1.0754  -53.2412  -18.7661 H   0  0  0  0  0  0  0  0  0  0  0  0
   -0.7564  -52.5874  -18.0128 C   0  0  0  0  0  0  0  0  0  0  0  0
   -0.3114  -51.4851  -17.2770 C   0  0  0  0  0  0  0  0  0  0  0  0
   -1.0441  -50.9169  -16.2552 C   0  0  0  0  0  0  0  0  0  0  0  0
   -2.2644  -51.4489  -15.9394 C   0  0  0  0  0  0  0  0  0  0  0  0
   -3.0023  -50.9064  -14.9357 F   0  0  0  0  0  0  0  0  0  0  0  0
   -2.7397  -52.5307  -16.6365 C   0  0  0  0  0  0  0  0  0  0  0  0
   -4.3010  -53.1762  -16.2000 Cl  0  0  0  0  0  0  0  0  0  0  0  0
   -1.9719  -53.0900  -17.6742 C   0  0  0  0  0  0  0  0  0  0  0  0
 23 24  1  0  0  0
 24 17  1  0  0  0
 17 18  1  0  0  0
 18 19  1  0  0  0
 19 20  1  0  0  0
 20 16  1  0  0  0
 16 14  1  0  0  0
 14 15  2  0  0  0
 15 10  1  0  0  0
 10 11  2  0  0  0
 10 12  1  0  0  0
 12  1  1  0  0  0
  1  2  2  0  0  0
  2  3  1  0  0  0
  3  4  2  0  0  0
  4 25  1  0  0  0
 25 27  1  0  0  0
 27 28  2  0  0  0
 28 29  1  0  0  0
 29 30  2  0  0  0
 30 31  1  0  0  0
 30 32  1  0  0  0
 32 33  1  0  0  0
 32 34  2  0  0  0
  4  5  1  0  0  0
  5  6  2  0  0  0
  6  7  1  0  0  0
  7  8  2  0  0  0
  8  9  1  0  0  0
 20 21  1  0  0  0
 21 22  1  0  0  0
 22 17  1  0  0  0
  9  1  1  0  0  0
  8  3  1  0  0  0
 34 27  1  0  0  0
 12 13  1  0  0  0
 25 26  1  0  0  0
M  END
> <minimizedAffinity>
-7.02886

> <CNNscore>
0.4214240313

> <CNNaffinity>
6.6518807411

> <CNN_VS>
2.8032624722

> <CNNaffinity_variance>
0.0856877118

$$$$
[H]/C(C(=O)N([H])c1sc2nc([H])nc(N([H])c3c([H])c([H])c(F)c(Cl)c3[H])c2c1[H])=C(/[H])C([H])([H])N1C([H])([H])C([H])([H])C([H])(SC([H])([H])[H])C([H])([H])C1([H])[H]


 34 37  0  0  0  0  0  0  0  0999 V2000
   -0.3358  -53.2852  -20.5010 C   0  0  0  0  0  0  0  0  0  0  0  0
    0.6179  -52.8603  -21.3782 C   0  0  0  0  0  0  0  0  0  0  0  0
    0.4818  -53.1634  -22.6860 C   0  0  0  0  0  0  0  0  0  0  0  0
    1.3589  -52.8132  -23.7476 C   0  0  0  0  0  0  0  0  0  0  0  0
    1.0315  -53.2130  -24.9574 N   0  0  0  0  0  0  0  0  0  0  0  0
   -0.0408  -53.9201  -25.3280 C   0  0  0  0  0  0  0  0  0  0  0  0
   -0.8831  -54.2608  -24.3331 N   0  0  0  0  0  0  0  0  0  0  0  0
   -0.6181  -53.8848  -23.0419 C   0  0  0  0  0  0  0  0  0  0  0  0
   -1.4307  -54.1235  -21.5642 S   0  0  0  0  0  0  0  0  0  0  0  0
   -0.1822  -51.9419  -18.4313 C   0  0  0  0  0  0  0  0  0  0  0  0
    0.2384  -50.8829  -18.9299 O   0  0  0  0  0  0  0  0  0  0  0  0
   -0.4832  -53.1305  -19.0903 N   0  0  0  0  0  0  0  0  0  0  0  0
   -0.8314  -53.9586  -18.5608 H   0  0  0  0  0  0  0  0  0  0  0  0
   -1.5087  -51.4611  -16.4586 C   0  0  0  0  0  0  0  0  0  0  0  0
   -0.3899  -51.9447  -16.9538 C   0  0  0  0  0  0  0  0  0  0  0  0
   -1.7823  -51.4310  -14.9983 C   0  0  0  0  0  0  0  0  0  0  0  0
   -5.1912  -53.5104  -14.0451 C   0  0  0  0  0  0  0  0  0  0  0  0
   -5.0850  -53.1547  -15.5128 C   0  0  0  0  0  0  0  0  0  0  0  0
   -3.7823  -52.5052  -15.7677 C   0  0  0  0  0  0  0  0  0  0  0  0
   -2.9486  -52.2146  -14.6599 N   0  0  0  0  0  0  0  0  0  0  0  0
   -3.5846  -51.7738  -13.4562 C   0  0  0  0  0  0  0  0  0  0  0  0
   -4.9966  -52.2020  -13.2839 C   0  0  0  0  0  0  0  0  0  0  0  0
   -7.0044  -55.7726  -14.6170 C   0  0  0  0  0  0  0  0  0  0  0  0
   -6.8005  -54.2417  -13.6510 S   0  0  0  0  0  0  0  0  0  0  0  0
    2.5250  -52.0469  -23.4883 N   0  0  0  0  0  0  0  0  0  0  0  0
    3.3457  -52.5554  -22.9983 H   0  0  0  0  0  0  0  0  0  0  0  0
    2.7674  -50.7133  -23.7874 C   0  0  0  0  0  0  0  0  0  0  0  0
    2.7369  -49.7711  -22.7549 C   0  0  0  0  0  0  0  0  0  0  0  0
    2.9861  -48.4286  -22.9536 C   0  0  0  0  0  0  0  0  0  0  0  0
    3.2778  -47.9884  -24.2157 C   0  0  0  0  0  0  0  0  0  0  0  0
    3.5248  -46.6704  -24.4348 F   0  0  0  0  0  0  0  0  0  0  0  0
    3.3186  -48.8793  -25.2583 C   0  0  0  0  0  0  0  0  0  0  0  0
    3.6950  -48.2737  -26.8509 Cl  0  0  0  0  0  0  0  0  0  0  0  0
    3.0610  -50.2429  -25.0272 C   0  0  0  0  0  0  0  0  0  0  0  0
 23 24  1  0  0  0
 24 17  1  0  0  0
 17 18  1  0  0  0
 18 19  1  0  0  0
 19 20  1  0  0  0
 20 16  1  0  0  0
 16 14  1  0  0  0
 14 15  2  0  0  0
 15 10  1  0  0  0
 10 11  2  0  0  0
 10 12  1  0  0  0
 12  1  1  0  0  0
  1  2  2  0  0  0
  2  3  1  0  0  0
  3  4  2  0  0  0
  4 25  1  0  0  0
 25 27  1  0  0  0
 27 28  2  0  0  0
 28 29  1  0  0  0
 29 30  2  0  0  0
 30 31  1  0  0  0
 30 32  1  0  0  0
 32 33  1  0  0  0
 32 34  2  0  0  0
  4  5  1  0  0  0
  5  6  2  0  0  0
  6  7  1  0  0  0
  7  8  2  0  0  0
  8  9  1  0  0  0
 20 21  1  0  0  0
 21 22  1  0  0  0
 22 17  1  0  0  0
  9  1  1  0  0  0
  8  3  1  0  0  0
 34 27  1  0  0  0
 12 13  1  0  0  0
 25 26  1  0  0  0
M  END
> <minimizedAffinity>
-7.14455

> <CNNscore>
0.3903923631

> <CNNaffinity>
6.9030814171

> <CNN_VS>
2.6949102879

> <CNNaffinity_variance>
0.0743299499

$$$$
[H]/C(C(=O)N([H])c1sc2nc([H])nc(N([H])c3c([H])c([H])c(F)c(Cl)c3[H])c2c1[H])=C(/[H])C([H])([H])N1C([H])([H])C([H])([H])C([H])(SC([H])([H])[H])C([H])([H])C1([H])[H]


 34 37  0  0  0  0  0  0  0  0999 V2000
    1.6364  -50.4617  -22.3698 C   0  0  0  0  0  0  0  0  0  0  0  0
    1.2041  -51.6300  -22.9246 C   0  0  0  0  0  0  0  0  0  0  0  0
    0.3079  -52.3797  -22.2496 C   0  0  0  0  0  0  0  0  0  0  0  0
   -0.2612  -53.6165  -22.6560 C   0  0  0  0  0  0  0  0  0  0  0  0
   -1.1235  -54.1813  -21.8387 N   0  0  0  0  0  0  0  0  0  0  0  0
   -1.5446  -53.7354  -20.6508 C   0  0  0  0  0  0  0  0  0  0  0  0
   -1.0144  -52.5634  -20.2500 N   0  0  0  0  0  0  0  0  0  0  0  0
   -0.1076  -51.9069  -21.0410 C   0  0  0  0  0  0  0  0  0  0  0  0
    0.7489  -50.4445  -20.8717 S   0  0  0  0  0  0  0  0  0  0  0  0
    3.9319  -49.6567  -22.8101 C   0  0  0  0  0  0  0  0  0  0  0  0
    4.5558  -50.6652  -22.4351 O   0  0  0  0  0  0  0  0  0  0  0  0
    2.5532  -49.4647  -22.8181 N   0  0  0  0  0  0  0  0  0  0  0  0
    2.1431  -48.5684  -23.1583 H   0  0  0  0  0  0  0  0  0  0  0  0
    4.9145  -48.3567  -24.6064 C   0  0  0  0  0  0  0  0  0  0  0  0
    4.7522  -48.5152  -23.3105 C   0  0  0  0  0  0  0  0  0  0  0  0
    5.7188  -47.2440  -25.1750 C   0  0  0  0  0  0  0  0  0  0  0  0
    5.5205  -47.3361  -29.2745 C   0  0  0  0  0  0  0  0  0  0  0  0
    4.2584  -47.8196  -28.5925 C   0  0  0  0  0  0  0  0  0  0  0  0
    4.3934  -47.6484  -27.1309 C   0  0  0  0  0  0  0  0  0  0  0  0
    5.6407  -47.2153  -26.6179 N   0  0  0  0  0  0  0  0  0  0  0  0
    6.8220  -47.7194  -27.2489 C   0  0  0  0  0  0  0  0  0  0  0  0
    6.6610  -48.1452  -28.6630 C   0  0  0  0  0  0  0  0  0  0  0  0
    6.1149  -49.2418  -31.4532 C   0  0  0  0  0  0  0  0  0  0  0  0
    5.4499  -47.5908  -31.0661 S   0  0  0  0  0  0  0  0  0  0  0  0
    0.0901  -54.1886  -23.9065 N   0  0  0  0  0  0  0  0  0  0  0  0
    0.6014  -55.1426  -23.8816 H   0  0  0  0  0  0  0  0  0  0  0  0
   -0.1410  -53.6897  -25.1810 C   0  0  0  0  0  0  0  0  0  0  0  0
   -1.2114  -52.8130  -25.3815 C   0  0  0  0  0  0  0  0  0  0  0  0
   -1.5046  -52.2512  -26.6072 C   0  0  0  0  0  0  0  0  0  0  0  0
   -0.7173  -52.5594  -27.6828 C   0  0  0  0  0  0  0  0  0  0  0  0
   -0.9885  -52.0190  -28.8996 F   0  0  0  0  0  0  0  0  0  0  0  0
    0.3441  -53.4153  -27.5305 C   0  0  0  0  0  0  0  0  0  0  0  0
    1.3213  -53.7800  -28.9294 Cl  0  0  0  0  0  0  0  0  0  0  0  0
    0.6206  -53.9735  -26.2691 C   0  0  0  0  0  0  0  0  0  0  0  0
 23 24  1  0  0  0
 24 17  1  0  0  0
 17 18  1  0  0  0
 18 19  1  0  0  0
 19 20  1  0  0  0
 20 16  1  0  0  0
 16 14  1  0  0  0
 14 15  2  0  0  0
 15 10  1  0  0  0
 10 11  2  0  0  0
 10 12  1  0  0  0
 12  1  1  0  0  0
  1  2  2  0  0  0
  2  3  1  0  0  0
  3  4  2  0  0  0
  4 25  1  0  0  0
 25 27  1  0  0  0
 27 28  2  0  0  0
 28 29  1  0  0  0
 29 30  2  0  0  0
 30 31  1  0  0  0
 30 32  1  0  0  0
 32 33  1  0  0  0
 32 34  2  0  0  0
  4  5  1  0  0  0
  5  6  2  0  0  0
  6  7  1  0  0  0
  7  8  2  0  0  0
  8  9  1  0  0  0
 20 21  1  0  0  0
 21 22  1  0  0  0
 22 17  1  0  0  0
  9  1  1  0  0  0
  8  3  1  0  0  0
 34 27  1  0  0  0
 12 13  1  0  0  0
 25 26  1  0  0  0
M  END
> <minimizedAffinity>
-6.92795

> <CNNscore>
0.3901895285

> <CNNaffinity>
7.1180853844

> <CNN_VS>
2.7774024010

> <CNNaffinity_variance>
0.3436407149

$$$$
[H]/C(C(=O)N([H])c1sc2nc([H])nc(N([H])c3c([H])c([H])c(F)c(Cl)c3[H])c2c1[H])=C(/[H])C([H])([H])N1C([H])([H])C([H])([H])C([H])(SC([H])([H])[H])C([H])([H])C1([H])[H]


 34 37  0  0  0  0  0  0  0  0999 V2000
   -0.5696  -52.7006  -19.3037 C   0  0  0  0  0  0  0  0  0  0  0  0
    0.4707  -52.1746  -20.0114 C   0  0  0  0  0  0  0  0  0  0  0  0
    0.5749  -52.4603  -21.3261 C   0  0  0  0  0  0  0  0  0  0  0  0
    1.5763  -52.0115  -22.2287 C   0  0  0  0  0  0  0  0  0  0  0  0
    1.4855  -52.4124  -23.4783 N   0  0  0  0  0  0  0  0  0  0  0  0
    0.5553  -53.2030  -24.0231 C   0  0  0  0  0  0  0  0  0  0  0  0
   -0.4021  -53.6378  -23.1806 N   0  0  0  0  0  0  0  0  0  0  0  0
   -0.3835  -53.2678  -21.8609 C   0  0  0  0  0  0  0  0  0  0  0  0
   -1.3986  -53.6090  -20.5365 S   0  0  0  0  0  0  0  0  0  0  0  0
   -0.4117  -51.6377  -17.0773 C   0  0  0  0  0  0  0  0  0  0  0  0
    0.4469  -50.7783  -17.3440 O   0  0  0  0  0  0  0  0  0  0  0  0
   -0.9557  -52.5900  -17.9346 N   0  0  0  0  0  0  0  0  0  0  0  0
   -1.6748  -53.2635  -17.5935 H   0  0  0  0  0  0  0  0  0  0  0  0
   -2.2099  -51.8132  -15.4593 C   0  0  0  0  0  0  0  0  0  0  0  0
   -0.9218  -51.6553  -15.6753 C   0  0  0  0  0  0  0  0  0  0  0  0
   -2.7876  -51.8393  -14.0905 C   0  0  0  0  0  0  0  0  0  0  0  0
   -6.0121  -54.3647  -13.8113 C   0  0  0  0  0  0  0  0  0  0  0  0
   -5.8268  -53.7632  -15.1881 C   0  0  0  0  0  0  0  0  0  0  0  0
   -4.5875  -52.9586  -15.2100 C   0  0  0  0  0  0  0  0  0  0  0  0
   -3.8839  -52.7762  -13.9941 N   0  0  0  0  0  0  0  0  0  0  0  0
   -4.6604  -52.6031  -12.8047 C   0  0  0  0  0  0  0  0  0  0  0  0
   -6.0258  -53.1873  -12.8404 C   0  0  0  0  0  0  0  0  0  0  0  0
   -7.4824  -56.7072  -14.8521 C   0  0  0  0  0  0  0  0  0  0  0  0
   -7.5575  -55.3020  -13.6955 S   0  0  0  0  0  0  0  0  0  0  0  0
    2.6114  -51.1513  -21.7782 N   0  0  0  0  0  0  0  0  0  0  0  0
    2.3549  -50.4425  -21.0010 H   0  0  0  0  0  0  0  0  0  0  0  0
    3.9333  -51.0956  -22.1979 C   0  0  0  0  0  0  0  0  0  0  0  0
    4.2476  -51.4930  -23.5009 C   0  0  0  0  0  0  0  0  0  0  0  0
    5.5287  -51.4519  -24.0119 C   0  0  0  0  0  0  0  0  0  0  0  0
    6.5460  -51.0027  -23.2149 C   0  0  0  0  0  0  0  0  0  0  0  0
    7.8155  -50.9553  -23.6967 F   0  0  0  0  0  0  0  0  0  0  0  0
    6.2818  -50.6024  -21.9295 C   0  0  0  0  0  0  0  0  0  0  0  0
    7.6096  -50.0365  -20.9489 Cl  0  0  0  0  0  0  0  0  0  0  0  0
    4.9661  -50.6543  -21.4342 C   0  0  0  0  0  0  0  0  0  0  0  0
 23 24  1  0  0  0
 24 17  1  0  0  0
 17 18  1  0  0  0
 18 19  1  0  0  0
 19 20  1  0  0  0
 20 16  1  0  0  0
 16 14  1  0  0  0
 14 15  2  0  0  0
 15 10  1  0  0  0
 10 11  2  0  0  0
 10 12  1  0  0  0
 12  1  1  0  0  0
  1  2  2  0  0  0
  2  3  1  0  0  0
  3  4  2  0  0  0
  4 25  1  0  0  0
 25 27  1  0  0  0
 27 28  2  0  0  0
 28 29  1  0  0  0
 29 30  2  0  0  0
 30 31  1  0  0  0
 30 32  1  0  0  0
 32 33  1  0  0  0
 32 34  2  0  0  0
  4  5  1  0  0  0
  5  6  2  0  0  0
  6  7  1  0  0  0
  7  8  2  0  0  0
  8  9  1  0  0  0
 20 21  1  0  0  0
 21 22  1  0  0  0
 22 17  1  0  0  0
  9  1  1  0  0  0
  8  3  1  0  0  0
 34 27  1  0  0  0
 12 13  1  0  0  0
 25 26  1  0  0  0
M  END
> <minimizedAffinity>
-6.76772

> <CNNscore>
0.3773024678

> <CNNaffinity>
6.6345891953

> <CNN_VS>
2.5032467842

> <CNNaffinity_variance>
0.0462592170

$$$$
[H]/C(C(=O)N([H])c1sc2nc([H])nc(N([H])c3c([H])c([H])c(F)c(Cl)c3[H])c2c1[H])=C(/[H])C([H])([H])N1C([H])([H])C([H])([H])C([H])(SC([H])([H])[H])C([H])([H])C1([H])[H]


 34 37  0  0  0  0  0  0  0  0999 V2000
    1.3580  -51.4766  -24.2703 C   0  0  0  0  0  0  0  0  0  0  0  0
    1.2425  -52.0597  -23.0430 C   0  0  0  0  0  0  0  0  0  0  0  0
    0.3605  -53.0680  -22.8810 C   0  0  0  0  0  0  0  0  0  0  0  0
    0.0967  -53.7995  -21.6918 C   0  0  0  0  0  0  0  0  0  0  0  0
   -0.8095  -54.7509  -21.7573 N   0  0  0  0  0  0  0  0  0  0  0  0
   -1.5302  -55.1289  -22.8179 C   0  0  0  0  0  0  0  0  0  0  0  0
   -1.2925  -54.4451  -23.9542 N   0  0  0  0  0  0  0  0  0  0  0  0
   -0.3637  -53.4372  -23.9746 C   0  0  0  0  0  0  0  0  0  0  0  0
    0.1924  -52.3840  -25.1922 S   0  0  0  0  0  0  0  0  0  0  0  0
    3.5413  -50.5752  -25.0000 C   0  0  0  0  0  0  0  0  0  0  0  0
    4.2266  -51.6008  -24.8405 O   0  0  0  0  0  0  0  0  0  0  0  0
    2.1794  -50.4173  -24.7589 N   0  0  0  0  0  0  0  0  0  0  0  0
    1.7115  -49.5015  -24.9314 H   0  0  0  0  0  0  0  0  0  0  0  0
    3.5627  -48.3615  -25.9907 C   0  0  0  0  0  0  0  0  0  0  0  0
    4.2576  -49.3692  -25.5086 C   0  0  0  0  0  0  0  0  0  0  0  0
    4.2092  -47.1306  -26.5150 C   0  0  0  0  0  0  0  0  0  0  0  0
    3.7003  -46.6019  -30.5541 C   0  0  0  0  0  0  0  0  0  0  0  0
    5.0933  -46.2652  -30.0664 C   0  0  0  0  0  0  0  0  0  0  0  0
    5.2016  -46.5874  -28.6283 C   0  0  0  0  0  0  0  0  0  0  0  0
    4.0338  -47.0056  -27.9441 N   0  0  0  0  0  0  0  0  0  0  0  0
    2.8009  -46.3721  -28.2998 C   0  0  0  0  0  0  0  0  0  0  0  0
    2.7451  -45.8038  -29.6712 C   0  0  0  0  0  0  0  0  0  0  0  0
    2.4023  -47.3960  -33.0873 C   0  0  0  0  0  0  0  0  0  0  0  0
    3.4778  -46.1572  -32.2956 S   0  0  0  0  0  0  0  0  0  0  0  0
    0.8092  -53.5072  -20.4997 N   0  0  0  0  0  0  0  0  0  0  0  0
    1.7307  -54.0511  -20.3346 H   0  0  0  0  0  0  0  0  0  0  0  0
    0.4870  -52.5993  -19.5004 C   0  0  0  0  0  0  0  0  0  0  0  0
    1.1797  -51.3865  -19.4379 C   0  0  0  0  0  0  0  0  0  0  0  0
    0.9139  -50.4158  -18.4940 C   0  0  0  0  0  0  0  0  0  0  0  0
   -0.0715  -50.6402  -17.5719 C   0  0  0  0  0  0  0  0  0  0  0  0
   -0.3491  -49.6989  -16.6322 F   0  0  0  0  0  0  0  0  0  0  0  0
   -0.7766  -51.8169  -17.5972 C   0  0  0  0  0  0  0  0  0  0  0  0
   -2.0247  -52.0604  -16.4023 Cl  0  0  0  0  0  0  0  0  0  0  0  0
   -0.4852  -52.7893  -18.5711 C   0  0  0  0  0  0  0  0  0  0  0  0
 23 24  1  0  0  0
 24 17  1  0  0  0
 17 18  1  0  0  0
 18 19  1  0  0  0
 19 20  1  0  0  0
 20 16  1  0  0  0
 16 14  1  0  0  0
 14 15  2  0  0  0
 15 10  1  0  0  0
 10 11  2  0  0  0
 10 12  1  0  0  0
 12  1  1  0  0  0
  1  2  2  0  0  0
  2  3  1  0  0  0
  3  4  2  0  0  0
  4 25  1  0  0  0
 25 27  1  0  0  0
 27 28  2  0  0  0
 28 29  1  0  0  0
 29 30  2  0  0  0
 30 31  1  0  0  0
 30 32  1  0  0  0
 32 33  1  0  0  0
 32 34  2  0  0  0
  4  5  1  0  0  0
  5  6  2  0  0  0
  6  7  1  0  0  0
  7  8  2  0  0  0
  8  9  1  0  0  0
 20 21  1  0  0  0
 21 22  1  0  0  0
 22 17  1  0  0  0
  9  1  1  0  0  0
  8  3  1  0  0  0
 34 27  1  0  0  0
 12 13  1  0  0  0
 25 26  1  0  0  0
M  END
> <minimizedAffinity>
-7.27175

> <CNNscore>
0.3581720591

> <CNNaffinity>
6.8105950356

> <CNN_VS>
2.4393649101

> <CNNaffinity_variance>
0.1616332978

$$$$
[H]/C(C(=O)N([H])c1sc2nc([H])nc(N([H])c3c([H])c([H])c(F)c(Cl)c3[H])c2c1[H])=C(/[H])C([H])([H])N1C([H])([H])C([H])([H])C([H])(SC([H])([H])[H])C([H])([H])C1([H])[H]


 34 37  0  0  0  0  0  0  0  0999 V2000
    2.4766  -51.4902  -21.9958 C   0  0  0  0  0  0  0  0  0  0  0  0
    2.1845  -51.3316  -20.6733 C   0  0  0  0  0  0  0  0  0  0  0  0
    1.0948  -51.9468  -20.1683 C   0  0  0  0  0  0  0  0  0  0  0  0
    0.6269  -51.9073  -18.8272 C   0  0  0  0  0  0  0  0  0  0  0  0
   -0.4644  -52.5872  -18.5489 N   0  0  0  0  0  0  0  0  0  0  0  0
   -1.2071  -53.3265  -19.3789 C   0  0  0  0  0  0  0  0  0  0  0  0
   -0.7774  -53.3745  -20.6550 N   0  0  0  0  0  0  0  0  0  0  0  0
    0.3520  -52.6950  -21.0315 C   0  0  0  0  0  0  0  0  0  0  0  0
    1.1772  -52.5281  -22.5120 S   0  0  0  0  0  0  0  0  0  0  0  0
    4.8376  -50.8500  -22.3530 C   0  0  0  0  0  0  0  0  0  0  0  0
    5.2754  -51.1219  -21.2211 O   0  0  0  0  0  0  0  0  0  0  0  0
    3.5319  -50.9893  -22.8151 N   0  0  0  0  0  0  0  0  0  0  0  0
    3.2828  -50.7255  -23.7926 H   0  0  0  0  0  0  0  0  0  0  0  0
    5.3923  -49.6096  -24.3620 C   0  0  0  0  0  0  0  0  0  0  0  0
    5.8227  -50.3103  -23.3351 C   0  0  0  0  0  0  0  0  0  0  0  0
    6.3159  -49.0432  -25.3790 C   0  0  0  0  0  0  0  0  0  0  0  0
    4.5240  -46.1662  -27.6954 C   0  0  0  0  0  0  0  0  0  0  0  0
    3.5887  -47.2801  -27.2758 C   0  0  0  0  0  0  0  0  0  0  0  0
    4.2996  -48.2016  -26.3652 C   0  0  0  0  0  0  0  0  0  0  0  0
    5.6834  -47.9934  -26.1451 N   0  0  0  0  0  0  0  0  0  0  0  0
    6.4704  -47.5690  -27.2624 C   0  0  0  0  0  0  0  0  0  0  0  0
    5.7298  -46.8517  -28.3319 C   0  0  0  0  0  0  0  0  0  0  0  0
    2.2320  -45.8360  -29.5312 C   0  0  0  0  0  0  0  0  0  0  0  0
    3.7351  -45.0423  -28.8762 S   0  0  0  0  0  0  0  0  0  0  0  0
    1.3373  -51.1713  -17.8434 N   0  0  0  0  0  0  0  0  0  0  0  0
    2.3997  -51.0383  -18.0042 H   0  0  0  0  0  0  0  0  0  0  0  0
    0.8496  -50.5810  -16.6857 C   0  0  0  0  0  0  0  0  0  0  0  0
    1.3824  -50.9671  -15.4522 C   0  0  0  0  0  0  0  0  0  0  0  0
    0.9754  -50.4207  -14.2524 C   0  0  0  0  0  0  0  0  0  0  0  0
    0.0062  -49.4551  -14.2588 C   0  0  0  0  0  0  0  0  0  0  0  0
   -0.4111  -48.9043  -13.0889 F   0  0  0  0  0  0  0  0  0  0  0  0
   -0.5437  -49.0460  -15.4473 C   0  0  0  0  0  0  0  0  0  0  0  0
   -1.7766  -47.8118  -15.4082 Cl  0  0  0  0  0  0  0  0  0  0  0  0
   -0.1095  -49.6198  -16.6562 C   0  0  0  0  0  0  0  0  0  0  0  0
 23 24  1  0  0  0
 24 17  1  0  0  0
 17 18  1  0  0  0
 18 19  1  0  0  0
 19 20  1  0  0  0
 20 16  1  0  0  0
 16 14  1  0  0  0
 14 15  2  0  0  0
 15 10  1  0  0  0
 10 11  2  0  0  0
 10 12  1  0  0  0
 12  1  1  0  0  0
  1  2  2  0  0  0
  2  3  1  0  0  0
  3  4  2  0  0  0
  4 25  1  0  0  0
 25 27  1  0  0  0
 27 28  2  0  0  0
 28 29  1  0  0  0
 29 30  2  0  0  0
 30 31  1  0  0  0
 30 32  1  0  0  0
 32 33  1  0  0  0
 32 34  2  0  0  0
  4  5  1  0  0  0
  5  6  2  0  0  0
  6  7  1  0  0  0
  7  8  2  0  0  0
  8  9  1  0  0  0
 20 21  1  0  0  0
 21 22  1  0  0  0
 22 17  1  0  0  0
  9  1  1  0  0  0
  8  3  1  0  0  0
 34 27  1  0  0  0
 12 13  1  0  0  0
 25 26  1  0  0  0
M  END
> <minimizedAffinity>
-5.39857

> <CNNscore>
0.2700888813

> <CNNaffinity>
6.4995994568

> <CNN_VS>
1.7554695606

> <CNNaffinity_variance>
0.7690310478

$$$$
[H]/C(C(=O)N([H])c1sc2nc([H])nc(N([H])c3c([H])c([H])c(F)c(Cl)c3[H])c2c1[H])=C(/[H])C([H])([H])N1C([H])([H])C([H])([H])C([H])(SC([H])([H])[H])C([H])([H])C1([H])[H]


 34 37  0  0  0  0  0  0  0  0999 V2000
    2.5508  -49.7841  -22.7067 C   0  0  0  0  0  0  0  0  0  0  0  0
    1.4751  -50.5608  -23.0214 C   0  0  0  0  0  0  0  0  0  0  0  0
    1.0752  -51.5060  -22.1452 C   0  0  0  0  0  0  0  0  0  0  0  0
   -0.0145  -52.4066  -22.2870 C   0  0  0  0  0  0  0  0  0  0  0  0
   -0.2301  -53.2524  -21.3026 N   0  0  0  0  0  0  0  0  0  0  0  0
    0.4552  -53.3788  -20.1618 C   0  0  0  0  0  0  0  0  0  0  0  0
    1.4925  -52.5322  -20.0114 N   0  0  0  0  0  0  0  0  0  0  0  0
    1.7877  -51.6179  -20.9891 C   0  0  0  0  0  0  0  0  0  0  0  0
    2.9865  -50.4181  -21.1446 S   0  0  0  0  0  0  0  0  0  0  0  0
    3.3846  -48.7238  -24.7785 C   0  0  0  0  0  0  0  0  0  0  0  0
    3.0258  -49.5963  -25.5891 O   0  0  0  0  0  0  0  0  0  0  0  0
    3.2058  -48.7217  -23.3980 N   0  0  0  0  0  0  0  0  0  0  0  0
    3.5532  -47.9277  -22.8181 H   0  0  0  0  0  0  0  0  0  0  0  0
    4.6863  -47.6410  -26.5149 C   0  0  0  0  0  0  0  0  0  0  0  0
    4.0904  -47.5384  -25.3465 C   0  0  0  0  0  0  0  0  0  0  0  0
    5.4085  -46.5026  -27.1399 C   0  0  0  0  0  0  0  0  0  0  0  0
    4.1320  -46.0655  -31.0171 C   0  0  0  0  0  0  0  0  0  0  0  0
    3.1269  -45.5937  -29.9881 C   0  0  0  0  0  0  0  0  0  0  0  0
    3.7208  -45.6956  -28.6387 C   0  0  0  0  0  0  0  0  0  0  0  0
    4.9958  -46.2994  -28.5101 N   0  0  0  0  0  0  0  0  0  0  0  0
    5.2784  -47.4240  -29.3486 C   0  0  0  0  0  0  0  0  0  0  0  0
    4.5038  -47.4899  -30.6145 C   0  0  0  0  0  0  0  0  0  0  0  0
    2.4282  -47.5358  -32.9323 C   0  0  0  0  0  0  0  0  0  0  0  0
    3.4369  -46.0386  -32.6893 S   0  0  0  0  0  0  0  0  0  0  0  0
   -0.8328  -52.3623  -23.4458 N   0  0  0  0  0  0  0  0  0  0  0  0
   -1.8250  -51.9453  -23.3284 H   0  0  0  0  0  0  0  0  0  0  0  0
   -0.5302  -52.7802  -24.7343 C   0  0  0  0  0  0  0  0  0  0  0  0
    0.5346  -53.6655  -24.9269 C   0  0  0  0  0  0  0  0  0  0  0  0
    0.8948  -54.1509  -26.1672 C   0  0  0  0  0  0  0  0  0  0  0  0
    0.1834  -53.7541  -27.2664 C   0  0  0  0  0  0  0  0  0  0  0  0
    0.5215  -54.2183  -28.4978 F   0  0  0  0  0  0  0  0  0  0  0  0
   -0.8697  -52.8866  -27.1227 C   0  0  0  0  0  0  0  0  0  0  0  0
   -1.7491  -52.4076  -28.5517 Cl  0  0  0  0  0  0  0  0  0  0  0  0
   -1.2157  -52.4075  -25.8461 C   0  0  0  0  0  0  0  0  0  0  0  0
 23 24  1  0  0  0
 24 17  1  0  0  0
 17 18  1  0  0  0
 18 19  1  0  0  0
 19 20  1  0  0  0
 20 16  1  0  0  0
 16 14  1  0  0  0
 14 15  2  0  0  0
 15 10  1  0  0  0
 10 11  2  0  0  0
 10 12  1  0  0  0
 12  1  1  0  0  0
  1  2  2  0  0  0
  2  3  1  0  0  0
  3  4  2  0  0  0
  4 25  1  0  0  0
 25 27  1  0  0  0
 27 28  2  0  0  0
 28 29  1  0  0  0
 29 30  2  0  0  0
 30 31  1  0  0  0
 30 32  1  0  0  0
 32 33  1  0  0  0
 32 34  2  0  0  0
  4  5  1  0  0  0
  5  6  2  0  0  0
  6  7  1  0  0  0
  7  8  2  0  0  0
  8  9  1  0  0  0
 20 21  1  0  0  0
 21 22  1  0  0  0
 22 17  1  0  0  0
  9  1  1  0  0  0
  8  3  1  0  0  0
 34 27  1  0  0  0
 12 13  1  0  0  0
 25 26  1  0  0  0
M  END
> <minimizedAffinity>
-7.03764

> <CNNscore>
0.2219239324

> <CNNaffinity>
6.6567025185

> <CNN_VS>
1.4772815704

> <CNNaffinity_variance>
0.1741838008

$$$$
[H]OC(C#Cc1nc([H])nc2c([H])c(OC([H])([H])[H])c(OC([H])([H])[H])c([H])c12)(C([H])([H])[H])C([H])([H])c1c([H])c([H])c([H])c([H])c1[H]


 27 29  0  0  0  0  0  0  0  0999 V2000
   -0.2712  -52.6572  -19.6358 C   0  0  0  0  0  0  0  0  0  0  0  0
   -1.1232  -53.6476  -20.0797 C   0  0  0  0  0  0  0  0  0  0  0  0
   -1.0728  -53.9939  -21.4150 C   0  0  0  0  0  0  0  0  0  0  0  0
   -1.8538  -54.9330  -21.9262 N   0  0  0  0  0  0  0  0  0  0  0  0
   -1.7882  -55.2518  -23.2202 C   0  0  0  0  0  0  0  0  0  0  0  0
   -0.9316  -54.6310  -24.0351 N   0  0  0  0  0  0  0  0  0  0  0  0
   -0.0909  -53.6564  -23.6073 C   0  0  0  0  0  0  0  0  0  0  0  0
   -0.1843  -53.3460  -22.2479 C   0  0  0  0  0  0  0  0  0  0  0  0
    0.6598  -52.3576  -21.7839 C   0  0  0  0  0  0  0  0  0  0  0  0
    0.6231  -51.9993  -20.4536 C   0  0  0  0  0  0  0  0  0  0  0  0
   -1.3143  -52.7251  -17.4293 C   0  0  0  0  0  0  0  0  0  0  0  0
   -0.2722  -52.2569  -18.2848 O   0  0  0  0  0  0  0  0  0  0  0  0
    0.8363  -52.9782  -24.4687 C   0  0  0  0  0  0  0  0  0  0  0  0
    1.6068  -52.3900  -25.1855 C   0  0  0  0  0  0  0  0  0  0  0  0
    2.5428  -51.6435  -26.0630 C   0  0  0  0  0  0  0  0  0  0  0  0
    2.4315  -50.1597  -25.7889 C   0  0  0  0  0  0  0  0  0  0  0  0
    2.2258  -51.8356  -27.4075 O   0  0  0  0  0  0  0  0  0  0  0  0
    1.2645  -52.0853  -27.4527 H   0  0  0  0  0  0  0  0  0  0  0  0
    3.9192  -52.1663  -25.7324 C   0  0  0  0  0  0  0  0  0  0  0  0
    4.4403  -51.6287  -24.4489 C   0  0  0  0  0  0  0  0  0  0  0  0
    4.0962  -52.2034  -23.2511 C   0  0  0  0  0  0  0  0  0  0  0  0
    4.6003  -51.6746  -22.0879 C   0  0  0  0  0  0  0  0  0  0  0  0
    5.4380  -50.5878  -22.0940 C   0  0  0  0  0  0  0  0  0  0  0  0
    5.7878  -50.0065  -23.2844 C   0  0  0  0  0  0  0  0  0  0  0  0
    5.2784  -50.5426  -24.4429 C   0  0  0  0  0  0  0  0  0  0  0  0
    1.4694  -50.9953  -19.9447 O   0  0  0  0  0  0  0  0  0  0  0  0
    1.5788  -49.7846  -20.6698 C   0  0  0  0  0  0  0  0  0  0  0  0
 11 12  1  0  0  0
 12  1  1  0  0  0
  1  2  2  0  0  0
  2  3  1  0  0  0
  3  4  2  0  0  0
  4  5  1  0  0  0
  5  6  2  0  0  0
  6  7  1  0  0  0
  7 13  1  0  0  0
 13 14  3  0  0  0
 14 15  1  0  0  0
 15 16  1  0  0  0
 15 17  1  0  0  0
 15 19  1  0  0  0
 19 20  1  0  0  0
 20 21  2  0  0  0
 21 22  1  0  0  0
 22 23  2  0  0  0
 23 24  1  0  0  0
 24 25  2  0  0  0
  7  8  2  0  0  0
  8  9  1  0  0  0
  9 10  2  0  0  0
 10 26  1  0  0  0
 26 27  1  0  0  0
 10  1  1  0  0  0
  8  3  1  0  0  0
 25 20  1  0  0  0
 17 18  1  0  0  0
M  END
> <minimizedAffinity>
-6.91448

> <CNNscore>
0.9424850345

> <CNNaffinity>
6.7257385254

> <CNN_VS>
6.3389077187

> <CNNaffinity_variance>
0.1049691066

$$$$
[H]OC(C#Cc1nc([H])nc2c([H])c(OC([H])([H])[H])c(OC([H])([H])[H])c([H])c12)(C([H])([H])[H])C([H])([H])c1c([H])c([H])c([H])c([H])c1[H]


 27 29  0  0  0  0  0  0  0  0999 V2000
   -0.0563  -51.9060  -18.4842 C   0  0  0  0  0  0  0  0  0  0  0  0
   -0.9438  -52.8864  -18.8777 C   0  0  0  0  0  0  0  0  0  0  0  0
   -0.8677  -53.3442  -20.1778 C   0  0  0  0  0  0  0  0  0  0  0  0
   -1.6794  -54.2827  -20.6398 N   0  0  0  0  0  0  0  0  0  0  0  0
   -1.5879  -54.7104  -21.9003 C   0  0  0  0  0  0  0  0  0  0  0  0
   -0.6737  -54.2023  -22.7305 N   0  0  0  0  0  0  0  0  0  0  0  0
    0.2022  -53.2384  -22.3522 C   0  0  0  0  0  0  0  0  0  0  0  0
    0.0804  -52.8122  -21.0269 C   0  0  0  0  0  0  0  0  0  0  0  0
    0.9593  -51.8316  -20.6135 C   0  0  0  0  0  0  0  0  0  0  0  0
    0.8975  -51.3630  -19.3189 C   0  0  0  0  0  0  0  0  0  0  0  0
   -1.0139  -51.9404  -16.2385 C   0  0  0  0  0  0  0  0  0  0  0  0
   -0.0810  -51.3955  -17.1711 O   0  0  0  0  0  0  0  0  0  0  0  0
    1.1914  -52.6804  -23.2308 C   0  0  0  0  0  0  0  0  0  0  0  0
    2.0064  -52.2059  -23.9818 C   0  0  0  0  0  0  0  0  0  0  0  0
    2.9911  -51.6184  -24.9245 C   0  0  0  0  0  0  0  0  0  0  0  0
    3.7587  -52.7215  -25.6196 C   0  0  0  0  0  0  0  0  0  0  0  0
    3.9250  -50.8357  -24.2459 O   0  0  0  0  0  0  0  0  0  0  0  0
    3.9543  -51.1576  -23.3058 H   0  0  0  0  0  0  0  0  0  0  0  0
    2.1838  -50.8028  -25.9043 C   0  0  0  0  0  0  0  0  0  0  0  0
    1.1138  -51.5970  -26.5620 C   0  0  0  0  0  0  0  0  0  0  0  0
   -0.1922  -51.4975  -26.1526 C   0  0  0  0  0  0  0  0  0  0  0  0
   -1.1500  -52.2497  -26.7878 C   0  0  0  0  0  0  0  0  0  0  0  0
   -0.8335  -53.0969  -27.8200 C   0  0  0  0  0  0  0  0  0  0  0  0
    0.4673  -53.2037  -28.2365 C   0  0  0  0  0  0  0  0  0  0  0  0
    1.4185  -52.4470  -27.5947 C   0  0  0  0  0  0  0  0  0  0  0  0
    1.7779  -50.3633  -18.8620 O   0  0  0  0  0  0  0  0  0  0  0  0
    1.5690  -49.0362  -19.3078 C   0  0  0  0  0  0  0  0  0  0  0  0
 11 12  1  0  0  0
 12  1  1  0  0  0
  1  2  2  0  0  0
  2  3  1  0  0  0
  3  4  2  0  0  0
  4  5  1  0  0  0
  5  6  2  0  0  0
  6  7  1  0  0  0
  7 13  1  0  0  0
 13 14  3  0  0  0
 14 15  1  0  0  0
 15 16  1  0  0  0
 15 17  1  0  0  0
 15 19  1  0  0  0
 19 20  1  0  0  0
 20 21  2  0  0  0
 21 22  1  0  0  0
 22 23  2  0  0  0
 23 24  1  0  0  0
 24 25  2  0  0  0
  7  8  2  0  0  0
  8  9  1  0  0  0
  9 10  2  0  0  0
 10 26  1  0  0  0
 26 27  1  0  0  0
 10  1  1  0  0  0
  8  3  1  0  0  0
 25 20  1  0  0  0
 17 18  1  0  0  0
M  END
> <minimizedAffinity>
-7.63499

> <CNNscore>
0.9066440463

> <CNNaffinity>
6.8328132629

> <CNN_VS>
6.1949295998

> <CNNaffinity_variance>
0.1931757927

$$$$
[H]OC(C#Cc1nc([H])nc2c([H])c(OC([H])([H])[H])c(OC([H])([H])[H])c([H])c12)(C([H])([H])[H])C([H])([H])c1c([H])c([H])c([H])c([H])c1[H]


 27 29  0  0  0  0  0  0  0  0999 V2000
   -0.0174  -52.1559  -18.8983 C   0  0  0  0  0  0  0  0  0  0  0  0
   -0.9005  -53.1085  -19.3635 C   0  0  0  0  0  0  0  0  0  0  0  0
   -0.7954  -53.4986  -20.6835 C   0  0  0  0  0  0  0  0  0  0  0  0
   -1.6009  -54.4063  -21.2131 N   0  0  0  0  0  0  0  0  0  0  0  0
   -1.4812  -54.7685  -22.4917 C   0  0  0  0  0  0  0  0  0  0  0  0
   -0.5443  -54.2242  -23.2721 N   0  0  0  0  0  0  0  0  0  0  0  0
    0.3275  -53.2872  -22.8232 C   0  0  0  0  0  0  0  0  0  0  0  0
    0.1760  -52.9297  -21.4807 C   0  0  0  0  0  0  0  0  0  0  0  0
    1.0500  -51.9780  -20.9958 C   0  0  0  0  0  0  0  0  0  0  0  0
    0.9594  -51.5768  -19.6804 C   0  0  0  0  0  0  0  0  0  0  0  0
   -1.1730  -52.1155  -16.7479 C   0  0  0  0  0  0  0  0  0  0  0  0
   -0.0711  -51.7142  -17.5613 O   0  0  0  0  0  0  0  0  0  0  0  0
    1.3409  -52.6911  -23.6475 C   0  0  0  0  0  0  0  0  0  0  0  0
    2.2066  -52.2013  -24.3288 C   0  0  0  0  0  0  0  0  0  0  0  0
    3.2906  -51.6080  -25.1512 C   0  0  0  0  0  0  0  0  0  0  0  0
    2.7056  -50.6232  -26.1396 C   0  0  0  0  0  0  0  0  0  0  0  0
    3.9477  -52.5896  -25.8926 O   0  0  0  0  0  0  0  0  0  0  0  0
    3.3180  -53.3514  -25.9997 H   0  0  0  0  0  0  0  0  0  0  0  0
    4.2195  -50.9281  -24.1754 C   0  0  0  0  0  0  0  0  0  0  0  0
    3.7297  -49.5877  -23.7612 C   0  0  0  0  0  0  0  0  0  0  0  0
    4.1324  -48.4539  -24.4212 C   0  0  0  0  0  0  0  0  0  0  0  0
    3.6555  -47.2346  -24.0055 C   0  0  0  0  0  0  0  0  0  0  0  0
    2.7879  -47.1227  -22.9483 C   0  0  0  0  0  0  0  0  0  0  0  0
    2.3795  -48.2483  -22.2825 C   0  0  0  0  0  0  0  0  0  0  0  0
    2.8621  -49.4637  -22.7058 C   0  0  0  0  0  0  0  0  0  0  0  0
    1.8340  -50.6082  -19.1511 O   0  0  0  0  0  0  0  0  0  0  0  0
    3.2263  -50.8139  -19.3010 C   0  0  0  0  0  0  0  0  0  0  0  0
 11 12  1  0  0  0
 12  1  1  0  0  0
  1  2  2  0  0  0
  2  3  1  0  0  0
  3  4  2  0  0  0
  4  5  1  0  0  0
  5  6  2  0  0  0
  6  7  1  0  0  0
  7 13  1  0  0  0
 13 14  3  0  0  0
 14 15  1  0  0  0
 15 16  1  0  0  0
 15 17  1  0  0  0
 15 19  1  0  0  0
 19 20  1  0  0  0
 20 21  2  0  0  0
 21 22  1  0  0  0
 22 23  2  0  0  0
 23 24  1  0  0  0
 24 25  2  0  0  0
  7  8  2  0  0  0
  8  9  1  0  0  0
  9 10  2  0  0  0
 10 26  1  0  0  0
 26 27  1  0  0  0
 10  1  1  0  0  0
  8  3  1  0  0  0
 25 20  1  0  0  0
 17 18  1  0  0  0
M  END
> <minimizedAffinity>
-6.85711

> <CNNscore>
0.8564204574

> <CNNaffinity>
6.5069861412

> <CNN_VS>
5.5727162361

> <CNNaffinity_variance>
0.1762494594

$$$$
[H]OC(C#Cc1nc([H])nc2c([H])c(OC([H])([H])[H])c(OC([H])([H])[H])c([H])c12)(C([H])([H])[H])C([H])([H])c1c([H])c([H])c([H])c([H])c1[H]


 27 29  0  0  0  0  0  0  0  0999 V2000
   -0.0567  -52.4380  -19.5570 C   0  0  0  0  0  0  0  0  0  0  0  0
   -0.9541  -53.4052  -19.9606 C   0  0  0  0  0  0  0  0  0  0  0  0
   -0.9106  -53.8194  -21.2767 C   0  0  0  0  0  0  0  0  0  0  0  0
   -1.7340  -54.7424  -21.7492 N   0  0  0  0  0  0  0  0  0  0  0  0
   -1.6741  -55.1280  -23.0252 C   0  0  0  0  0  0  0  0  0  0  0  0
   -0.7806  -54.5922  -23.8605 N   0  0  0  0  0  0  0  0  0  0  0  0
    0.1048  -53.6410  -23.4723 C   0  0  0  0  0  0  0  0  0  0  0  0
    0.0163  -53.2592  -22.1309 C   0  0  0  0  0  0  0  0  0  0  0  0
    0.9056  -52.2925  -21.7072 C   0  0  0  0  0  0  0  0  0  0  0  0
    0.8763  -51.8671  -20.3966 C   0  0  0  0  0  0  0  0  0  0  0  0
   -1.0088  -52.4928  -17.3093 C   0  0  0  0  0  0  0  0  0  0  0  0
   -0.0484  -51.9714  -18.2274 O   0  0  0  0  0  0  0  0  0  0  0  0
    1.0721  -53.0537  -24.3562 C   0  0  0  0  0  0  0  0  0  0  0  0
    1.8912  -52.5485  -25.0824 C   0  0  0  0  0  0  0  0  0  0  0  0
    2.9048  -51.9085  -25.9578 C   0  0  0  0  0  0  0  0  0  0  0  0
    2.8870  -52.5574  -27.3244 C   0  0  0  0  0  0  0  0  0  0  0  0
    4.1889  -52.0794  -25.4410 O   0  0  0  0  0  0  0  0  0  0  0  0
    4.1687  -52.8836  -24.8569 H   0  0  0  0  0  0  0  0  0  0  0  0
    2.5207  -50.4510  -26.0315 C   0  0  0  0  0  0  0  0  0  0  0  0
    3.1334  -49.6442  -24.9444 C   0  0  0  0  0  0  0  0  0  0  0  0
    4.2204  -48.8425  -25.1869 C   0  0  0  0  0  0  0  0  0  0  0  0
    4.7560  -48.1134  -24.1533 C   0  0  0  0  0  0  0  0  0  0  0  0
    4.2316  -48.1668  -22.8863 C   0  0  0  0  0  0  0  0  0  0  0  0
    3.1464  -48.9640  -22.6334 C   0  0  0  0  0  0  0  0  0  0  0  0
    2.6176  -49.6898  -23.6740 C   0  0  0  0  0  0  0  0  0  0  0  0
    1.7682  -50.8828  -19.9288 O   0  0  0  0  0  0  0  0  0  0  0  0
    3.1003  -51.2696  -19.6473 C   0  0  0  0  0  0  0  0  0  0  0  0
 11 12  1  0  0  0
 12  1  1  0  0  0
  1  2  2  0  0  0
  2  3  1  0  0  0
  3  4  2  0  0  0
  4  5  1  0  0  0
  5  6  2  0  0  0
  6  7  1  0  0  0
  7 13  1  0  0  0
 13 14  3  0  0  0
 14 15  1  0  0  0
 15 16  1  0  0  0
 15 17  1  0  0  0
 15 19  1  0  0  0
 19 20  1  0  0  0
 20 21  2  0  0  0
 21 22  1  0  0  0
 22 23  2  0  0  0
 23 24  1  0  0  0
 24 25  2  0  0  0
  7  8  2  0  0  0
  8  9  1  0  0  0
  9 10  2  0  0  0
 10 26  1  0  0  0
 26 27  1  0  0  0
 10  1  1  0  0  0
  8  3  1  0  0  0
 25 20  1  0  0  0
 17 18  1  0  0  0
M  END
> <minimizedAffinity>
-7.04657

> <CNNscore>
0.8391815424

> <CNNaffinity>
6.4311227798

> <CNN_VS>
5.3968796730

> <CNNaffinity_variance>
0.1765790284

$$$$
[H]OC(C#Cc1nc([H])nc2c([H])c(OC([H])([H])[H])c(OC([H])([H])[H])c([H])c12)(C([H])([H])[H])C([H])([H])c1c([H])c([H])c([H])c([H])c1[H]


 27 29  0  0  0  0  0  0  0  0999 V2000
    0.7802  -52.7808  -26.8765 C   0  0  0  0  0  0  0  0  0  0  0  0
   -0.0611  -53.8053  -26.4941 C   0  0  0  0  0  0  0  0  0  0  0  0
   -0.2501  -54.0173  -25.1432 C   0  0  0  0  0  0  0  0  0  0  0  0
   -1.0399  -54.9774  -24.6874 N   0  0  0  0  0  0  0  0  0  0  0  0
   -1.2081  -55.1642  -23.3771 C   0  0  0  0  0  0  0  0  0  0  0  0
   -0.5834  -54.3865  -22.4893 N   0  0  0  0  0  0  0  0  0  0  0  0
    0.2453  -53.3776  -22.8565 C   0  0  0  0  0  0  0  0  0  0  0  0
    0.4003  -53.2081  -24.2349 C   0  0  0  0  0  0  0  0  0  0  0  0
    1.2381  -52.1881  -24.6383 C   0  0  0  0  0  0  0  0  0  0  0  0
    1.4383  -51.9623  -25.9830 C   0  0  0  0  0  0  0  0  0  0  0  0
    0.0004  -52.8318  -29.1896 C   0  0  0  0  0  0  0  0  0  0  0  0
    1.0160  -52.5116  -28.2394 O   0  0  0  0  0  0  0  0  0  0  0  0
    0.9253  -52.5317  -21.9163 C   0  0  0  0  0  0  0  0  0  0  0  0
    1.4934  -51.8362  -21.1120 C   0  0  0  0  0  0  0  0  0  0  0  0
    2.1853  -50.9963  -20.1024 C   0  0  0  0  0  0  0  0  0  0  0  0
    3.2683  -50.1775  -20.7700 C   0  0  0  0  0  0  0  0  0  0  0  0
    2.8078  -51.7880  -19.1376 O   0  0  0  0  0  0  0  0  0  0  0  0
    2.9740  -52.6785  -19.5471 H   0  0  0  0  0  0  0  0  0  0  0  0
    1.1173  -50.1166  -19.5002 C   0  0  0  0  0  0  0  0  0  0  0  0
    0.5240  -50.7012  -18.2696 C   0  0  0  0  0  0  0  0  0  0  0  0
   -0.3156  -51.7846  -18.3365 C   0  0  0  0  0  0  0  0  0  0  0  0
   -0.8424  -52.2936  -17.1745 C   0  0  0  0  0  0  0  0  0  0  0  0
   -0.5503  -51.7463  -15.9505 C   0  0  0  0  0  0  0  0  0  0  0  0
    0.2869  -50.6645  -15.8725 C   0  0  0  0  0  0  0  0  0  0  0  0
    0.8090  -50.1623  -17.0406 C   0  0  0  0  0  0  0  0  0  0  0  0
    2.2860  -50.9310  -26.4314 O   0  0  0  0  0  0  0  0  0  0  0  0
    2.7625  -49.9982  -25.4795 C   0  0  0  0  0  0  0  0  0  0  0  0
 11 12  1  0  0  0
 12  1  1  0  0  0
  1  2  2  0  0  0
  2  3  1  0  0  0
  3  4  2  0  0  0
  4  5  1  0  0  0
  5  6  2  0  0  0
  6  7  1  0  0  0
  7 13  1  0  0  0
 13 14  3  0  0  0
 14 15  1  0  0  0
 15 16  1  0  0  0
 15 17  1  0  0  0
 15 19  1  0  0  0
 19 20  1  0  0  0
 20 21  2  0  0  0
 21 22  1  0  0  0
 22 23  2  0  0  0
 23 24  1  0  0  0
 24 25  2  0  0  0
  7  8  2  0  0  0
  8  9  1  0  0  0
  9 10  2  0  0  0
 10 26  1  0  0  0
 26 27  1  0  0  0
 10  1  1  0  0  0
  8  3  1  0  0  0
 25 20  1  0  0  0
 17 18  1  0  0  0
M  END
> <minimizedAffinity>
-7.51108

> <CNNscore>
0.7356004715

> <CNNaffinity>
6.6627988815

> <CNN_VS>
4.9011578560

> <CNNaffinity_variance>
0.2581139207

$$$$
[H]OC(C#Cc1nc([H])nc2c([H])c(OC([H])([H])[H])c(OC([H])([H])[H])c([H])c12)(C([H])([H])[H])C([H])([H])c1c([H])c([H])c([H])c([H])c1[H]


 27 29  0  0  0  0  0  0  0  0999 V2000
    0.6052  -53.3552  -24.8912 C   0  0  0  0  0  0  0  0  0  0  0  0
   -0.4413  -53.9900  -24.2544 C   0  0  0  0  0  0  0  0  0  0  0  0
   -0.5451  -53.8515  -22.8849 C   0  0  0  0  0  0  0  0  0  0  0  0
   -1.5174  -54.4257  -22.1933 N   0  0  0  0  0  0  0  0  0  0  0  0
   -1.5986  -54.2782  -20.8697 C   0  0  0  0  0  0  0  0  0  0  0  0
   -0.6998  -53.5464  -20.2065 N   0  0  0  0  0  0  0  0  0  0  0  0
    0.3320  -52.9194  -20.8244 C   0  0  0  0  0  0  0  0  0  0  0  0
    0.3889  -53.0935  -22.2098 C   0  0  0  0  0  0  0  0  0  0  0  0
    1.4288  -52.4663  -22.8657 C   0  0  0  0  0  0  0  0  0  0  0  0
    1.5477  -52.5938  -24.2329 C   0  0  0  0  0  0  0  0  0  0  0  0
   -0.0585  -52.6603  -27.1357 C   0  0  0  0  0  0  0  0  0  0  0  0
    0.7681  -53.4563  -26.2871 O   0  0  0  0  0  0  0  0  0  0  0  0
    1.3076  -52.1289  -20.1278 C   0  0  0  0  0  0  0  0  0  0  0  0
    2.1233  -51.4493  -19.5568 C   0  0  0  0  0  0  0  0  0  0  0  0
    3.1265  -50.5950  -18.8733 C   0  0  0  0  0  0  0  0  0  0  0  0
    4.3826  -50.5058  -19.7119 C   0  0  0  0  0  0  0  0  0  0  0  0
    3.4937  -51.1432  -17.6446 O   0  0  0  0  0  0  0  0  0  0  0  0
    3.3130  -52.1198  -17.6899 H   0  0  0  0  0  0  0  0  0  0  0  0
    2.4720  -49.2450  -18.7105 C   0  0  0  0  0  0  0  0  0  0  0  0
    2.6842  -48.3629  -19.8873 C   0  0  0  0  0  0  0  0  0  0  0  0
    3.6647  -47.4028  -19.8824 C   0  0  0  0  0  0  0  0  0  0  0  0
    3.8267  -46.6084  -20.9912 C   0  0  0  0  0  0  0  0  0  0  0  0
    3.0336  -46.7511  -22.1019 C   0  0  0  0  0  0  0  0  0  0  0  0
    2.0518  -47.7065  -22.1173 C   0  0  0  0  0  0  0  0  0  0  0  0
    1.8973  -48.4964  -21.0031 C   0  0  0  0  0  0  0  0  0  0  0  0
    2.5956  -51.9683  -24.9356 O   0  0  0  0  0  0  0  0  0  0  0  0
    3.7122  -51.5083  -24.1974 C   0  0  0  0  0  0  0  0  0  0  0  0
 11 12  1  0  0  0
 12  1  1  0  0  0
  1  2  2  0  0  0
  2  3  1  0  0  0
  3  4  2  0  0  0
  4  5  1  0  0  0
  5  6  2  0  0  0
  6  7  1  0  0  0
  7 13  1  0  0  0
 13 14  3  0  0  0
 14 15  1  0  0  0
 15 16  1  0  0  0
 15 17  1  0  0  0
 15 19  1  0  0  0
 19 20  1  0  0  0
 20 21  2  0  0  0
 21 22  1  0  0  0
 22 23  2  0  0  0
 23 24  1  0  0  0
 24 25  2  0  0  0
  7  8  2  0  0  0
  8  9  1  0  0  0
  9 10  2  0  0  0
 10 26  1  0  0  0
 26 27  1  0  0  0
 10  1  1  0  0  0
  8  3  1  0  0  0
 25 20  1  0  0  0
 17 18  1  0  0  0
M  END
> <minimizedAffinity>
-6.32520

> <CNNscore>
0.6826843023

> <CNNaffinity>
6.4275221825

> <CNN_VS>
4.3879685402

> <CNNaffinity_variance>
0.3401353955

$$$$
[H]OC(C#Cc1nc([H])nc2c([H])c(OC([H])([H])[H])c(OC([H])([H])[H])c([H])c12)(C([H])([H])[H])C([H])([H])c1c([H])c([H])c([H])c([H])c1[H]


 27 29  0  0  0  0  0  0  0  0999 V2000
    0.6497  -52.6575  -26.5875 C   0  0  0  0  0  0  0  0  0  0  0  0
   -0.0559  -53.7967  -26.2586 C   0  0  0  0  0  0  0  0  0  0  0  0
   -0.3540  -54.0116  -24.9280 C   0  0  0  0  0  0  0  0  0  0  0  0
   -1.0272  -55.0775  -24.5231 N   0  0  0  0  0  0  0  0  0  0  0  0
   -1.3045  -55.2650  -23.2315 C   0  0  0  0  0  0  0  0  0  0  0  0
   -0.9098  -54.3811  -22.3117 N   0  0  0  0  0  0  0  0  0  0  0  0
   -0.2156  -53.2591  -22.6261 C   0  0  0  0  0  0  0  0  0  0  0  0
    0.0587  -53.0921  -23.9862 C   0  0  0  0  0  0  0  0  0  0  0  0
    0.7639  -51.9584  -24.3361 C   0  0  0  0  0  0  0  0  0  0  0  0
    1.0701  -51.7279  -25.6599 C   0  0  0  0  0  0  0  0  0  0  0  0
    0.2283  -52.9936  -28.9688 C   0  0  0  0  0  0  0  0  0  0  0  0
    0.9860  -52.3789  -27.9272 O   0  0  0  0  0  0  0  0  0  0  0  0
    0.2169  -52.2981  -21.6509 C   0  0  0  0  0  0  0  0  0  0  0  0
    0.5833  -51.4770  -20.8478 C   0  0  0  0  0  0  0  0  0  0  0  0
    1.0423  -50.4506  -19.8786 C   0  0  0  0  0  0  0  0  0  0  0  0
    2.5180  -50.6317  -19.5984 C   0  0  0  0  0  0  0  0  0  0  0  0
    0.3759  -50.5821  -18.6605 O   0  0  0  0  0  0  0  0  0  0  0  0
    0.0610  -51.5228  -18.5949 H   0  0  0  0  0  0  0  0  0  0  0  0
    0.7612  -49.1183  -20.5292 C   0  0  0  0  0  0  0  0  0  0  0  0
    1.9780  -48.5054  -21.1223 C   0  0  0  0  0  0  0  0  0  0  0  0
    2.3640  -48.8015  -22.4055 C   0  0  0  0  0  0  0  0  0  0  0  0
    3.4957  -48.2128  -22.9148 C   0  0  0  0  0  0  0  0  0  0  0  0
    4.2485  -47.3373  -22.1733 C   0  0  0  0  0  0  0  0  0  0  0  0
    3.8720  -47.0347  -20.8911 C   0  0  0  0  0  0  0  0  0  0  0  0
    2.7382  -47.6289  -20.3903 C   0  0  0  0  0  0  0  0  0  0  0  0
    1.7881  -50.5823  -26.0540 O   0  0  0  0  0  0  0  0  0  0  0  0
    3.1700  -50.5251  -25.7532 C   0  0  0  0  0  0  0  0  0  0  0  0
 11 12  1  0  0  0
 12  1  1  0  0  0
  1  2  2  0  0  0
  2  3  1  0  0  0
  3  4  2  0  0  0
  4  5  1  0  0  0
  5  6  2  0  0  0
  6  7  1  0  0  0
  7 13  1  0  0  0
 13 14  3  0  0  0
 14 15  1  0  0  0
 15 16  1  0  0  0
 15 17  1  0  0  0
 15 19  1  0  0  0
 19 20  1  0  0  0
 20 21  2  0  0  0
 21 22  1  0  0  0
 22 23  2  0  0  0
 23 24  1  0  0  0
 24 25  2  0  0  0
  7  8  2  0  0  0
  8  9  1  0  0  0
  9 10  2  0  0  0
 10 26  1  0  0  0
 26 27  1  0  0  0
 10  1  1  0  0  0
  8  3  1  0  0  0
 25 20  1  0  0  0
 17 18  1  0  0  0
M  END
> <minimizedAffinity>
-7.04651

> <CNNscore>
0.6761647463

> <CNNaffinity>
6.5641450882

> <CNN_VS>
4.4384436607

> <CNNaffinity_variance>
0.3617882133

$$$$
[H]OC(C#Cc1nc([H])nc2c([H])c(OC([H])([H])[H])c(OC([H])([H])[H])c([H])c12)(C([H])([H])[H])C([H])([H])c1c([H])c([H])c([H])c([H])c1[H]


 27 29  0  0  0  0  0  0  0  0999 V2000
   -0.4887  -54.0852  -24.6854 C   0  0  0  0  0  0  0  0  0  0  0  0
   -1.1040  -54.6209  -23.5727 C   0  0  0  0  0  0  0  0  0  0  0  0
   -0.9060  -53.9939  -22.3589 C   0  0  0  0  0  0  0  0  0  0  0  0
   -1.4579  -54.4394  -21.2409 N   0  0  0  0  0  0  0  0  0  0  0  0
   -1.2529  -53.8174  -20.0784 C   0  0  0  0  0  0  0  0  0  0  0  0
   -0.4845  -52.7274  -20.0119 N   0  0  0  0  0  0  0  0  0  0  0  0
    0.1243  -52.1944  -21.1004 C   0  0  0  0  0  0  0  0  0  0  0  0
   -0.1101  -52.8687  -22.3018 C   0  0  0  0  0  0  0  0  0  0  0  0
    0.4967  -52.3485  -23.4269 C   0  0  0  0  0  0  0  0  0  0  0  0
    0.3098  -52.9617  -24.6470 C   0  0  0  0  0  0  0  0  0  0  0  0
    0.0920  -55.8561  -26.2627 C   0  0  0  0  0  0  0  0  0  0  0  0
   -0.6501  -54.6768  -25.9540 O   0  0  0  0  0  0  0  0  0  0  0  0
    0.9539  -51.0235  -21.0479 C   0  0  0  0  0  0  0  0  0  0  0  0
    1.6358  -50.0299  -21.0153 C   0  0  0  0  0  0  0  0  0  0  0  0
    2.4597  -48.7953  -20.9929 C   0  0  0  0  0  0  0  0  0  0  0  0
    2.3604  -48.1356  -19.6350 C   0  0  0  0  0  0  0  0  0  0  0  0
    1.9988  -47.8716  -21.9307 O   0  0  0  0  0  0  0  0  0  0  0  0
    1.0417  -48.0774  -22.1039 H   0  0  0  0  0  0  0  0  0  0  0  0
    3.8708  -49.2392  -21.2915 C   0  0  0  0  0  0  0  0  0  0  0  0
    3.9475  -50.1412  -22.4699 C   0  0  0  0  0  0  0  0  0  0  0  0
    4.3547  -51.4448  -22.3359 C   0  0  0  0  0  0  0  0  0  0  0  0
    4.4115  -52.2444  -23.4513 C   0  0  0  0  0  0  0  0  0  0  0  0
    4.0715  -51.7726  -24.6942 C   0  0  0  0  0  0  0  0  0  0  0  0
    3.6636  -50.4727  -24.8391 C   0  0  0  0  0  0  0  0  0  0  0  0
    3.6101  -49.6803  -23.7172 C   0  0  0  0  0  0  0  0  0  0  0  0
    0.9130  -52.4592  -25.8161 O   0  0  0  0  0  0  0  0  0  0  0  0
    0.3289  -51.3280  -26.4347 C   0  0  0  0  0  0  0  0  0  0  0  0
 11 12  1  0  0  0
 12  1  1  0  0  0
  1  2  2  0  0  0
  2  3  1  0  0  0
  3  4  2  0  0  0
  4  5  1  0  0  0
  5  6  2  0  0  0
  6  7  1  0  0  0
  7 13  1  0  0  0
 13 14  3  0  0  0
 14 15  1  0  0  0
 15 16  1  0  0  0
 15 17  1  0  0  0
 15 19  1  0  0  0
 19 20  1  0  0  0
 20 21  2  0  0  0
 21 22  1  0  0  0
 22 23  2  0  0  0
 23 24  1  0  0  0
 24 25  2  0  0  0
  7  8  2  0  0  0
  8  9  1  0  0  0
  9 10  2  0  0  0
 10 26  1  0  0  0
 26 27  1  0  0  0
 10  1  1  0  0  0
  8  3  1  0  0  0
 25 20  1  0  0  0
 17 18  1  0  0  0
M  END
> <minimizedAffinity>
-6.64935

> <CNNscore>
0.6566106081

> <CNNaffinity>
6.4165945053

> <CNN_VS>
4.2132039070

> <CNNaffinity_variance>
0.3218572736

$$$$
[H]OC(C#Cc1nc([H])nc2c([H])c(OC([H])([H])[H])c(OC([H])([H])[H])c([H])c12)(C([H])([H])[H])C([H])([H])c1c([H])c([H])c([H])c([H])c1[H]


 27 29  0  0  0  0  0  0  0  0999 V2000
    0.6224  -52.6028  -26.4463 C   0  0  0  0  0  0  0  0  0  0  0  0
   -0.1398  -53.7083  -26.1292 C   0  0  0  0  0  0  0  0  0  0  0  0
   -0.3876  -53.9624  -24.7951 C   0  0  0  0  0  0  0  0  0  0  0  0
   -1.1090  -55.0003  -24.4008 N   0  0  0  0  0  0  0  0  0  0  0  0
   -1.3361  -55.2267  -23.1057 C   0  0  0  0  0  0  0  0  0  0  0  0
   -0.8410  -54.4111  -22.1715 N   0  0  0  0  0  0  0  0  0  0  0  0
   -0.0906  -53.3226  -22.4743 C   0  0  0  0  0  0  0  0  0  0  0  0
    0.1289  -53.1133  -23.8384 C   0  0  0  0  0  0  0  0  0  0  0  0
    0.8893  -52.0124  -24.1767 C   0  0  0  0  0  0  0  0  0  0  0  0
    1.1465  -51.7435  -25.5038 C   0  0  0  0  0  0  0  0  0  0  0  0
    0.0481  -52.7790  -28.8128 C   0  0  0  0  0  0  0  0  0  0  0  0
    0.9119  -52.2872  -27.7887 O   0  0  0  0  0  0  0  0  0  0  0  0
    0.4499  -52.4348  -21.4836 C   0  0  0  0  0  0  0  0  0  0  0  0
    0.9076  -51.6751  -20.6671 C   0  0  0  0  0  0  0  0  0  0  0  0
    1.4798  -50.7243  -19.6812 C   0  0  0  0  0  0  0  0  0  0  0  0
    0.5398  -50.5754  -18.5051 C   0  0  0  0  0  0  0  0  0  0  0  0
    1.6353  -49.4573  -20.2430 O   0  0  0  0  0  0  0  0  0  0  0  0
    0.9938  -49.3876  -20.9993 H   0  0  0  0  0  0  0  0  0  0  0  0
    2.8029  -51.3164  -19.2614 C   0  0  0  0  0  0  0  0  0  0  0  0
    3.9182  -50.9118  -20.1561 C   0  0  0  0  0  0  0  0  0  0  0  0
    4.1505  -51.5708  -21.3372 C   0  0  0  0  0  0  0  0  0  0  0  0
    5.1924  -51.1643  -22.1346 C   0  0  0  0  0  0  0  0  0  0  0  0
    6.0054  -50.1173  -21.7798 C   0  0  0  0  0  0  0  0  0  0  0  0
    5.7822  -49.4525  -20.6028 C   0  0  0  0  0  0  0  0  0  0  0  0
    4.7373  -49.8666  -19.8116 C   0  0  0  0  0  0  0  0  0  0  0  0
    1.9183  -50.6294  -25.8863 O   0  0  0  0  0  0  0  0  0  0  0  0
    2.9229  -50.1773  -24.9975 C   0  0  0  0  0  0  0  0  0  0  0  0
 11 12  1  0  0  0
 12  1  1  0  0  0
  1  2  2  0  0  0
  2  3  1  0  0  0
  3  4  2  0  0  0
  4  5  1  0  0  0
  5  6  2  0  0  0
  6  7  1  0  0  0
  7 13  1  0  0  0
 13 14  3  0  0  0
 14 15  1  0  0  0
 15 16  1  0  0  0
 15 17  1  0  0  0
 15 19  1  0  0  0
 19 20  1  0  0  0
 20 21  2  0  0  0
 21 22  1  0  0  0
 22 23  2  0  0  0
 23 24  1  0  0  0
 24 25  2  0  0  0
  7  8  2  0  0  0
  8  9  1  0  0  0
  9 10  2  0  0  0
 10 26  1  0  0  0
 26 27  1  0  0  0
 10  1  1  0  0  0
  8  3  1  0  0  0
 25 20  1  0  0  0
 17 18  1  0  0  0
M  END
> <minimizedAffinity>
-7.11450

> <CNNscore>
0.6079201698

> <CNNaffinity>
6.4194388390

> <CNN_VS>
3.9025063515

> <CNNaffinity_variance>
0.3518959284

$$$$
[H]C([H])=C([H])C(=O)N([H])c1c(OC([H])([H])C([H])([H])N([H])C(=O)C([H])([H])S(=O)(=O)C([H])([H])[H])c([H])c2nc([H])nc(N([H])c3c([H])c(Cl)c(Cl)c([H])c3F)c2c1[H]


 39 41  0  0  0  0  0  0  0  0999 V2000
    0.5849  -51.8559  -19.2671 C   0  0  0  0  0  0  0  0  0  0  0  0
   -0.1827  -52.9485  -19.5103 C   0  0  0  0  0  0  0  0  0  0  0  0
   -0.3604  -53.3619  -20.8350 C   0  0  0  0  0  0  0  0  0  0  0  0
   -1.1221  -54.4455  -21.0691 N   0  0  0  0  0  0  0  0  0  0  0  0
   -1.3014  -54.8533  -22.3333 C   0  0  0  0  0  0  0  0  0  0  0  0
   -0.7136  -54.1626  -23.3024 N   0  0  0  0  0  0  0  0  0  0  0  0
    0.0502  -53.0910  -23.1854 C   0  0  0  0  0  0  0  0  0  0  0  0
    0.2422  -52.6571  -21.8564 C   0  0  0  0  0  0  0  0  0  0  0  0
    1.0138  -51.5556  -21.5856 C   0  0  0  0  0  0  0  0  0  0  0  0
    1.2046  -51.1280  -20.2900 C   0  0  0  0  0  0  0  0  0  0  0  0
    1.9853  -50.0077  -19.9706 N   0  0  0  0  0  0  0  0  0  0  0  0
    1.8109  -48.6703  -20.3001 C   0  0  0  0  0  0  0  0  0  0  0  0
    0.8803  -48.2257  -20.9704 O   0  0  0  0  0  0  0  0  0  0  0  0
    2.8672  -50.2003  -19.3727 H   0  0  0  0  0  0  0  0  0  0  0  0
    2.7947  -47.6713  -19.8305 C   0  0  0  0  0  0  0  0  0  0  0  0
    3.4744  -46.9137  -20.6409 C   0  0  0  0  0  0  0  0  0  0  0  0
    0.6498  -52.3935  -24.2502 N   0  0  0  0  0  0  0  0  0  0  0  0
    1.4442  -51.7266  -24.0579 H   0  0  0  0  0  0  0  0  0  0  0  0
    0.2825  -52.4987  -25.6088 C   0  0  0  0  0  0  0  0  0  0  0  0
   -0.9970  -52.4231  -26.1095 C   0  0  0  0  0  0  0  0  0  0  0  0
   -1.2287  -52.5452  -27.4897 C   0  0  0  0  0  0  0  0  0  0  0  0
   -2.8731  -52.4435  -28.0910 Cl  0  0  0  0  0  0  0  0  0  0  0  0
   -0.2094  -52.7424  -28.3889 C   0  0  0  0  0  0  0  0  0  0  0  0
   -0.4636  -52.8972  -30.0996 Cl  0  0  0  0  0  0  0  0  0  0  0  0
    1.0579  -52.8147  -27.8678 C   0  0  0  0  0  0  0  0  0  0  0  0
    1.3213  -52.7001  -26.5297 C   0  0  0  0  0  0  0  0  0  0  0  0
    2.5984  -52.7797  -26.0700 F   0  0  0  0  0  0  0  0  0  0  0  0
    0.7863  -51.4130  -17.9666 O   0  0  0  0  0  0  0  0  0  0  0  0
   -0.3208  -51.0471  -17.1631 C   0  0  0  0  0  0  0  0  0  0  0  0
   -0.0541  -51.5204  -15.7751 C   0  0  0  0  0  0  0  0  0  0  0  0
   -2.0611  -51.3675  -14.2977 C   0  0  0  0  0  0  0  0  0  0  0  0
   -1.8543  -50.1399  -14.1651 O   0  0  0  0  0  0  0  0  0  0  0  0
   -1.1726  -52.1165  -15.1090 N   0  0  0  0  0  0  0  0  0  0  0  0
   -1.3520  -53.1557  -15.2196 H   0  0  0  0  0  0  0  0  0  0  0  0
   -3.2104  -51.9957  -13.6150 C   0  0  0  0  0  0  0  0  0  0  0  0
   -4.4549  -51.9412  -16.2072 C   0  0  0  0  0  0  0  0  0  0  0  0
   -4.7283  -51.7161  -14.4701 S   0  0  0  0  0  0  0  0  0  0  0  0
   -5.7112  -52.7519  -14.0175 O   0  0  0  0  0  0  0  0  0  0  0  0
   -5.2280  -50.3246  -14.1671 O   0  0  0  0  0  0  0  0  0  0  0  0
 36 37  1  0  0  0
 37 38  2  0  0  0
 37 39  2  0  0  0
 37 35  1  0  0  0
 35 31  1  0  0  0
 31 32  2  0  0  0
 31 33  1  0  0  0
 33 30  1  0  0  0
 30 29  1  0  0  0
 29 28  1  0  0  0
 28  1  1  0  0  0
  1  2  2  0  0  0
  2  3  1  0  0  0
  3  4  2  0  0  0
  4  5  1  0  0  0
  5  6  2  0  0  0
  6  7  1  0  0  0
  7 17  1  0  0  0
 17 19  1  0  0  0
 19 20  2  0  0  0
 20 21  1  0  0  0
 21 22  1  0  0  0
 21 23  2  0  0  0
 23 24  1  0  0  0
 23 25  1  0  0  0
 25 26  2  0  0  0
 26 27  1  0  0  0
  7  8  2  0  0  0
  8  9  1  0  0  0
  9 10  2  0  0  0
 10 11  1  0  0  0
 11 12  1  0  0  0
 12 13  2  0  0  0
 12 15  1  0  0  0
 15 16  2  0  0  0
 10  1  1  0  0  0
  8  3  1  0  0  0
 26 19  1  0  0  0
 33 34  1  0  0  0
 17 18  1  0  0  0
 11 14  1  0  0  0
M  END
> <minimizedAffinity>
-8.42834

> <CNNscore>
0.9496405125

> <CNNaffinity>
7.9181823730

> <CNN_VS>
7.5194268227

> <CNNaffinity_variance>
0.0401459523

$$$$
[H]C([H])=C([H])C(=O)N([H])c1c(OC([H])([H])C([H])([H])N([H])C(=O)C([H])([H])S(=O)(=O)C([H])([H])[H])c([H])c2nc([H])nc(N([H])c3c([H])c(Cl)c(Cl)c([H])c3F)c2c1[H]


 39 41  0  0  0  0  0  0  0  0999 V2000
   -0.1034  -51.5069  -19.3648 C   0  0  0  0  0  0  0  0  0  0  0  0
   -0.6737  -52.7126  -19.6165 C   0  0  0  0  0  0  0  0  0  0  0  0
   -0.6338  -53.2139  -20.9220 C   0  0  0  0  0  0  0  0  0  0  0  0
   -1.2006  -54.4093  -21.1647 N   0  0  0  0  0  0  0  0  0  0  0  0
   -1.1701  -54.9023  -22.4107 C   0  0  0  0  0  0  0  0  0  0  0  0
   -0.5767  -54.1813  -23.3541 N   0  0  0  0  0  0  0  0  0  0  0  0
    0.0077  -53.0033  -23.2266 C   0  0  0  0  0  0  0  0  0  0  0  0
   -0.0216  -52.4794  -21.9166 C   0  0  0  0  0  0  0  0  0  0  0  0
    0.5481  -51.2630  -21.6376 C   0  0  0  0  0  0  0  0  0  0  0  0
    0.5223  -50.7472  -20.3605 C   0  0  0  0  0  0  0  0  0  0  0  0
    1.0926  -49.5084  -20.0337 N   0  0  0  0  0  0  0  0  0  0  0  0
    2.3798  -49.0314  -20.2413 C   0  0  0  0  0  0  0  0  0  0  0  0
    3.2863  -49.6633  -20.7818 O   0  0  0  0  0  0  0  0  0  0  0  0
    0.4374  -48.8011  -19.5409 H   0  0  0  0  0  0  0  0  0  0  0  0
    2.7306  -47.6663  -19.7945 C   0  0  0  0  0  0  0  0  0  0  0  0
    3.7657  -47.0195  -20.2449 C   0  0  0  0  0  0  0  0  0  0  0  0
    0.6230  -52.2787  -24.2640 N   0  0  0  0  0  0  0  0  0  0  0  0
    1.2793  -51.4863  -24.0314 H   0  0  0  0  0  0  0  0  0  0  0  0
    0.4454  -52.5130  -25.6443 C   0  0  0  0  0  0  0  0  0  0  0  0
    1.3468  -53.1265  -26.4837 C   0  0  0  0  0  0  0  0  0  0  0  0
    1.0472  -53.2983  -27.8454 C   0  0  0  0  0  0  0  0  0  0  0  0
    2.2208  -54.0847  -28.8846 Cl  0  0  0  0  0  0  0  0  0  0  0  0
   -0.1369  -52.8705  -28.3944 C   0  0  0  0  0  0  0  0  0  0  0  0
   -0.5361  -53.0681  -30.0727 Cl  0  0  0  0  0  0  0  0  0  0  0  0
   -1.0207  -52.2616  -27.5394 C   0  0  0  0  0  0  0  0  0  0  0  0
   -0.7629  -52.0773  -26.2081 C   0  0  0  0  0  0  0  0  0  0  0  0
   -1.6771  -51.4669  -25.4078 F   0  0  0  0  0  0  0  0  0  0  0  0
   -0.1214  -50.9741  -18.0827 O   0  0  0  0  0  0  0  0  0  0  0  0
   -0.1094  -51.8341  -16.9577 C   0  0  0  0  0  0  0  0  0  0  0  0
   -1.4284  -52.5255  -16.8973 C   0  0  0  0  0  0  0  0  0  0  0  0
   -3.6683  -52.2818  -15.8214 C   0  0  0  0  0  0  0  0  0  0  0  0
   -4.2031  -52.7232  -16.8638 O   0  0  0  0  0  0  0  0  0  0  0  0
   -2.2565  -52.1625  -15.7871 N   0  0  0  0  0  0  0  0  0  0  0  0
   -1.8075  -51.7893  -14.9019 H   0  0  0  0  0  0  0  0  0  0  0  0
   -4.5107  -51.9021  -14.6690 C   0  0  0  0  0  0  0  0  0  0  0  0
   -5.1601  -49.8757  -12.7343 C   0  0  0  0  0  0  0  0  0  0  0  0
   -3.9148  -50.4540  -13.8558 S   0  0  0  0  0  0  0  0  0  0  0  0
   -2.7099  -50.8378  -13.0528 O   0  0  0  0  0  0  0  0  0  0  0  0
   -3.5700  -49.4048  -14.8844 O   0  0  0  0  0  0  0  0  0  0  0  0
 36 37  1  0  0  0
 37 38  2  0  0  0
 37 39  2  0  0  0
 37 35  1  0  0  0
 35 31  1  0  0  0
 31 32  2  0  0  0
 31 33  1  0  0  0
 33 30  1  0  0  0
 30 29  1  0  0  0
 29 28  1  0  0  0
 28  1  1  0  0  0
  1  2  2  0  0  0
  2  3  1  0  0  0
  3  4  2  0  0  0
  4  5  1  0  0  0
  5  6  2  0  0  0
  6  7  1  0  0  0
  7 17  1  0  0  0
 17 19  1  0  0  0
 19 20  2  0  0  0
 20 21  1  0  0  0
 21 22  1  0  0  0
 21 23  2  0  0  0
 23 24  1  0  0  0
 23 25  1  0  0  0
 25 26  2  0  0  0
 26 27  1  0  0  0
  7  8  2  0  0  0
  8  9  1  0  0  0
  9 10  2  0  0  0
 10 11  1  0  0  0
 11 12  1  0  0  0
 12 13  2  0  0  0
 12 15  1  0  0  0
 15 16  2  0  0  0
 10  1  1  0  0  0
  8  3  1  0  0  0
 26 19  1  0  0  0
 33 34  1  0  0  0
 17 18  1  0  0  0
 11 14  1  0  0  0
M  END
> <minimizedAffinity>
-7.40407

> <CNNscore>
0.8929495811

> <CNNaffinity>
7.7190971375

> <CNN_VS>
6.8927645683

> <CNNaffinity_variance>
0.0676636249

$$$$
[H]C([H])=C([H])C(=O)N([H])c1c(OC([H])([H])C([H])([H])N([H])C(=O)C([H])([H])S(=O)(=O)C([H])([H])[H])c([H])c2nc([H])nc(N([H])c3c([H])c(Cl)c(Cl)c([H])c3F)c2c1[H]


 39 41  0  0  0  0  0  0  0  0999 V2000
    0.1491  -51.9227  -19.1863 C   0  0  0  0  0  0  0  0  0  0  0  0
   -0.6129  -53.0075  -19.4774 C   0  0  0  0  0  0  0  0  0  0  0  0
   -0.7021  -53.4266  -20.8091 C   0  0  0  0  0  0  0  0  0  0  0  0
   -1.4588  -54.5024  -21.0909 N   0  0  0  0  0  0  0  0  0  0  0  0
   -1.5536  -54.9156  -22.3624 C   0  0  0  0  0  0  0  0  0  0  0  0
   -0.8905  -54.2378  -23.2912 N   0  0  0  0  0  0  0  0  0  0  0  0
   -0.1237  -53.1747  -23.1262 C   0  0  0  0  0  0  0  0  0  0  0  0
   -0.0203  -52.7352  -21.7892 C   0  0  0  0  0  0  0  0  0  0  0  0
    0.7439  -51.6414  -21.4703 C   0  0  0  0  0  0  0  0  0  0  0  0
    0.8482  -51.2085  -20.1667 C   0  0  0  0  0  0  0  0  0  0  0  0
    1.6183  -50.0956  -19.7988 N   0  0  0  0  0  0  0  0  0  0  0  0
    1.5491  -48.7767  -20.2268 C   0  0  0  0  0  0  0  0  0  0  0  0
    0.7464  -48.3457  -21.0533 O   0  0  0  0  0  0  0  0  0  0  0  0
    2.3937  -50.2783  -19.0655 H   0  0  0  0  0  0  0  0  0  0  0  0
    2.4927  -47.7820  -19.6733 C   0  0  0  0  0  0  0  0  0  0  0  0
    3.6382  -48.1093  -19.1502 C   0  0  0  0  0  0  0  0  0  0  0  0
    0.5581  -52.4909  -24.1497 N   0  0  0  0  0  0  0  0  0  0  0  0
    1.3770  -51.8707  -23.9096 H   0  0  0  0  0  0  0  0  0  0  0  0
    0.2461  -52.5517  -25.5246 C   0  0  0  0  0  0  0  0  0  0  0  0
   -1.0132  -52.4695  -26.0733 C   0  0  0  0  0  0  0  0  0  0  0  0
   -1.1887  -52.5453  -27.4650 C   0  0  0  0  0  0  0  0  0  0  0  0
   -2.8088  -52.4367  -28.1278 Cl  0  0  0  0  0  0  0  0  0  0  0  0
   -0.1326  -52.7022  -28.3289 C   0  0  0  0  0  0  0  0  0  0  0  0
   -0.3171  -52.7994  -30.0528 Cl  0  0  0  0  0  0  0  0  0  0  0  0
    1.1137  -52.7819  -27.7603 C   0  0  0  0  0  0  0  0  0  0  0  0
    1.3226  -52.7119  -26.4096 C   0  0  0  0  0  0  0  0  0  0  0  0
    2.5811  -52.7967  -25.9022 F   0  0  0  0  0  0  0  0  0  0  0  0
    0.2639  -51.4745  -17.8771 O   0  0  0  0  0  0  0  0  0  0  0  0
   -0.6666  -51.9003  -16.8982 C   0  0  0  0  0  0  0  0  0  0  0  0
   -0.4355  -51.0928  -15.6668 C   0  0  0  0  0  0  0  0  0  0  0  0
    1.1048  -50.9005  -13.7111 C   0  0  0  0  0  0  0  0  0  0  0  0
    0.8485  -49.6768  -13.6456 O   0  0  0  0  0  0  0  0  0  0  0  0
    0.4753  -51.6674  -14.7232 N   0  0  0  0  0  0  0  0  0  0  0  0
    0.6943  -52.7036  -14.7746 H   0  0  0  0  0  0  0  0  0  0  0  0
    2.0438  -51.5061  -12.7451 C   0  0  0  0  0  0  0  0  0  0  0  0
    4.4734  -53.0448  -12.7642 C   0  0  0  0  0  0  0  0  0  0  0  0
    3.6926  -51.5729  -13.3698 S   0  0  0  0  0  0  0  0  0  0  0  0
    3.6175  -51.6686  -14.8628 O   0  0  0  0  0  0  0  0  0  0  0  0
    4.4435  -50.3354  -12.9423 O   0  0  0  0  0  0  0  0  0  0  0  0
 36 37  1  0  0  0
 37 38  2  0  0  0
 37 39  2  0  0  0
 37 35  1  0  0  0
 35 31  1  0  0  0
 31 32  2  0  0  0
 31 33  1  0  0  0
 33 30  1  0  0  0
 30 29  1  0  0  0
 29 28  1  0  0  0
 28  1  1  0  0  0
  1  2  2  0  0  0
  2  3  1  0  0  0
  3  4  2  0  0  0
  4  5  1  0  0  0
  5  6  2  0  0  0
  6  7  1  0  0  0
  7 17  1  0  0  0
 17 19  1  0  0  0
 19 20  2  0  0  0
 20 21  1  0  0  0
 21 22  1  0  0  0
 21 23  2  0  0  0
 23 24  1  0  0  0
 23 25  1  0  0  0
 25 26  2  0  0  0
 26 27  1  0  0  0
  7  8  2  0  0  0
  8  9  1  0  0  0
  9 10  2  0  0  0
 10 11  1  0  0  0
 11 12  1  0  0  0
 12 13  2  0  0  0
 12 15  1  0  0  0
 15 16  2  0  0  0
 10  1  1  0  0  0
  8  3  1  0  0  0
 26 19  1  0  0  0
 33 34  1  0  0  0
 17 18  1  0  0  0
 11 14  1  0  0  0
M  END
> <minimizedAffinity>
-8.32808

> <CNNscore>
0.8735201955

> <CNNaffinity>
7.5729789734

> <CNN_VS>
6.6151499748

> <CNNaffinity_variance>
0.0695052743

$$$$
[H]C([H])=C([H])C(=O)N([H])c1c(OC([H])([H])C([H])([H])N([H])C(=O)C([H])([H])S(=O)(=O)C([H])([H])[H])c([H])c2nc([H])nc(N([H])c3c([H])c(Cl)c(Cl)c([H])c3F)c2c1[H]


 39 41  0  0  0  0  0  0  0  0999 V2000
   -0.0256  -51.8139  -19.1197 C   0  0  0  0  0  0  0  0  0  0  0  0
   -0.5831  -53.0071  -19.4478 C   0  0  0  0  0  0  0  0  0  0  0  0
   -0.6639  -53.3607  -20.7990 C   0  0  0  0  0  0  0  0  0  0  0  0
   -1.2173  -54.5446  -21.1173 N   0  0  0  0  0  0  0  0  0  0  0  0
   -1.3015  -54.8969  -22.4078 C   0  0  0  0  0  0  0  0  0  0  0  0
   -0.8306  -54.0535  -23.3181 N   0  0  0  0  0  0  0  0  0  0  0  0
   -0.2711  -52.8736  -23.1174 C   0  0  0  0  0  0  0  0  0  0  0  0
   -0.1799  -52.4976  -21.7603 C   0  0  0  0  0  0  0  0  0  0  0  0
    0.3795  -51.2967  -21.4040 C   0  0  0  0  0  0  0  0  0  0  0  0
    0.4709  -50.9250  -20.0807 C   0  0  0  0  0  0  0  0  0  0  0  0
    1.0352  -49.7071  -19.6746 N   0  0  0  0  0  0  0  0  0  0  0  0
    2.3549  -49.3802  -19.3933 C   0  0  0  0  0  0  0  0  0  0  0  0
    3.3033  -50.1606  -19.4603 O   0  0  0  0  0  0  0  0  0  0  0  0
    0.3447  -48.8813  -19.5575 H   0  0  0  0  0  0  0  0  0  0  0  0
    2.6900  -48.0011  -18.9783 C   0  0  0  0  0  0  0  0  0  0  0  0
    3.8101  -47.6918  -18.3932 C   0  0  0  0  0  0  0  0  0  0  0  0
    0.2119  -52.0155  -24.1225 N   0  0  0  0  0  0  0  0  0  0  0  0
    0.6321  -51.0845  -23.8588 H   0  0  0  0  0  0  0  0  0  0  0  0
    0.1915  -52.2833  -25.5080 C   0  0  0  0  0  0  0  0  0  0  0  0
    1.2456  -52.7541  -26.2569 C   0  0  0  0  0  0  0  0  0  0  0  0
    1.0939  -52.9791  -27.6352 C   0  0  0  0  0  0  0  0  0  0  0  0
    2.4597  -53.5797  -28.5571 Cl  0  0  0  0  0  0  0  0  0  0  0  0
   -0.0907  -52.7446  -28.2896 C   0  0  0  0  0  0  0  0  0  0  0  0
   -0.3093  -53.0126  -29.9912 Cl  0  0  0  0  0  0  0  0  0  0  0  0
   -1.1280  -52.2754  -27.5236 C   0  0  0  0  0  0  0  0  0  0  0  0
   -1.0168  -52.0447  -26.1792 C   0  0  0  0  0  0  0  0  0  0  0  0
   -2.0796  -51.5792  -25.4703 F   0  0  0  0  0  0  0  0  0  0  0  0
    0.0735  -51.4256  -17.7903 O   0  0  0  0  0  0  0  0  0  0  0  0
   -0.8124  -51.9653  -16.8264 C   0  0  0  0  0  0  0  0  0  0  0  0
   -0.1362  -51.9040  -15.4995 C   0  0  0  0  0  0  0  0  0  0  0  0
    0.0279  -49.6063  -14.5364 C   0  0  0  0  0  0  0  0  0  0  0  0
    1.0302  -49.3904  -15.2549 O   0  0  0  0  0  0  0  0  0  0  0  0
   -0.6038  -50.8719  -14.6242 N   0  0  0  0  0  0  0  0  0  0  0  0
   -1.4530  -51.0504  -14.0148 H   0  0  0  0  0  0  0  0  0  0  0  0
   -0.4643  -48.5510  -13.6278 C   0  0  0  0  0  0  0  0  0  0  0  0
   -1.9273  -46.2483  -14.5381 C   0  0  0  0  0  0  0  0  0  0  0  0
   -2.0598  -47.9597  -14.0948 S   0  0  0  0  0  0  0  0  0  0  0  0
   -2.4974  -48.7204  -15.3088 O   0  0  0  0  0  0  0  0  0  0  0  0
   -3.0252  -48.1594  -12.9520 O   0  0  0  0  0  0  0  0  0  0  0  0
 36 37  1  0  0  0
 37 38  2  0  0  0
 37 39  2  0  0  0
 37 35  1  0  0  0
 35 31  1  0  0  0
 31 32  2  0  0  0
 31 33  1  0  0  0
 33 30  1  0  0  0
 30 29  1  0  0  0
 29 28  1  0  0  0
 28  1  1  0  0  0
  1  2  2  0  0  0
  2  3  1  0  0  0
  3  4  2  0  0  0
  4  5  1  0  0  0
  5  6  2  0  0  0
  6  7  1  0  0  0
  7 17  1  0  0  0
 17 19  1  0  0  0
 19 20  2  0  0  0
 20 21  1  0  0  0
 21 22  1  0  0  0
 21 23  2  0  0  0
 23 24  1  0  0  0
 23 25  1  0  0  0
 25 26  2  0  0  0
 26 27  1  0  0  0
  7  8  2  0  0  0
  8  9  1  0  0  0
  9 10  2  0  0  0
 10 11  1  0  0  0
 11 12  1  0  0  0
 12 13  2  0  0  0
 12 15  1  0  0  0
 15 16  2  0  0  0
 10  1  1  0  0  0
  8  3  1  0  0  0
 26 19  1  0  0  0
 33 34  1  0  0  0
 17 18  1  0  0  0
 11 14  1  0  0  0
M  END
> <minimizedAffinity>
-7.53115

> <CNNscore>
0.8667532206

> <CNNaffinity>
7.5869584084

> <CNN_VS>
6.5760207176

> <CNNaffinity_variance>
0.0729531944

$$$$
[H]C([H])=C([H])C(=O)N([H])c1c(OC([H])([H])C([H])([H])N([H])C(=O)C([H])([H])S(=O)(=O)C([H])([H])[H])c([H])c2nc([H])nc(N([H])c3c([H])c(Cl)c(Cl)c([H])c3F)c2c1[H]


 39 41  0  0  0  0  0  0  0  0999 V2000
   -0.0428  -52.8866  -19.7770 C   0  0  0  0  0  0  0  0  0  0  0  0
   -0.7031  -53.9088  -20.3781 C   0  0  0  0  0  0  0  0  0  0  0  0
   -0.7103  -53.9729  -21.7756 C   0  0  0  0  0  0  0  0  0  0  0  0
   -1.3663  -54.9884  -22.3651 N   0  0  0  0  0  0  0  0  0  0  0  0
   -1.3818  -55.0629  -23.7033 C   0  0  0  0  0  0  0  0  0  0  0  0
   -0.7433  -54.1228  -24.3891 N   0  0  0  0  0  0  0  0  0  0  0  0
   -0.0719  -53.0885  -23.9150 C   0  0  0  0  0  0  0  0  0  0  0  0
   -0.0524  -53.0052  -22.5065 C   0  0  0  0  0  0  0  0  0  0  0  0
    0.6083  -51.9814  -21.8761 C   0  0  0  0  0  0  0  0  0  0  0  0
    0.6305  -51.8956  -20.5014 C   0  0  0  0  0  0  0  0  0  0  0  0
    1.2938  -50.8658  -19.8186 N   0  0  0  0  0  0  0  0  0  0  0  0
    2.6019  -50.7922  -19.3594 C   0  0  0  0  0  0  0  0  0  0  0  0
    3.4442  -51.6796  -19.4875 O   0  0  0  0  0  0  0  0  0  0  0  0
    0.7055  -49.9813  -19.6091 H   0  0  0  0  0  0  0  0  0  0  0  0
    3.0592  -49.5735  -18.6581 C   0  0  0  0  0  0  0  0  0  0  0  0
    2.4710  -48.4204  -18.7887 C   0  0  0  0  0  0  0  0  0  0  0  0
    0.5881  -52.1168  -24.6897 N   0  0  0  0  0  0  0  0  0  0  0  0
    0.0720  -51.6309  -25.4710 H   0  0  0  0  0  0  0  0  0  0  0  0
    1.9280  -51.7067  -24.5221 C   0  0  0  0  0  0  0  0  0  0  0  0
    2.3474  -50.4768  -24.0692 C   0  0  0  0  0  0  0  0  0  0  0  0
    3.7180  -50.1932  -23.9483 C   0  0  0  0  0  0  0  0  0  0  0  0
    4.2146  -48.6147  -23.3675 Cl  0  0  0  0  0  0  0  0  0  0  0  0
    4.6871  -51.1117  -24.2701 C   0  0  0  0  0  0  0  0  0  0  0  0
    6.3881  -50.7913  -24.1317 Cl  0  0  0  0  0  0  0  0  0  0  0  0
    4.2465  -52.3310  -24.7195 C   0  0  0  0  0  0  0  0  0  0  0  0
    2.9202  -52.6425  -24.8499 C   0  0  0  0  0  0  0  0  0  0  0  0
    2.5418  -53.8682  -25.3007 F   0  0  0  0  0  0  0  0  0  0  0  0
   -0.0117  -52.7869  -18.3924 O   0  0  0  0  0  0  0  0  0  0  0  0
   -0.7926  -51.8055  -17.7349 C   0  0  0  0  0  0  0  0  0  0  0  0
   -1.0073  -52.2579  -16.3310 C   0  0  0  0  0  0  0  0  0  0  0  0
   -2.9957  -51.1738  -15.2799 C   0  0  0  0  0  0  0  0  0  0  0  0
   -2.3206  -50.1341  -15.1049 O   0  0  0  0  0  0  0  0  0  0  0  0
   -2.3729  -52.2848  -15.9015 N   0  0  0  0  0  0  0  0  0  0  0  0
   -2.9485  -53.1631  -16.0488 H   0  0  0  0  0  0  0  0  0  0  0  0
   -4.4052  -51.2159  -14.8403 C   0  0  0  0  0  0  0  0  0  0  0  0
   -3.6859  -53.0371  -12.7338 C   0  0  0  0  0  0  0  0  0  0  0  0
   -4.8174  -52.7477  -14.0676 S   0  0  0  0  0  0  0  0  0  0  0  0
   -6.1928  -52.6178  -13.4887 O   0  0  0  0  0  0  0  0  0  0  0  0
   -4.7607  -53.8579  -15.0885 O   0  0  0  0  0  0  0  0  0  0  0  0
 36 37  1  0  0  0
 37 38  2  0  0  0
 37 39  2  0  0  0
 37 35  1  0  0  0
 35 31  1  0  0  0
 31 32  2  0  0  0
 31 33  1  0  0  0
 33 30  1  0  0  0
 30 29  1  0  0  0
 29 28  1  0  0  0
 28  1  1  0  0  0
  1  2  2  0  0  0
  2  3  1  0  0  0
  3  4  2  0  0  0
  4  5  1  0  0  0
  5  6  2  0  0  0
  6  7  1  0  0  0
  7 17  1  0  0  0
 17 19  1  0  0  0
 19 20  2  0  0  0
 20 21  1  0  0  0
 21 22  1  0  0  0
 21 23  2  0  0  0
 23 24  1  0  0  0
 23 25  1  0  0  0
 25 26  2  0  0  0
 26 27  1  0  0  0
  7  8  2  0  0  0
  8  9  1  0  0  0
  9 10  2  0  0  0
 10 11  1  0  0  0
 11 12  1  0  0  0
 12 13  2  0  0  0
 12 15  1  0  0  0
 15 16  2  0  0  0
 10  1  1  0  0  0
  8  3  1  0  0  0
 26 19  1  0  0  0
 33 34  1  0  0  0
 17 18  1  0  0  0
 11 14  1  0  0  0
M  END
> <minimizedAffinity>
-7.37104

> <CNNscore>
0.7669537663

> <CNNaffinity>
7.5775656700

> <CNN_VS>
5.8116426468

> <CNNaffinity_variance>
0.0412666127

$$$$
[H]C([H])=C([H])C(=O)N([H])c1c(OC([H])([H])C([H])([H])N([H])C(=O)C([H])([H])S(=O)(=O)C([H])([H])[H])c([H])c2nc([H])nc(N([H])c3c([H])c(Cl)c(Cl)c([H])c3F)c2c1[H]


 39 41  0  0  0  0  0  0  0  0999 V2000
    1.8149  -51.5213  -22.9078 C   0  0  0  0  0  0  0  0  0  0  0  0
    0.7998  -52.3298  -23.3054 C   0  0  0  0  0  0  0  0  0  0  0  0
    0.0354  -52.9765  -22.3283 C   0  0  0  0  0  0  0  0  0  0  0  0
   -0.9691  -53.7762  -22.7289 N   0  0  0  0  0  0  0  0  0  0  0  0
   -1.7101  -54.4023  -21.8040 C   0  0  0  0  0  0  0  0  0  0  0  0
   -1.4148  -54.2017  -20.5256 N   0  0  0  0  0  0  0  0  0  0  0  0
   -0.4567  -53.4425  -20.0245 C   0  0  0  0  0  0  0  0  0  0  0  0
    0.3266  -52.7809  -20.9940 C   0  0  0  0  0  0  0  0  0  0  0  0
    1.3579  -51.9586  -20.6167 C   0  0  0  0  0  0  0  0  0  0  0  0
    2.1255  -51.3103  -21.5591 C   0  0  0  0  0  0  0  0  0  0  0  0
    3.1880  -50.4619  -21.2154 N   0  0  0  0  0  0  0  0  0  0  0  0
    4.5541  -50.7067  -21.1769 C   0  0  0  0  0  0  0  0  0  0  0  0
    5.0854  -51.7802  -21.4573 O   0  0  0  0  0  0  0  0  0  0  0  0
    2.9155  -49.4528  -20.9331 H   0  0  0  0  0  0  0  0  0  0  0  0
    5.4761  -49.6232  -20.7739 C   0  0  0  0  0  0  0  0  0  0  0  0
    6.7641  -49.6916  -20.9443 C   0  0  0  0  0  0  0  0  0  0  0  0
   -0.1850  -53.2654  -18.6553 N   0  0  0  0  0  0  0  0  0  0  0  0
    0.7403  -53.5820  -18.2599 H   0  0  0  0  0  0  0  0  0  0  0  0
   -1.0608  -52.6821  -17.7149 C   0  0  0  0  0  0  0  0  0  0  0  0
   -2.3163  -53.1392  -17.3859 C   0  0  0  0  0  0  0  0  0  0  0  0
   -3.0911  -52.4628  -16.4290 C   0  0  0  0  0  0  0  0  0  0  0  0
   -4.6867  -53.0751  -16.0356 Cl  0  0  0  0  0  0  0  0  0  0  0  0
   -2.6419  -51.3342  -15.7880 C   0  0  0  0  0  0  0  0  0  0  0  0
   -3.5754  -50.4762  -14.6015 Cl  0  0  0  0  0  0  0  0  0  0  0  0
   -1.3877  -50.8961  -16.1313 C   0  0  0  0  0  0  0  0  0  0  0  0
   -0.6050  -51.5293  -17.0584 C   0  0  0  0  0  0  0  0  0  0  0  0
    0.6312  -51.0494  -17.3588 F   0  0  0  0  0  0  0  0  0  0  0  0
    2.5972  -50.8613  -23.8460 O   0  0  0  0  0  0  0  0  0  0  0  0
    3.5330  -51.5854  -24.6240 C   0  0  0  0  0  0  0  0  0  0  0  0
    3.4898  -51.0435  -26.0118 C   0  0  0  0  0  0  0  0  0  0  0  0
    2.1133  -52.5491  -27.4515 C   0  0  0  0  0  0  0  0  0  0  0  0
    3.0379  -53.3931  -27.4310 O   0  0  0  0  0  0  0  0  0  0  0  0
    2.2938  -51.3350  -26.7430 N   0  0  0  0  0  0  0  0  0  0  0  0
    1.5079  -50.6233  -26.7620 H   0  0  0  0  0  0  0  0  0  0  0  0
    0.8746  -52.8362  -28.2030 C   0  0  0  0  0  0  0  0  0  0  0  0
   -1.9966  -52.6730  -28.2280 C   0  0  0  0  0  0  0  0  0  0  0  0
   -0.5632  -52.7253  -27.1862 S   0  0  0  0  0  0  0  0  0  0  0  0
   -0.6388  -53.9696  -26.3556 O   0  0  0  0  0  0  0  0  0  0  0  0
   -0.4703  -51.4961  -26.3153 O   0  0  0  0  0  0  0  0  0  0  0  0
 36 37  1  0  0  0
 37 38  2  0  0  0
 37 39  2  0  0  0
 37 35  1  0  0  0
 35 31  1  0  0  0
 31 32  2  0  0  0
 31 33  1  0  0  0
 33 30  1  0  0  0
 30 29  1  0  0  0
 29 28  1  0  0  0
 28  1  1  0  0  0
  1  2  2  0  0  0
  2  3  1  0  0  0
  3  4  2  0  0  0
  4  5  1  0  0  0
  5  6  2  0  0  0
  6  7  1  0  0  0
  7 17  1  0  0  0
 17 19  1  0  0  0
 19 20  2  0  0  0
 20 21  1  0  0  0
 21 22  1  0  0  0
 21 23  2  0  0  0
 23 24  1  0  0  0
 23 25  1  0  0  0
 25 26  2  0  0  0
 26 27  1  0  0  0
  7  8  2  0  0  0
  8  9  1  0  0  0
  9 10  2  0  0  0
 10 11  1  0  0  0
 11 12  1  0  0  0
 12 13  2  0  0  0
 12 15  1  0  0  0
 15 16  2  0  0  0
 10  1  1  0  0  0
  8  3  1  0  0  0
 26 19  1  0  0  0
 33 34  1  0  0  0
 17 18  1  0  0  0
 11 14  1  0  0  0
M  END
> <minimizedAffinity>
-8.09368

> <CNNscore>
0.7167413831

> <CNNaffinity>
7.7502861023

> <CNN_VS>
5.5549507141

> <CNNaffinity_variance>
0.0349217653

$$$$
[H]C([H])=C([H])C(=O)N([H])c1c(OC([H])([H])C([H])([H])N([H])C(=O)C([H])([H])S(=O)(=O)C([H])([H])[H])c([H])c2nc([H])nc(N([H])c3c([H])c(Cl)c(Cl)c([H])c3F)c2c1[H]


 39 41  0  0  0  0  0  0  0  0999 V2000
    0.4190  -51.3094  -19.1204 C   0  0  0  0  0  0  0  0  0  0  0  0
   -0.3946  -52.3821  -19.2918 C   0  0  0  0  0  0  0  0  0  0  0  0
   -0.4245  -53.0081  -20.5426 C   0  0  0  0  0  0  0  0  0  0  0  0
   -1.2328  -54.0708  -20.7057 N   0  0  0  0  0  0  0  0  0  0  0  0
   -1.2719  -54.6808  -21.8986 C   0  0  0  0  0  0  0  0  0  0  0  0
   -0.5045  -54.2031  -22.8706 N   0  0  0  0  0  0  0  0  0  0  0  0
    0.3207  -53.1727  -22.8194 C   0  0  0  0  0  0  0  0  0  0  0  0
    0.3658  -52.5266  -21.5657 C   0  0  0  0  0  0  0  0  0  0  0  0
    1.1803  -51.4405  -21.3682 C   0  0  0  0  0  0  0  0  0  0  0  0
    1.2282  -50.8063  -20.1463 C   0  0  0  0  0  0  0  0  0  0  0  0
    2.0467  -49.6938  -19.9032 N   0  0  0  0  0  0  0  0  0  0  0  0
    1.9689  -48.3987  -20.3973 C   0  0  0  0  0  0  0  0  0  0  0  0
    1.1109  -47.9942  -21.1805 O   0  0  0  0  0  0  0  0  0  0  0  0
    2.8748  -49.8549  -19.2245 H   0  0  0  0  0  0  0  0  0  0  0  0
    2.9730  -47.3982  -19.9766 C   0  0  0  0  0  0  0  0  0  0  0  0
    3.5196  -46.5550  -20.8030 C   0  0  0  0  0  0  0  0  0  0  0  0
    1.1133  -52.7057  -23.8841 N   0  0  0  0  0  0  0  0  0  0  0  0
    2.0488  -52.2608  -23.6846 H   0  0  0  0  0  0  0  0  0  0  0  0
    0.7714  -52.7742  -25.2516 C   0  0  0  0  0  0  0  0  0  0  0  0
    1.5242  -53.3557  -26.2461 C   0  0  0  0  0  0  0  0  0  0  0  0
    1.0686  -53.3555  -27.5749 C   0  0  0  0  0  0  0  0  0  0  0  0
    2.0554  -54.1062  -28.8153 Cl  0  0  0  0  0  0  0  0  0  0  0  0
   -0.1270  -52.7860  -27.9392 C   0  0  0  0  0  0  0  0  0  0  0  0
   -0.7171  -52.7696  -29.5722 Cl  0  0  0  0  0  0  0  0  0  0  0  0
   -0.8611  -52.2121  -26.9319 C   0  0  0  0  0  0  0  0  0  0  0  0
   -0.4491  -52.1935  -25.6269 C   0  0  0  0  0  0  0  0  0  0  0  0
   -1.2189  -51.6100  -24.6701 F   0  0  0  0  0  0  0  0  0  0  0  0
    0.4779  -50.6599  -17.8946 O   0  0  0  0  0  0  0  0  0  0  0  0
   -0.3095  -51.1189  -16.8108 C   0  0  0  0  0  0  0  0  0  0  0  0
   -0.9245  -49.9290  -16.1569 C   0  0  0  0  0  0  0  0  0  0  0  0
    0.6575  -48.3286  -15.0753 C   0  0  0  0  0  0  0  0  0  0  0  0
    0.6489  -49.0372  -14.0432 O   0  0  0  0  0  0  0  0  0  0  0  0
   -0.1272  -48.7400  -16.1814 N   0  0  0  0  0  0  0  0  0  0  0  0
   -0.1163  -48.1376  -17.0540 H   0  0  0  0  0  0  0  0  0  0  0  0
    1.4743  -47.0986  -15.1138 C   0  0  0  0  0  0  0  0  0  0  0  0
    4.2876  -47.6234  -14.8285 C   0  0  0  0  0  0  0  0  0  0  0  0
    2.9855  -47.3289  -15.9951 S   0  0  0  0  0  0  0  0  0  0  0  0
    2.8415  -48.5521  -16.8476 O   0  0  0  0  0  0  0  0  0  0  0  0
    3.2673  -46.1094  -16.8386 O   0  0  0  0  0  0  0  0  0  0  0  0
 36 37  1  0  0  0
 37 38  2  0  0  0
 37 39  2  0  0  0
 37 35  1  0  0  0
 35 31  1  0  0  0
 31 32  2  0  0  0
 31 33  1  0  0  0
 33 30  1  0  0  0
 30 29  1  0  0  0
 29 28  1  0  0  0
 28  1  1  0  0  0
  1  2  2  0  0  0
  2  3  1  0  0  0
  3  4  2  0  0  0
  4  5  1  0  0  0
  5  6  2  0  0  0
  6  7  1  0  0  0
  7 17  1  0  0  0
 17 19  1  0  0  0
 19 20  2  0  0  0
 20 21  1  0  0  0
 21 22  1  0  0  0
 21 23  2  0  0  0
 23 24  1  0  0  0
 23 25  1  0  0  0
 25 26  2  0  0  0
 26 27  1  0  0  0
  7  8  2  0  0  0
  8  9  1  0  0  0
  9 10  2  0  0  0
 10 11  1  0  0  0
 11 12  1  0  0  0
 12 13  2  0  0  0
 12 15  1  0  0  0
 15 16  2  0  0  0
 10  1  1  0  0  0
  8  3  1  0  0  0
 26 19  1  0  0  0
 33 34  1  0  0  0
 17 18  1  0  0  0
 11 14  1  0  0  0
M  END
> <minimizedAffinity>
-7.11763

> <CNNscore>
0.6779016256

> <CNNaffinity>
7.5987653732

> <CNN_VS>
5.1512155533

> <CNNaffinity_variance>
0.2285144329

$$$$
[H]C([H])=C([H])C(=O)N([H])c1c(OC([H])([H])C([H])([H])N([H])C(=O)C([H])([H])S(=O)(=O)C([H])([H])[H])c([H])c2nc([H])nc(N([H])c3c([H])c(Cl)c(Cl)c([H])c3F)c2c1[H]


 39 41  0  0  0  0  0  0  0  0999 V2000
    1.1138  -51.4783  -24.5020 C   0  0  0  0  0  0  0  0  0  0  0  0
    0.1894  -52.4211  -24.8165 C   0  0  0  0  0  0  0  0  0  0  0  0
   -0.2173  -53.3190  -23.8237 C   0  0  0  0  0  0  0  0  0  0  0  0
   -1.1338  -54.2507  -24.1418 N   0  0  0  0  0  0  0  0  0  0  0  0
   -1.5331  -55.1177  -23.2009 C   0  0  0  0  0  0  0  0  0  0  0  0
   -1.0007  -55.0147  -21.9894 N   0  0  0  0  0  0  0  0  0  0  0  0
   -0.0997  -54.1436  -21.5714 C   0  0  0  0  0  0  0  0  0  0  0  0
    0.3244  -53.2283  -22.5581 C   0  0  0  0  0  0  0  0  0  0  0  0
    1.2575  -52.2665  -22.2642 C   0  0  0  0  0  0  0  0  0  0  0  0
    1.6747  -51.3705  -23.2238 C   0  0  0  0  0  0  0  0  0  0  0  0
    2.6258  -50.3730  -22.9645 N   0  0  0  0  0  0  0  0  0  0  0  0
    2.4980  -49.1663  -22.2900 C   0  0  0  0  0  0  0  0  0  0  0  0
    1.4590  -48.7523  -21.7779 O   0  0  0  0  0  0  0  0  0  0  0  0
    3.6225  -50.5594  -23.3442 H   0  0  0  0  0  0  0  0  0  0  0  0
    3.6745  -48.2811  -22.1536 C   0  0  0  0  0  0  0  0  0  0  0  0
    3.8909  -47.5509  -21.0988 C   0  0  0  0  0  0  0  0  0  0  0  0
    0.4342  -54.0790  -20.2712 N   0  0  0  0  0  0  0  0  0  0  0  0
    0.8258  -54.9495  -19.8221 H   0  0  0  0  0  0  0  0  0  0  0  0
    0.5035  -52.9189  -19.4705 C   0  0  0  0  0  0  0  0  0  0  0  0
    1.5666  -52.0481  -19.3975 C   0  0  0  0  0  0  0  0  0  0  0  0
    1.5090  -50.9249  -18.5558 C   0  0  0  0  0  0  0  0  0  0  0  0
    2.8833  -49.8374  -18.4891 Cl  0  0  0  0  0  0  0  0  0  0  0  0
    0.4104  -50.6466  -17.7799 C   0  0  0  0  0  0  0  0  0  0  0  0
    0.3091  -49.2672  -16.7301 Cl  0  0  0  0  0  0  0  0  0  0  0  0
   -0.6377  -51.5279  -17.8684 C   0  0  0  0  0  0  0  0  0  0  0  0
   -0.6170  -52.6319  -18.6769 C   0  0  0  0  0  0  0  0  0  0  0  0
   -1.6858  -53.4709  -18.7242 F   0  0  0  0  0  0  0  0  0  0  0  0
    1.5441  -50.5684  -25.4585 O   0  0  0  0  0  0  0  0  0  0  0  0
    2.6101  -50.9049  -26.3277 C   0  0  0  0  0  0  0  0  0  0  0  0
    3.6413  -49.8338  -26.2218 C   0  0  0  0  0  0  0  0  0  0  0  0
    3.8242  -47.9654  -27.8679 C   0  0  0  0  0  0  0  0  0  0  0  0
    3.1655  -47.2351  -27.0932 O   0  0  0  0  0  0  0  0  0  0  0  0
    4.0945  -49.2985  -27.4700 N   0  0  0  0  0  0  0  0  0  0  0  0
    4.6536  -49.9134  -28.1286 H   0  0  0  0  0  0  0  0  0  0  0  0
    4.2967  -47.4266  -29.1594 C   0  0  0  0  0  0  0  0  0  0  0  0
    6.1382  -47.6478  -31.3575 C   0  0  0  0  0  0  0  0  0  0  0  0
    5.5323  -48.4483  -29.8963 S   0  0  0  0  0  0  0  0  0  0  0  0
    6.6693  -48.5692  -28.9286 O   0  0  0  0  0  0  0  0  0  0  0  0
    4.9433  -49.8012  -30.2136 O   0  0  0  0  0  0  0  0  0  0  0  0
 36 37  1  0  0  0
 37 38  2  0  0  0
 37 39  2  0  0  0
 37 35  1  0  0  0
 35 31  1  0  0  0
 31 32  2  0  0  0
 31 33  1  0  0  0
 33 30  1  0  0  0
 30 29  1  0  0  0
 29 28  1  0  0  0
 28  1  1  0  0  0
  1  2  2  0  0  0
  2  3  1  0  0  0
  3  4  2  0  0  0
  4  5  1  0  0  0
  5  6  2  0  0  0
  6  7  1  0  0  0
  7 17  1  0  0  0
 17 19  1  0  0  0
 19 20  2  0  0  0
 20 21  1  0  0  0
 21 22  1  0  0  0
 21 23  2  0  0  0
 23 24  1  0  0  0
 23 25  1  0  0  0
 25 26  2  0  0  0
 26 27  1  0  0  0
  7  8  2  0  0  0
  8  9  1  0  0  0
  9 10  2  0  0  0
 10 11  1  0  0  0
 11 12  1  0  0  0
 12 13  2  0  0  0
 12 15  1  0  0  0
 15 16  2  0  0  0
 10  1  1  0  0  0
  8  3  1  0  0  0
 26 19  1  0  0  0
 33 34  1  0  0  0
 17 18  1  0  0  0
 11 14  1  0  0  0
M  END
> <minimizedAffinity>
-7.29314

> <CNNscore>
0.6438916922

> <CNNaffinity>
7.3584823608

> <CNN_VS>
4.7380657196

> <CNNaffinity_variance>
0.1519360989

$$$$
[H]C([H])=C([H])C(=O)N([H])c1c(OC([H])([H])C([H])([H])N([H])C(=O)C([H])([H])S(=O)(=O)C([H])([H])[H])c([H])c2nc([H])nc(N([H])c3c([H])c(Cl)c(Cl)c([H])c3F)c2c1[H]


 39 41  0  0  0  0  0  0  0  0999 V2000
   -0.3906  -52.8019  -19.4730 C   0  0  0  0  0  0  0  0  0  0  0  0
   -0.9336  -53.8544  -20.1361 C   0  0  0  0  0  0  0  0  0  0  0  0
   -0.8533  -53.8808  -21.5326 C   0  0  0  0  0  0  0  0  0  0  0  0
   -1.3932  -54.9266  -22.1837 N   0  0  0  0  0  0  0  0  0  0  0  0
   -1.3239  -54.9657  -23.5217 C   0  0  0  0  0  0  0  0  0  0  0  0
   -0.7205  -53.9617  -24.1460 N   0  0  0  0  0  0  0  0  0  0  0  0
   -0.1599  -52.8929  -23.6086 C   0  0  0  0  0  0  0  0  0  0  0  0
   -0.2301  -52.8466  -22.2000 C   0  0  0  0  0  0  0  0  0  0  0  0
    0.3115  -51.7934  -21.5076 C   0  0  0  0  0  0  0  0  0  0  0  0
    0.2458  -51.7435  -20.1325 C   0  0  0  0  0  0  0  0  0  0  0  0
    0.7863  -50.6855  -19.3874 N   0  0  0  0  0  0  0  0  0  0  0  0
    1.9921  -50.5937  -18.7054 C   0  0  0  0  0  0  0  0  0  0  0  0
    2.8352  -51.4872  -18.6421 O   0  0  0  0  0  0  0  0  0  0  0  0
    0.1785  -49.7916  -19.3251 H   0  0  0  0  0  0  0  0  0  0  0  0
    2.3284  -49.3457  -17.9872 C   0  0  0  0  0  0  0  0  0  0  0  0
    2.5599  -48.2200  -18.5970 C   0  0  0  0  0  0  0  0  0  0  0  0
    0.4677  -51.8533  -24.3195 N   0  0  0  0  0  0  0  0  0  0  0  0
   -0.1013  -51.2414  -24.9633 H   0  0  0  0  0  0  0  0  0  0  0  0
    1.8401  -51.5303  -24.2574 C   0  0  0  0  0  0  0  0  0  0  0  0
    2.3725  -50.3416  -23.8134 C   0  0  0  0  0  0  0  0  0  0  0  0
    3.7635  -50.1453  -23.8033 C   0  0  0  0  0  0  0  0  0  0  0  0
    4.4053  -48.6170  -23.2304 Cl  0  0  0  0  0  0  0  0  0  0  0  0
    4.6425  -51.1114  -24.2279 C   0  0  0  0  0  0  0  0  0  0  0  0
    6.3659  -50.8990  -24.2277 Cl  0  0  0  0  0  0  0  0  0  0  0  0
    4.0900  -52.2884  -24.6663 C   0  0  0  0  0  0  0  0  0  0  0  0
    2.7405  -52.5149  -24.6903 C   0  0  0  0  0  0  0  0  0  0  0  0
    2.2493  -53.7020  -25.1355 F   0  0  0  0  0  0  0  0  0  0  0  0
   -0.4490  -52.7378  -18.0872 O   0  0  0  0  0  0  0  0  0  0  0  0
   -1.7032  -52.6716  -17.4331 C   0  0  0  0  0  0  0  0  0  0  0  0
   -1.5076  -51.9529  -16.1420 C   0  0  0  0  0  0  0  0  0  0  0  0
   -0.1424  -51.9043  -14.0521 C   0  0  0  0  0  0  0  0  0  0  0  0
   -0.8886  -51.0062  -13.6005 O   0  0  0  0  0  0  0  0  0  0  0  0
   -0.4157  -52.4214  -15.3430 N   0  0  0  0  0  0  0  0  0  0  0  0
    0.2180  -53.1827  -15.7213 H   0  0  0  0  0  0  0  0  0  0  0  0
    0.9886  -52.3960  -13.2391 C   0  0  0  0  0  0  0  0  0  0  0  0
    3.8571  -52.5513  -13.1028 C   0  0  0  0  0  0  0  0  0  0  0  0
    2.4885  -51.5375  -13.5948 S   0  0  0  0  0  0  0  0  0  0  0  0
    2.5674  -51.3399  -15.0775 O   0  0  0  0  0  0  0  0  0  0  0  0
    2.4951  -50.2138  -12.8697 O   0  0  0  0  0  0  0  0  0  0  0  0
 36 37  1  0  0  0
 37 38  2  0  0  0
 37 39  2  0  0  0
 37 35  1  0  0  0
 35 31  1  0  0  0
 31 32  2  0  0  0
 31 33  1  0  0  0
 33 30  1  0  0  0
 30 29  1  0  0  0
 29 28  1  0  0  0
 28  1  1  0  0  0
  1  2  2  0  0  0
  2  3  1  0  0  0
  3  4  2  0  0  0
  4  5  1  0  0  0
  5  6  2  0  0  0
  6  7  1  0  0  0
  7 17  1  0  0  0
 17 19  1  0  0  0
 19 20  2  0  0  0
 20 21  1  0  0  0
 21 22  1  0  0  0
 21 23  2  0  0  0
 23 24  1  0  0  0
 23 25  1  0  0  0
 25 26  2  0  0  0
 26 27  1  0  0  0
  7  8  2  0  0  0
  8  9  1  0  0  0
  9 10  2  0  0  0
 10 11  1  0  0  0
 11 12  1  0  0  0
 12 13  2  0  0  0
 12 15  1  0  0  0
 15 16  2  0  0  0
 10  1  1  0  0  0
  8  3  1  0  0  0
 26 19  1  0  0  0
 33 34  1  0  0  0
 17 18  1  0  0  0
 11 14  1  0  0  0
M  END
> <minimizedAffinity>
-7.58366

> <CNNscore>
0.5842943788

> <CNNaffinity>
7.3604249954

> <CNN_VS>
4.3006548882

> <CNNaffinity_variance>
0.0380380526

$$$$
[H]C#Cc1c([H])c([H])c([H])c(N([H])c2nc([H])nc3c2/C(=C(\[H])c2c(C([H])([H])[H])c([H])c(C(=O)N([H])C([H])([H])C([H])([H])N4C([H])([H])C([H])([H])OC([H])([H])C4([H])[H])n2[H])C(=O)N3[H])c1[H]


 41 45  0  0  0  0  0  0  0  0999 V2000
    0.7525  -51.1167  -21.4789 C   0  0  0  0  0  0  0  0  0  0  0  0
    0.2446  -52.2946  -21.3159 C   0  0  0  0  0  0  0  0  0  0  0  0
    0.0355  -52.9627  -20.0368 C   0  0  0  0  0  0  0  0  0  0  0  0
    0.3506  -52.5391  -18.9068 O   0  0  0  0  0  0  0  0  0  0  0  0
   -0.5959  -54.1991  -20.3164 N   0  0  0  0  0  0  0  0  0  0  0  0
   -0.7813  -54.3163  -21.7413 C   0  0  0  0  0  0  0  0  0  0  0  0
   -1.3358  -55.2968  -22.4817 N   0  0  0  0  0  0  0  0  0  0  0  0
   -1.4197  -55.2161  -23.8078 C   0  0  0  0  0  0  0  0  0  0  0  0
   -0.9284  -54.1176  -24.3846 N   0  0  0  0  0  0  0  0  0  0  0  0
   -0.3552  -53.0831  -23.7451 C   0  0  0  0  0  0  0  0  0  0  0  0
   -0.2871  -53.1951  -22.3743 C   0  0  0  0  0  0  0  0  0  0  0  0
   -0.8803  -54.9086  -19.6063 H   0  0  0  0  0  0  0  0  0  0  0  0
    2.0447  -48.4580  -22.0784 C   0  0  0  0  0  0  0  0  0  0  0  0
    1.7625  -49.0089  -20.7016 C   0  0  0  0  0  0  0  0  0  0  0  0
    2.0177  -48.3680  -19.5112 C   0  0  0  0  0  0  0  0  0  0  0  0
    1.6231  -49.2038  -18.4964 C   0  0  0  0  0  0  0  0  0  0  0  0
    1.1417  -50.3225  -19.0740 N   0  0  0  0  0  0  0  0  0  0  0  0
    1.2135  -50.2310  -20.3861 C   0  0  0  0  0  0  0  0  0  0  0  0
    0.7599  -51.1216  -18.5037 H   0  0  0  0  0  0  0  0  0  0  0  0
    1.7102  -48.8673  -17.0880 C   0  0  0  0  0  0  0  0  0  0  0  0
    2.7689  -48.9434  -16.4090 O   0  0  0  0  0  0  0  0  0  0  0  0
    0.5449  -48.4267  -16.4079 N   0  0  0  0  0  0  0  0  0  0  0  0
   -0.3481  -48.3601  -16.9462 H   0  0  0  0  0  0  0  0  0  0  0  0
    0.5147  -48.0618  -15.0046 C   0  0  0  0  0  0  0  0  0  0  0  0
   -0.2630  -49.1057  -14.2613 C   0  0  0  0  0  0  0  0  0  0  0  0
   -1.4968  -48.6978  -13.7076 N   0  0  0  0  0  0  0  0  0  0  0  0
   -2.2673  -47.7456  -14.4126 C   0  0  0  0  0  0  0  0  0  0  0  0
   -3.5288  -48.2957  -15.0432 C   0  0  0  0  0  0  0  0  0  0  0  0
   -4.1408  -49.1385  -14.1296 O   0  0  0  0  0  0  0  0  0  0  0  0
   -3.3130  -50.2417  -13.9173 C   0  0  0  0  0  0  0  0  0  0  0  0
   -2.1781  -49.7374  -13.0386 C   0  0  0  0  0  0  0  0  0  0  0  0
    0.2141  -52.0799  -24.5188 N   0  0  0  0  0  0  0  0  0  0  0  0
   -0.3416  -51.3937  -25.0403 H   0  0  0  0  0  0  0  0  0  0  0  0
    1.6148  -51.8669  -24.6213 C   0  0  0  0  0  0  0  0  0  0  0  0
    2.5724  -52.7966  -24.3514 C   0  0  0  0  0  0  0  0  0  0  0  0
    3.9298  -52.5309  -24.4419 C   0  0  0  0  0  0  0  0  0  0  0  0
    4.3381  -51.2917  -24.8166 C   0  0  0  0  0  0  0  0  0  0  0  0
    3.4246  -50.3066  -25.1044 C   0  0  0  0  0  0  0  0  0  0  0  0
    2.0883  -50.5946  -25.0067 C   0  0  0  0  0  0  0  0  0  0  0  0
    3.8921  -49.0163  -25.4988 C   0  0  0  0  0  0  0  0  0  0  0  0
    4.2826  -47.9201  -25.8068 C   0  0  0  0  0  0  0  0  0  0  0  0
 13 14  1  0  0  0
 14 15  1  0  0  0
 15 16  2  0  0  0
 16 17  1  0  0  0
 17 18  1  0  0  0
 18  1  1  0  0  0
  1  2  2  0  0  0
  2  3  1  0  0  0
  3  4  2  0  0  0
  3  5  1  0  0  0
  5  6  1  0  0  0
  6  7  2  0  0  0
  7  8  1  0  0  0
  8  9  2  0  0  0
  9 10  1  0  0  0
 10 32  1  0  0  0
 32 34  1  0  0  0
 34 35  2  0  0  0
 35 36  1  0  0  0
 36 37  2  0  0  0
 37 38  1  0  0  0
 38 39  2  0  0  0
 38 40  1  0  0  0
 40 41  3  0  0  0
 10 11  2  0  0  0
 16 20  1  0  0  0
 20 21  2  0  0  0
 20 22  1  0  0  0
 22 24  1  0  0  0
 24 25  1  0  0  0
 25 26  1  0  0  0
 26 27  1  0  0  0
 27 28  1  0  0  0
 28 29  1  0  0  0
 29 30  1  0  0  0
 30 31  1  0  0  0
 18 14  2  0  0  0
 11  2  1  0  0  0
 31 26  1  0  0  0
 11  6  1  0  0  0
 39 34  1  0  0  0
 17 19  1  0  0  0
  5 12  1  0  0  0
 32 33  1  0  0  0
 22 23  1  0  0  0
M  END
> <minimizedAffinity>
-7.92742

> <CNNscore>
0.7349845767

> <CNNaffinity>
7.1945314407

> <CNN_VS>
5.2878694534

> <CNNaffinity_variance>
0.1846049428

$$$$
[H]C#Cc1c([H])c([H])c([H])c(N([H])c2nc([H])nc3c2/C(=C(\[H])c2c(C([H])([H])[H])c([H])c(C(=O)N([H])C([H])([H])C([H])([H])N4C([H])([H])C([H])([H])OC([H])([H])C4([H])[H])n2[H])C(=O)N3[H])c1[H]


 41 45  0  0  0  0  0  0  0  0999 V2000
    0.6789  -52.0673  -22.4488 C   0  0  0  0  0  0  0  0  0  0  0  0
    0.1959  -52.9281  -23.2841 C   0  0  0  0  0  0  0  0  0  0  0  0
   -0.5593  -54.1249  -22.9327 C   0  0  0  0  0  0  0  0  0  0  0  0
   -0.8204  -54.5396  -21.7859 O   0  0  0  0  0  0  0  0  0  0  0  0
   -0.9440  -54.7407  -24.1487 N   0  0  0  0  0  0  0  0  0  0  0  0
   -0.4421  -53.9552  -25.2484 C   0  0  0  0  0  0  0  0  0  0  0  0
   -0.5539  -54.1286  -26.5805 N   0  0  0  0  0  0  0  0  0  0  0  0
   -0.0151  -53.2759  -27.4493 C   0  0  0  0  0  0  0  0  0  0  0  0
    0.6483  -52.2320  -26.9484 N   0  0  0  0  0  0  0  0  0  0  0  0
    0.8215  -51.9638  -25.6423 C   0  0  0  0  0  0  0  0  0  0  0  0
    0.2492  -52.8621  -24.7696 C   0  0  0  0  0  0  0  0  0  0  0  0
   -1.5001  -55.6193  -24.2335 H   0  0  0  0  0  0  0  0  0  0  0  0
    3.0660  -51.6428  -20.6545 C   0  0  0  0  0  0  0  0  0  0  0  0
    1.6534  -51.9066  -20.1923 C   0  0  0  0  0  0  0  0  0  0  0  0
    1.2318  -51.9576  -18.8836 C   0  0  0  0  0  0  0  0  0  0  0  0
   -0.1146  -52.2247  -18.8911 C   0  0  0  0  0  0  0  0  0  0  0  0
   -0.4867  -52.3308  -20.1822 N   0  0  0  0  0  0  0  0  0  0  0  0
    0.5477  -52.1451  -20.9765 C   0  0  0  0  0  0  0  0  0  0  0  0
   -1.4850  -52.5223  -20.4584 H   0  0  0  0  0  0  0  0  0  0  0  0
   -0.9274  -52.3299  -17.6941 C   0  0  0  0  0  0  0  0  0  0  0  0
   -1.8868  -53.1360  -17.5619 O   0  0  0  0  0  0  0  0  0  0  0  0
   -0.6488  -51.4813  -16.5910 N   0  0  0  0  0  0  0  0  0  0  0  0
    0.1380  -50.7992  -16.6764 H   0  0  0  0  0  0  0  0  0  0  0  0
   -1.3921  -51.5003  -15.3458 C   0  0  0  0  0  0  0  0  0  0  0  0
   -2.3600  -50.3557  -15.3555 C   0  0  0  0  0  0  0  0  0  0  0  0
   -3.7320  -50.6897  -15.3193 N   0  0  0  0  0  0  0  0  0  0  0  0
   -4.0897  -52.0332  -15.0655 C   0  0  0  0  0  0  0  0  0  0  0  0
   -4.7112  -52.2756  -13.7067 C   0  0  0  0  0  0  0  0  0  0  0  0
   -5.6203  -51.2605  -13.4562 O   0  0  0  0  0  0  0  0  0  0  0  0
   -4.9237  -50.0566  -13.3432 C   0  0  0  0  0  0  0  0  0  0  0  0
   -4.5385  -49.6730  -14.7640 C   0  0  0  0  0  0  0  0  0  0  0  0
    1.6488  -50.9003  -25.3048 N   0  0  0  0  0  0  0  0  0  0  0  0
    1.3506  -49.9208  -25.3624 H   0  0  0  0  0  0  0  0  0  0  0  0
    2.9646  -51.0607  -24.7942 C   0  0  0  0  0  0  0  0  0  0  0  0
    3.7389  -52.1695  -24.9529 C   0  0  0  0  0  0  0  0  0  0  0  0
    5.0096  -52.2869  -24.4118 C   0  0  0  0  0  0  0  0  0  0  0  0
    5.5191  -51.2569  -23.6890 C   0  0  0  0  0  0  0  0  0  0  0  0
    4.7916  -50.1084  -23.4910 C   0  0  0  0  0  0  0  0  0  0  0  0
    3.5374  -50.0174  -24.0359 C   0  0  0  0  0  0  0  0  0  0  0  0
    5.3624  -49.0447  -22.7283 C   0  0  0  0  0  0  0  0  0  0  0  0
    5.8362  -48.1311  -22.1038 C   0  0  0  0  0  0  0  0  0  0  0  0
 13 14  1  0  0  0
 14 15  1  0  0  0
 15 16  2  0  0  0
 16 17  1  0  0  0
 17 18  1  0  0  0
 18  1  1  0  0  0
  1  2  2  0  0  0
  2  3  1  0  0  0
  3  4  2  0  0  0
  3  5  1  0  0  0
  5  6  1  0  0  0
  6  7  2  0  0  0
  7  8  1  0  0  0
  8  9  2  0  0  0
  9 10  1  0  0  0
 10 32  1  0  0  0
 32 34  1  0  0  0
 34 35  2  0  0  0
 35 36  1  0  0  0
 36 37  2  0  0  0
 37 38  1  0  0  0
 38 39  2  0  0  0
 38 40  1  0  0  0
 40 41  3  0  0  0
 10 11  2  0  0  0
 16 20  1  0  0  0
 20 21  2  0  0  0
 20 22  1  0  0  0
 22 24  1  0  0  0
 24 25  1  0  0  0
 25 26  1  0  0  0
 26 27  1  0  0  0
 27 28  1  0  0  0
 28 29  1  0  0  0
 29 30  1  0  0  0
 30 31  1  0  0  0
 18 14  2  0  0  0
 11  2  1  0  0  0
 31 26  1  0  0  0
 11  6  1  0  0  0
 39 34  1  0  0  0
 17 19  1  0  0  0
  5 12  1  0  0  0
 32 33  1  0  0  0
 22 23  1  0  0  0
M  END
> <minimizedAffinity>
-8.30037

> <CNNscore>
0.6125525236

> <CNNaffinity>
7.3497571945

> <CNN_VS>
4.5021123886

> <CNNaffinity_variance>
0.1536606550

$$$$
[H]C#Cc1c([H])c([H])c([H])c(N([H])c2nc([H])nc3c2/C(=C(\[H])c2c(C([H])([H])[H])c([H])c(C(=O)N([H])C([H])([H])C([H])([H])N4C([H])([H])C([H])([H])OC([H])([H])C4([H])[H])n2[H])C(=O)N3[H])c1[H]


 41 45  0  0  0  0  0  0  0  0999 V2000
    1.2934  -50.9951  -21.9635 C   0  0  0  0  0  0  0  0  0  0  0  0
    0.8331  -52.1320  -21.5543 C   0  0  0  0  0  0  0  0  0  0  0  0
    0.9960  -52.6847  -20.2149 C   0  0  0  0  0  0  0  0  0  0  0  0
    1.6371  -52.1860  -19.2684 O   0  0  0  0  0  0  0  0  0  0  0  0
    0.2865  -53.9101  -20.1861 N   0  0  0  0  0  0  0  0  0  0  0  0
   -0.3113  -54.1333  -21.4788 C   0  0  0  0  0  0  0  0  0  0  0  0
   -1.0776  -55.1445  -21.9343 N   0  0  0  0  0  0  0  0  0  0  0  0
   -1.5456  -55.1672  -23.1803 C   0  0  0  0  0  0  0  0  0  0  0  0
   -1.2242  -54.1419  -23.9717 N   0  0  0  0  0  0  0  0  0  0  0  0
   -0.4687  -53.0860  -23.6226 C   0  0  0  0  0  0  0  0  0  0  0  0
   -0.0032  -53.0901  -22.3266 C   0  0  0  0  0  0  0  0  0  0  0  0
    0.2095  -54.5466  -19.3629 H   0  0  0  0  0  0  0  0  0  0  0  0
    4.1430  -50.3008  -22.6674 C   0  0  0  0  0  0  0  0  0  0  0  0
    3.3562  -49.7260  -21.5145 C   0  0  0  0  0  0  0  0  0  0  0  0
    3.8052  -48.7717  -20.6311 C   0  0  0  0  0  0  0  0  0  0  0  0
    2.7946  -48.5268  -19.7350 C   0  0  0  0  0  0  0  0  0  0  0  0
    1.7626  -49.3223  -20.0801 N   0  0  0  0  0  0  0  0  0  0  0  0
    2.0719  -50.0457  -21.1366 C   0  0  0  0  0  0  0  0  0  0  0  0
    0.8528  -49.3129  -19.5494 H   0  0  0  0  0  0  0  0  0  0  0  0
    2.8809  -47.5567  -18.6599 C   0  0  0  0  0  0  0  0  0  0  0  0
    3.2881  -46.3736  -18.8088 O   0  0  0  0  0  0  0  0  0  0  0  0
    2.4932  -47.9392  -17.3492 N   0  0  0  0  0  0  0  0  0  0  0  0
    2.1572  -48.9167  -17.1968 H   0  0  0  0  0  0  0  0  0  0  0  0
    2.5351  -47.0542  -16.2009 C   0  0  0  0  0  0  0  0  0  0  0  0
    2.6547  -47.8913  -14.9631 C   0  0  0  0  0  0  0  0  0  0  0  0
    1.4459  -48.3377  -14.3845 N   0  0  0  0  0  0  0  0  0  0  0  0
    0.2549  -47.6447  -14.6986 C   0  0  0  0  0  0  0  0  0  0  0  0
   -0.7032  -48.4065  -15.5892 C   0  0  0  0  0  0  0  0  0  0  0  0
   -0.7646  -49.7167  -15.1430 O   0  0  0  0  0  0  0  0  0  0  0  0
    0.4831  -50.3115  -15.3349 C   0  0  0  0  0  0  0  0  0  0  0  0
    1.3792  -49.7409  -14.2461 C   0  0  0  0  0  0  0  0  0  0  0  0
   -0.1324  -52.1750  -24.6156 N   0  0  0  0  0  0  0  0  0  0  0  0
   -0.8034  -51.5088  -25.0126 H   0  0  0  0  0  0  0  0  0  0  0  0
    1.1803  -52.0341  -25.1398 C   0  0  0  0  0  0  0  0  0  0  0  0
    2.0970  -53.0357  -25.2417 C   0  0  0  0  0  0  0  0  0  0  0  0
    3.3766  -52.8409  -25.7377 C   0  0  0  0  0  0  0  0  0  0  0  0
    3.7466  -51.6000  -26.1455 C   0  0  0  0  0  0  0  0  0  0  0  0
    2.8705  -50.5443  -26.0711 C   0  0  0  0  0  0  0  0  0  0  0  0
    1.6113  -50.7631  -25.5762 C   0  0  0  0  0  0  0  0  0  0  0  0
    3.2944  -49.2543  -26.5131 C   0  0  0  0  0  0  0  0  0  0  0  0
    3.6277  -48.1624  -26.8946 C   0  0  0  0  0  0  0  0  0  0  0  0
 13 14  1  0  0  0
 14 15  1  0  0  0
 15 16  2  0  0  0
 16 17  1  0  0  0
 17 18  1  0  0  0
 18  1  1  0  0  0
  1  2  2  0  0  0
  2  3  1  0  0  0
  3  4  2  0  0  0
  3  5  1  0  0  0
  5  6  1  0  0  0
  6  7  2  0  0  0
  7  8  1  0  0  0
  8  9  2  0  0  0
  9 10  1  0  0  0
 10 32  1  0  0  0
 32 34  1  0  0  0
 34 35  2  0  0  0
 35 36  1  0  0  0
 36 37  2  0  0  0
 37 38  1  0  0  0
 38 39  2  0  0  0
 38 40  1  0  0  0
 40 41  3  0  0  0
 10 11  2  0  0  0
 16 20  1  0  0  0
 20 21  2  0  0  0
 20 22  1  0  0  0
 22 24  1  0  0  0
 24 25  1  0  0  0
 25 26  1  0  0  0
 26 27  1  0  0  0
 27 28  1  0  0  0
 28 29  1  0  0  0
 29 30  1  0  0  0
 30 31  1  0  0  0
 18 14  2  0  0  0
 11  2  1  0  0  0
 31 26  1  0  0  0
 11  6  1  0  0  0
 39 34  1  0  0  0
 17 19  1  0  0  0
  5 12  1  0  0  0
 32 33  1  0  0  0
 22 23  1  0  0  0
M  END
> <minimizedAffinity>
-7.02858

> <CNNscore>
0.5624101162

> <CNNaffinity>
6.8626184464

> <CNN_VS>
3.8596060276

> <CNNaffinity_variance>
0.2109456062

$$$$
[H]C#Cc1c([H])c([H])c([H])c(N([H])c2nc([H])nc3c2/C(=C(\[H])c2c(C([H])([H])[H])c([H])c(C(=O)N([H])C([H])([H])C([H])([H])N4C([H])([H])C([H])([H])OC([H])([H])C4([H])[H])n2[H])C(=O)N3[H])c1[H]


 41 45  0  0  0  0  0  0  0  0999 V2000
    1.6727  -50.6983  -21.4983 C   0  0  0  0  0  0  0  0  0  0  0  0
    1.1686  -51.8210  -21.1017 C   0  0  0  0  0  0  0  0  0  0  0  0
    1.2621  -52.3677  -19.7532 C   0  0  0  0  0  0  0  0  0  0  0  0
    1.8748  -51.8774  -18.7838 O   0  0  0  0  0  0  0  0  0  0  0  0
    0.5229  -53.5757  -19.7465 N   0  0  0  0  0  0  0  0  0  0  0  0
   -0.0254  -53.7941  -21.0618 C   0  0  0  0  0  0  0  0  0  0  0  0
   -0.7960  -54.7901  -21.5427 N   0  0  0  0  0  0  0  0  0  0  0  0
   -1.2119  -54.8109  -22.8072 C   0  0  0  0  0  0  0  0  0  0  0  0
   -0.8332  -53.7992  -23.5908 N   0  0  0  0  0  0  0  0  0  0  0  0
   -0.0679  -52.7590  -23.2169 C   0  0  0  0  0  0  0  0  0  0  0  0
    0.3427  -52.7647  -21.9025 C   0  0  0  0  0  0  0  0  0  0  0  0
    0.3963  -54.2042  -18.9234 H   0  0  0  0  0  0  0  0  0  0  0  0
    4.6639  -50.4335  -21.7830 C   0  0  0  0  0  0  0  0  0  0  0  0
    3.7966  -49.6424  -20.8339 C   0  0  0  0  0  0  0  0  0  0  0  0
    4.2319  -48.6551  -19.9803 C   0  0  0  0  0  0  0  0  0  0  0  0
    3.1397  -48.1916  -19.2900 C   0  0  0  0  0  0  0  0  0  0  0  0
    2.0736  -48.8918  -19.7258 N   0  0  0  0  0  0  0  0  0  0  0  0
    2.4384  -49.7616  -20.6454 C   0  0  0  0  0  0  0  0  0  0  0  0
    1.1036  -48.7139  -19.3559 H   0  0  0  0  0  0  0  0  0  0  0  0
    3.1929  -47.1237  -18.3095 C   0  0  0  0  0  0  0  0  0  0  0  0
    3.3025  -45.9030  -18.6018 O   0  0  0  0  0  0  0  0  0  0  0  0
    3.1237  -47.4468  -16.9292 N   0  0  0  0  0  0  0  0  0  0  0  0
    3.0384  -48.4525  -16.6589 H   0  0  0  0  0  0  0  0  0  0  0  0
    3.1650  -46.4638  -15.8636 C   0  0  0  0  0  0  0  0  0  0  0  0
    1.8783  -46.5417  -15.0985 C   0  0  0  0  0  0  0  0  0  0  0  0
    1.3212  -47.8289  -14.9310 N   0  0  0  0  0  0  0  0  0  0  0  0
    1.7690  -48.6188  -13.8479 C   0  0  0  0  0  0  0  0  0  0  0  0
    0.7567  -48.7996  -12.7370 C   0  0  0  0  0  0  0  0  0  0  0  0
   -0.4790  -49.0521  -13.3104 O   0  0  0  0  0  0  0  0  0  0  0  0
   -0.8858  -47.9154  -14.0102 C   0  0  0  0  0  0  0  0  0  0  0  0
   -0.0455  -47.8941  -15.2782 C   0  0  0  0  0  0  0  0  0  0  0  0
    0.3313  -51.8633  -24.2006 N   0  0  0  0  0  0  0  0  0  0  0  0
    0.1977  -50.8498  -24.1204 H   0  0  0  0  0  0  0  0  0  0  0  0
    1.0125  -52.2509  -25.3853 C   0  0  0  0  0  0  0  0  0  0  0  0
    2.3468  -52.5065  -25.4761 C   0  0  0  0  0  0  0  0  0  0  0  0
    2.9695  -52.8571  -26.6639 C   0  0  0  0  0  0  0  0  0  0  0  0
    2.2275  -52.9551  -27.7965 C   0  0  0  0  0  0  0  0  0  0  0  0
    0.8755  -52.7114  -27.7754 C   0  0  0  0  0  0  0  0  0  0  0  0
    0.2839  -52.3658  -26.5884 C   0  0  0  0  0  0  0  0  0  0  0  0
    0.1274  -52.8280  -28.9861 C   0  0  0  0  0  0  0  0  0  0  0  0
   -0.5182  -52.9063  -29.9991 C   0  0  0  0  0  0  0  0  0  0  0  0
 13 14  1  0  0  0
 14 15  1  0  0  0
 15 16  2  0  0  0
 16 17  1  0  0  0
 17 18  1  0  0  0
 18  1  1  0  0  0
  1  2  2  0  0  0
  2  3  1  0  0  0
  3  4  2  0  0  0
  3  5  1  0  0  0
  5  6  1  0  0  0
  6  7  2  0  0  0
  7  8  1  0  0  0
  8  9  2  0  0  0
  9 10  1  0  0  0
 10 32  1  0  0  0
 32 34  1  0  0  0
 34 35  2  0  0  0
 35 36  1  0  0  0
 36 37  2  0  0  0
 37 38  1  0  0  0
 38 39  2  0  0  0
 38 40  1  0  0  0
 40 41  3  0  0  0
 10 11  2  0  0  0
 16 20  1  0  0  0
 20 21  2  0  0  0
 20 22  1  0  0  0
 22 24  1  0  0  0
 24 25  1  0  0  0
 25 26  1  0  0  0
 26 27  1  0  0  0
 27 28  1  0  0  0
 28 29  1  0  0  0
 29 30  1  0  0  0
 30 31  1  0  0  0
 18 14  2  0  0  0
 11  2  1  0  0  0
 31 26  1  0  0  0
 11  6  1  0  0  0
 39 34  1  0  0  0
 17 19  1  0  0  0
  5 12  1  0  0  0
 32 33  1  0  0  0
 22 23  1  0  0  0
M  END
> <minimizedAffinity>
-7.37453

> <CNNscore>
0.5462286472

> <CNNaffinity>
7.0675926208

> <CNN_VS>
3.8605215549

> <CNNaffinity_variance>
0.4196412563

$$$$
[H]C#Cc1c([H])c([H])c([H])c(N([H])c2nc([H])nc3c2/C(=C(\[H])c2c(C([H])([H])[H])c([H])c(C(=O)N([H])C([H])([H])C([H])([H])N4C([H])([H])C([H])([H])OC([H])([H])C4([H])[H])n2[H])C(=O)N3[H])c1[H]


 41 45  0  0  0  0  0  0  0  0999 V2000
    1.6773  -50.6284  -21.4981 C   0  0  0  0  0  0  0  0  0  0  0  0
    1.1816  -51.7464  -21.0781 C   0  0  0  0  0  0  0  0  0  0  0  0
    1.2921  -52.2714  -19.7223 C   0  0  0  0  0  0  0  0  0  0  0  0
    1.9139  -51.7637  -18.7677 O   0  0  0  0  0  0  0  0  0  0  0  0
    0.5574  -53.4816  -19.6882 N   0  0  0  0  0  0  0  0  0  0  0  0
   -0.0049  -53.7226  -20.9936 C   0  0  0  0  0  0  0  0  0  0  0  0
   -0.7773  -54.7287  -21.4500 N   0  0  0  0  0  0  0  0  0  0  0  0
   -1.2073  -54.7709  -22.7092 C   0  0  0  0  0  0  0  0  0  0  0  0
   -0.8410  -53.7705  -23.5129 N   0  0  0  0  0  0  0  0  0  0  0  0
   -0.0752  -52.7219  -23.1641 C   0  0  0  0  0  0  0  0  0  0  0  0
    0.3501  -52.7054  -21.8545 C   0  0  0  0  0  0  0  0  0  0  0  0
    0.4422  -54.0974  -18.8539 H   0  0  0  0  0  0  0  0  0  0  0  0
    4.6224  -50.1879  -21.9775 C   0  0  0  0  0  0  0  0  0  0  0  0
    3.7824  -49.4750  -20.9456 C   0  0  0  0  0  0  0  0  0  0  0  0
    4.2224  -48.4904  -20.0913 C   0  0  0  0  0  0  0  0  0  0  0  0
    3.1579  -48.1095  -19.3129 C   0  0  0  0  0  0  0  0  0  0  0  0
    2.1033  -48.8553  -19.6980 N   0  0  0  0  0  0  0  0  0  0  0  0
    2.4492  -49.6758  -20.6688 C   0  0  0  0  0  0  0  0  0  0  0  0
    1.1533  -48.7432  -19.2569 H   0  0  0  0  0  0  0  0  0  0  0  0
    3.2219  -47.0697  -18.3034 C   0  0  0  0  0  0  0  0  0  0  0  0
    3.3149  -45.8401  -18.5626 O   0  0  0  0  0  0  0  0  0  0  0  0
    3.1837  -47.4328  -16.9318 N   0  0  0  0  0  0  0  0  0  0  0  0
    3.1127  -48.4465  -16.6890 H   0  0  0  0  0  0  0  0  0  0  0  0
    3.2383  -46.4803  -15.8394 C   0  0  0  0  0  0  0  0  0  0  0  0
    1.8399  -46.2277  -15.3622 C   0  0  0  0  0  0  0  0  0  0  0  0
    1.5577  -44.9234  -14.8991 N   0  0  0  0  0  0  0  0  0  0  0  0
    1.6286  -43.8536  -15.8199 C   0  0  0  0  0  0  0  0  0  0  0  0
    0.2904  -43.2555  -16.1977 C   0  0  0  0  0  0  0  0  0  0  0  0
   -0.4693  -43.1255  -15.0464 O   0  0  0  0  0  0  0  0  0  0  0  0
   -0.7514  -44.3998  -14.5527 C   0  0  0  0  0  0  0  0  0  0  0  0
    0.5426  -44.8877  -13.9188 C   0  0  0  0  0  0  0  0  0  0  0  0
    0.3098  -51.8407  -24.1663 N   0  0  0  0  0  0  0  0  0  0  0  0
    0.1547  -50.8286  -24.1098 H   0  0  0  0  0  0  0  0  0  0  0  0
    1.0044  -52.2406  -25.3390 C   0  0  0  0  0  0  0  0  0  0  0  0
    2.3400  -52.4957  -25.4123 C   0  0  0  0  0  0  0  0  0  0  0  0
    2.9761  -52.8588  -26.5891 C   0  0  0  0  0  0  0  0  0  0  0  0
    2.2468  -52.9702  -27.7286 C   0  0  0  0  0  0  0  0  0  0  0  0
    0.8944  -52.7280  -27.7252 C   0  0  0  0  0  0  0  0  0  0  0  0
    0.2894  -52.3698  -26.5488 C   0  0  0  0  0  0  0  0  0  0  0  0
    0.1599  -52.8590  -28.9427 C   0  0  0  0  0  0  0  0  0  0  0  0
   -0.4371  -52.9664  -29.9825 C   0  0  0  0  0  0  0  0  0  0  0  0
 13 14  1  0  0  0
 14 15  1  0  0  0
 15 16  2  0  0  0
 16 17  1  0  0  0
 17 18  1  0  0  0
 18  1  1  0  0  0
  1  2  2  0  0  0
  2  3  1  0  0  0
  3  4  2  0  0  0
  3  5  1  0  0  0
  5  6  1  0  0  0
  6  7  2  0  0  0
  7  8  1  0  0  0
  8  9  2  0  0  0
  9 10  1  0  0  0
 10 32  1  0  0  0
 32 34  1  0  0  0
 34 35  2  0  0  0
 35 36  1  0  0  0
 36 37  2  0  0  0
 37 38  1  0  0  0
 38 39  2  0  0  0
 38 40  1  0  0  0
 40 41  3  0  0  0
 10 11  2  0  0  0
 16 20  1  0  0  0
 20 21  2  0  0  0
 20 22  1  0  0  0
 22 24  1  0  0  0
 24 25  1  0  0  0
 25 26  1  0  0  0
 26 27  1  0  0  0
 27 28  1  0  0  0
 28 29  1  0  0  0
 29 30  1  0  0  0
 30 31  1  0  0  0
 18 14  2  0  0  0
 11  2  1  0  0  0
 31 26  1  0  0  0
 11  6  1  0  0  0
 39 34  1  0  0  0
 17 19  1  0  0  0
  5 12  1  0  0  0
 32 33  1  0  0  0
 22 23  1  0  0  0
M  END
> <minimizedAffinity>
-7.24992

> <CNNscore>
0.5140003562

> <CNNaffinity>
6.8771963120

> <CNN_VS>
3.5348813534

> <CNNaffinity_variance>
0.4466489851

$$$$
[H]C#Cc1c([H])c([H])c([H])c(N([H])c2nc([H])nc3c2/C(=C(\[H])c2c(C([H])([H])[H])c([H])c(C(=O)N([H])C([H])([H])C([H])([H])N4C([H])([H])C([H])([H])OC([H])([H])C4([H])[H])n2[H])C(=O)N3[H])c1[H]


 41 45  0  0  0  0  0  0  0  0999 V2000
    0.8857  -51.4319  -21.9876 C   0  0  0  0  0  0  0  0  0  0  0  0
    0.3197  -52.4829  -22.4845 C   0  0  0  0  0  0  0  0  0  0  0  0
   -0.4962  -53.4403  -21.7471 C   0  0  0  0  0  0  0  0  0  0  0  0
   -0.7416  -53.4346  -20.5243 O   0  0  0  0  0  0  0  0  0  0  0  0
   -0.9622  -54.3930  -22.6856 N   0  0  0  0  0  0  0  0  0  0  0  0
   -0.4517  -54.0513  -23.9898 C   0  0  0  0  0  0  0  0  0  0  0  0
   -0.6219  -54.6452  -25.1879 N   0  0  0  0  0  0  0  0  0  0  0  0
   -0.0620  -54.1667  -26.2969 C   0  0  0  0  0  0  0  0  0  0  0  0
    0.6833  -53.0662  -26.1783 N   0  0  0  0  0  0  0  0  0  0  0  0
    0.9199  -52.3960  -25.0370 C   0  0  0  0  0  0  0  0  0  0  0  0
    0.3237  -52.9137  -23.9087 C   0  0  0  0  0  0  0  0  0  0  0  0
   -1.5753  -55.2086  -22.4677 H   0  0  0  0  0  0  0  0  0  0  0  0
    1.4459  -48.5798  -21.1816 C   0  0  0  0  0  0  0  0  0  0  0  0
    1.0276  -49.6917  -20.2501 C   0  0  0  0  0  0  0  0  0  0  0  0
    0.8027  -49.5665  -18.8986 C   0  0  0  0  0  0  0  0  0  0  0  0
    0.4469  -50.8031  -18.4205 C   0  0  0  0  0  0  0  0  0  0  0  0
    0.4603  -51.6486  -19.4700 N   0  0  0  0  0  0  0  0  0  0  0  0
    0.8026  -51.0111  -20.5708 C   0  0  0  0  0  0  0  0  0  0  0  0
    0.2081  -52.6661  -19.3666 H   0  0  0  0  0  0  0  0  0  0  0  0
    0.1047  -51.0699  -17.0362 C   0  0  0  0  0  0  0  0  0  0  0  0
    0.9154  -50.9673  -16.0771 O   0  0  0  0  0  0  0  0  0  0  0  0
   -1.2166  -51.4773  -16.7156 N   0  0  0  0  0  0  0  0  0  0  0  0
   -1.9076  -51.5759  -17.4932 H   0  0  0  0  0  0  0  0  0  0  0  0
   -1.6710  -51.7680  -15.3694 C   0  0  0  0  0  0  0  0  0  0  0  0
   -2.8924  -50.9436  -15.0943 C   0  0  0  0  0  0  0  0  0  0  0  0
   -2.7132  -49.8032  -14.2802 N   0  0  0  0  0  0  0  0  0  0  0  0
   -1.6394  -49.7959  -13.3614 C   0  0  0  0  0  0  0  0  0  0  0  0
   -0.5080  -48.8562  -13.7194 C   0  0  0  0  0  0  0  0  0  0  0  0
   -1.0559  -47.6586  -14.1497 O   0  0  0  0  0  0  0  0  0  0  0  0
   -1.7474  -47.8874  -15.3400 C   0  0  0  0  0  0  0  0  0  0  0  0
   -3.0323  -48.5947  -14.9361 C   0  0  0  0  0  0  0  0  0  0  0  0
    1.8240  -51.3426  -25.0812 N   0  0  0  0  0  0  0  0  0  0  0  0
    1.5988  -50.4304  -25.4921 H   0  0  0  0  0  0  0  0  0  0  0  0
    3.1253  -51.4007  -24.5147 C   0  0  0  0  0  0  0  0  0  0  0  0
    3.9684  -52.4672  -24.5914 C   0  0  0  0  0  0  0  0  0  0  0  0
    5.2210  -52.4839  -23.9982 C   0  0  0  0  0  0  0  0  0  0  0  0
    5.6406  -51.3936  -23.3067 C   0  0  0  0  0  0  0  0  0  0  0  0
    4.8403  -50.2828  -23.1908 C   0  0  0  0  0  0  0  0  0  0  0  0
    3.6058  -50.2918  -23.7860 C   0  0  0  0  0  0  0  0  0  0  0  0
    5.3174  -49.1534  -22.4587 C   0  0  0  0  0  0  0  0  0  0  0  0
    5.7059  -48.2094  -21.8208 C   0  0  0  0  0  0  0  0  0  0  0  0
 13 14  1  0  0  0
 14 15  1  0  0  0
 15 16  2  0  0  0
 16 17  1  0  0  0
 17 18  1  0  0  0
 18  1  1  0  0  0
  1  2  2  0  0  0
  2  3  1  0  0  0
  3  4  2  0  0  0
  3  5  1  0  0  0
  5  6  1  0  0  0
  6  7  2  0  0  0
  7  8  1  0  0  0
  8  9  2  0  0  0
  9 10  1  0  0  0
 10 32  1  0  0  0
 32 34  1  0  0  0
 34 35  2  0  0  0
 35 36  1  0  0  0
 36 37  2  0  0  0
 37 38  1  0  0  0
 38 39  2  0  0  0
 38 40  1  0  0  0
 40 41  3  0  0  0
 10 11  2  0  0  0
 16 20  1  0  0  0
 20 21  2  0  0  0
 20 22  1  0  0  0
 22 24  1  0  0  0
 24 25  1  0  0  0
 25 26  1  0  0  0
 26 27  1  0  0  0
 27 28  1  0  0  0
 28 29  1  0  0  0
 29 30  1  0  0  0
 30 31  1  0  0  0
 18 14  2  0  0  0
 11  2  1  0  0  0
 31 26  1  0  0  0
 11  6  1  0  0  0
 39 34  1  0  0  0
 17 19  1  0  0  0
  5 12  1  0  0  0
 32 33  1  0  0  0
 22 23  1  0  0  0
M  END
> <minimizedAffinity>
-7.72890

> <CNNscore>
0.4037548900

> <CNNaffinity>
7.1357126236

> <CNN_VS>
2.8810789585

> <CNNaffinity_variance>
0.4569289088

$$$$
[H]C#Cc1c([H])c([H])c([H])c(N([H])c2nc([H])nc3c2/C(=C(\[H])c2c(C([H])([H])[H])c([H])c(C(=O)N([H])C([H])([H])C([H])([H])N4C([H])([H])C([H])([H])OC([H])([H])C4([H])[H])n2[H])C(=O)N3[H])c1[H]


 41 45  0  0  0  0  0  0  0  0999 V2000
    1.7176  -51.0704  -24.5211 C   0  0  0  0  0  0  0  0  0  0  0  0
    1.2434  -52.1998  -24.9353 C   0  0  0  0  0  0  0  0  0  0  0  0
    1.5882  -52.8601  -26.1888 C   0  0  0  0  0  0  0  0  0  0  0  0
    2.3479  -52.4316  -27.0803 O   0  0  0  0  0  0  0  0  0  0  0  0
    0.8901  -54.0921  -26.2107 N   0  0  0  0  0  0  0  0  0  0  0  0
    0.1162  -54.2112  -25.0002 C   0  0  0  0  0  0  0  0  0  0  0  0
   -0.6964  -55.1948  -24.5652 N   0  0  0  0  0  0  0  0  0  0  0  0
   -1.3291  -55.1201  -23.3963 C   0  0  0  0  0  0  0  0  0  0  0  0
   -1.1285  -54.0234  -22.6628 N   0  0  0  0  0  0  0  0  0  0  0  0
   -0.3433  -52.9853  -22.9993 C   0  0  0  0  0  0  0  0  0  0  0  0
    0.3000  -53.0946  -24.2120 C   0  0  0  0  0  0  0  0  0  0  0  0
    0.9302  -54.7978  -26.9782 H   0  0  0  0  0  0  0  0  0  0  0  0
    4.3982  -50.4150  -23.3033 C   0  0  0  0  0  0  0  0  0  0  0  0
    3.9303  -49.9995  -24.6771 C   0  0  0  0  0  0  0  0  0  0  0  0
    4.6674  -49.2903  -25.5972 C   0  0  0  0  0  0  0  0  0  0  0  0
    3.8837  -49.1139  -26.7102 C   0  0  0  0  0  0  0  0  0  0  0  0
    2.7009  -49.7080  -26.4557 N   0  0  0  0  0  0  0  0  0  0  0  0
    2.7036  -50.2429  -25.2519 C   0  0  0  0  0  0  0  0  0  0  0  0
    1.9231  -49.7235  -27.1660 H   0  0  0  0  0  0  0  0  0  0  0  0
    4.3232  -48.4305  -27.9120 C   0  0  0  0  0  0  0  0  0  0  0  0
    4.0940  -47.2157  -28.1561 O   0  0  0  0  0  0  0  0  0  0  0  0
    5.0545  -49.1524  -28.8911 N   0  0  0  0  0  0  0  0  0  0  0  0
    5.2533  -50.1631  -28.7162 H   0  0  0  0  0  0  0  0  0  0  0  0
    5.5454  -48.5729  -30.1266 C   0  0  0  0  0  0  0  0  0  0  0  0
    7.0302  -48.4022  -30.0116 C   0  0  0  0  0  0  0  0  0  0  0  0
    7.7316  -48.1557  -31.2127 N   0  0  0  0  0  0  0  0  0  0  0  0
    6.9858  -47.8885  -32.3831 C   0  0  0  0  0  0  0  0  0  0  0  0
    7.0582  -46.4554  -32.8649 C   0  0  0  0  0  0  0  0  0  0  0  0
    8.3739  -46.0308  -32.7733 O   0  0  0  0  0  0  0  0  0  0  0  0
    8.7374  -45.9950  -31.4265 C   0  0  0  0  0  0  0  0  0  0  0  0
    8.9368  -47.4470  -31.0187 C   0  0  0  0  0  0  0  0  0  0  0  0
   -0.3535  -51.8713  -22.1698 N   0  0  0  0  0  0  0  0  0  0  0  0
   -1.0334  -51.1097  -22.2660 H   0  0  0  0  0  0  0  0  0  0  0  0
    0.5344  -51.7002  -21.0743 C   0  0  0  0  0  0  0  0  0  0  0  0
    1.8608  -52.0082  -21.0828 C   0  0  0  0  0  0  0  0  0  0  0  0
    2.6808  -51.8464  -19.9771 C   0  0  0  0  0  0  0  0  0  0  0  0
    2.1515  -51.3584  -18.8262 C   0  0  0  0  0  0  0  0  0  0  0  0
    0.8205  -51.0264  -18.7489 C   0  0  0  0  0  0  0  0  0  0  0  0
    0.0308  -51.1964  -19.8561 C   0  0  0  0  0  0  0  0  0  0  0  0
    0.3005  -50.5124  -17.5223 C   0  0  0  0  0  0  0  0  0  0  0  0
   -0.1349  -50.0549  -16.4975 C   0  0  0  0  0  0  0  0  0  0  0  0
 13 14  1  0  0  0
 14 15  1  0  0  0
 15 16  2  0  0  0
 16 17  1  0  0  0
 17 18  1  0  0  0
 18  1  1  0  0  0
  1  2  2  0  0  0
  2  3  1  0  0  0
  3  4  2  0  0  0
  3  5  1  0  0  0
  5  6  1  0  0  0
  6  7  2  0  0  0
  7  8  1  0  0  0
  8  9  2  0  0  0
  9 10  1  0  0  0
 10 32  1  0  0  0
 32 34  1  0  0  0
 34 35  2  0  0  0
 35 36  1  0  0  0
 36 37  2  0  0  0
 37 38  1  0  0  0
 38 39  2  0  0  0
 38 40  1  0  0  0
 40 41  3  0  0  0
 10 11  2  0  0  0
 16 20  1  0  0  0
 20 21  2  0  0  0
 20 22  1  0  0  0
 22 24  1  0  0  0
 24 25  1  0  0  0
 25 26  1  0  0  0
 26 27  1  0  0  0
 27 28  1  0  0  0
 28 29  1  0  0  0
 29 30  1  0  0  0
 30 31  1  0  0  0
 18 14  2  0  0  0
 11  2  1  0  0  0
 31 26  1  0  0  0
 11  6  1  0  0  0
 39 34  1  0  0  0
 17 19  1  0  0  0
  5 12  1  0  0  0
 32 33  1  0  0  0
 22 23  1  0  0  0
M  END
> <minimizedAffinity>
-7.43159

> <CNNscore>
0.3348297179

> <CNNaffinity>
6.8727011681

> <CNN_VS>
2.3011846542

> <CNNaffinity_variance>
0.2708634138

$$$$
[H]C#Cc1c([H])c([H])c([H])c(N([H])c2nc([H])nc3c2/C(=C(\[H])c2c(C([H])([H])[H])c([H])c(C(=O)N([H])C([H])([H])C([H])([H])N4C([H])([H])C([H])([H])OC([H])([H])C4([H])[H])n2[H])C(=O)N3[H])c1[H]


 41 45  0  0  0  0  0  0  0  0999 V2000
    1.9564  -51.6410  -23.0238 C   0  0  0  0  0  0  0  0  0  0  0  0
    1.4546  -51.6550  -21.8322 C   0  0  0  0  0  0  0  0  0  0  0  0
    1.8229  -50.7592  -20.7422 C   0  0  0  0  0  0  0  0  0  0  0  0
    2.7033  -49.8759  -20.7597 O   0  0  0  0  0  0  0  0  0  0  0  0
    0.9894  -51.0827  -19.6440 N   0  0  0  0  0  0  0  0  0  0  0  0
    0.1131  -52.1619  -20.0256 C   0  0  0  0  0  0  0  0  0  0  0  0
   -0.8499  -52.8037  -19.3343 N   0  0  0  0  0  0  0  0  0  0  0  0
   -1.5659  -53.7885  -19.8727 C   0  0  0  0  0  0  0  0  0  0  0  0
   -1.2921  -54.1221  -21.1355 N   0  0  0  0  0  0  0  0  0  0  0  0
   -0.3561  -53.5516  -21.9141 C   0  0  0  0  0  0  0  0  0  0  0  0
    0.3644  -52.5340  -21.3296 C   0  0  0  0  0  0  0  0  0  0  0  0
    1.0073  -50.6154  -18.7113 H   0  0  0  0  0  0  0  0  0  0  0  0
    4.7207  -52.6245  -23.7233 C   0  0  0  0  0  0  0  0  0  0  0  0
    4.2375  -51.1993  -23.8416 C   0  0  0  0  0  0  0  0  0  0  0  0
    4.9714  -50.1385  -24.3203 C   0  0  0  0  0  0  0  0  0  0  0  0
    4.1758  -49.0216  -24.2587 C   0  0  0  0  0  0  0  0  0  0  0  0
    2.9895  -49.4120  -23.7519 N   0  0  0  0  0  0  0  0  0  0  0  0
    3.0008  -50.7041  -23.4956 C   0  0  0  0  0  0  0  0  0  0  0  0
    2.1941  -48.7350  -23.6157 H   0  0  0  0  0  0  0  0  0  0  0  0
    4.5913  -47.7043  -24.7021 C   0  0  0  0  0  0  0  0  0  0  0  0
    5.7747  -47.2773  -24.6317 O   0  0  0  0  0  0  0  0  0  0  0  0
    3.6243  -46.8207  -25.2487 N   0  0  0  0  0  0  0  0  0  0  0  0
    2.6341  -47.1477  -25.3133 H   0  0  0  0  0  0  0  0  0  0  0  0
    3.9252  -45.4844  -25.7254 C   0  0  0  0  0  0  0  0  0  0  0  0
    4.2012  -45.5584  -27.1969 C   0  0  0  0  0  0  0  0  0  0  0  0
    3.3604  -46.4038  -27.9544 N   0  0  0  0  0  0  0  0  0  0  0  0
    2.2056  -45.8457  -28.5480 C   0  0  0  0  0  0  0  0  0  0  0  0
    2.2680  -45.7198  -30.0552 C   0  0  0  0  0  0  0  0  0  0  0  0
    2.8118  -46.8865  -30.5677 O   0  0  0  0  0  0  0  0  0  0  0  0
    4.1372  -46.9845  -30.1420 C   0  0  0  0  0  0  0  0  0  0  0  0
    4.0666  -47.3893  -28.6773 C   0  0  0  0  0  0  0  0  0  0  0  0
   -0.1239  -54.1132  -23.1630 N   0  0  0  0  0  0  0  0  0  0  0  0
    0.0626  -55.1122  -23.3001 H   0  0  0  0  0  0  0  0  0  0  0  0
   -0.1771  -53.3773  -24.3768 C   0  0  0  0  0  0  0  0  0  0  0  0
   -1.2424  -52.6455  -24.8057 C   0  0  0  0  0  0  0  0  0  0  0  0
   -1.2541  -51.9647  -26.0130 C   0  0  0  0  0  0  0  0  0  0  0  0
   -0.1600  -52.0200  -26.8148 C   0  0  0  0  0  0  0  0  0  0  0  0
    0.9498  -52.7394  -26.4425 C   0  0  0  0  0  0  0  0  0  0  0  0
    0.9358  -53.4043  -25.2441 C   0  0  0  0  0  0  0  0  0  0  0  0
    2.0832  -52.7711  -27.3104 C   0  0  0  0  0  0  0  0  0  0  0  0
    3.0243  -52.8105  -28.0600 C   0  0  0  0  0  0  0  0  0  0  0  0
 13 14  1  0  0  0
 14 15  1  0  0  0
 15 16  2  0  0  0
 16 17  1  0  0  0
 17 18  1  0  0  0
 18  1  1  0  0  0
  1  2  2  0  0  0
  2  3  1  0  0  0
  3  4  2  0  0  0
  3  5  1  0  0  0
  5  6  1  0  0  0
  6  7  2  0  0  0
  7  8  1  0  0  0
  8  9  2  0  0  0
  9 10  1  0  0  0
 10 32  1  0  0  0
 32 34  1  0  0  0
 34 35  2  0  0  0
 35 36  1  0  0  0
 36 37  2  0  0  0
 37 38  1  0  0  0
 38 39  2  0  0  0
 38 40  1  0  0  0
 40 41  3  0  0  0
 10 11  2  0  0  0
 16 20  1  0  0  0
 20 21  2  0  0  0
 20 22  1  0  0  0
 22 24  1  0  0  0
 24 25  1  0  0  0
 25 26  1  0  0  0
 26 27  1  0  0  0
 27 28  1  0  0  0
 28 29  1  0  0  0
 29 30  1  0  0  0
 30 31  1  0  0  0
 18 14  2  0  0  0
 11  2  1  0  0  0
 31 26  1  0  0  0
 11  6  1  0  0  0
 39 34  1  0  0  0
 17 19  1  0  0  0
  5 12  1  0  0  0
 32 33  1  0  0  0
 22 23  1  0  0  0
M  END
> <minimizedAffinity>
-7.64851

> <CNNscore>
0.2751775682

> <CNNaffinity>
6.7461714745

> <CNN_VS>
1.8563950062

> <CNNaffinity_variance>
0.3617779315

$$$$
[H]C#Cc1c([H])c([H])c([H])c(N([H])c2nc([H])nc3c2/C(=C(\[H])c2c(C([H])([H])[H])c([H])c(C(=O)N([H])C([H])([H])C([H])([H])N4C([H])([H])C([H])([H])OC([H])([H])C4([H])[H])n2[H])C(=O)N3[H])c1[H]


 41 45  0  0  0  0  0  0  0  0999 V2000
    1.7850  -52.2683  -23.2013 C   0  0  0  0  0  0  0  0  0  0  0  0
    1.1889  -52.8439  -24.1940 C   0  0  0  0  0  0  0  0  0  0  0  0
   -0.1816  -53.3417  -24.1920 C   0  0  0  0  0  0  0  0  0  0  0  0
   -0.9805  -53.3411  -23.2343 O   0  0  0  0  0  0  0  0  0  0  0  0
   -0.4417  -53.8365  -25.4932 N   0  0  0  0  0  0  0  0  0  0  0  0
    0.7375  -53.6603  -26.3035 C   0  0  0  0  0  0  0  0  0  0  0  0
    0.9749  -53.9652  -27.5950 N   0  0  0  0  0  0  0  0  0  0  0  0
    2.1476  -53.7156  -28.1734 C   0  0  0  0  0  0  0  0  0  0  0  0
    3.0910  -53.1472  -27.4199 N   0  0  0  0  0  0  0  0  0  0  0  0
    2.9629  -52.8035  -26.1264 C   0  0  0  0  0  0  0  0  0  0  0  0
    1.7373  -53.0710  -25.5584 C   0  0  0  0  0  0  0  0  0  0  0  0
   -1.3407  -54.2591  -25.8124 H   0  0  0  0  0  0  0  0  0  0  0  0
    1.5825  -49.4644  -22.1081 C   0  0  0  0  0  0  0  0  0  0  0  0
    1.0668  -50.7119  -21.4324 C   0  0  0  0  0  0  0  0  0  0  0  0
    0.3940  -50.7573  -20.2331 C   0  0  0  0  0  0  0  0  0  0  0  0
    0.1053  -52.0728  -19.9683 C   0  0  0  0  0  0  0  0  0  0  0  0
    0.5983  -52.7969  -20.9927 N   0  0  0  0  0  0  0  0  0  0  0  0
    1.1752  -52.0098  -21.8775 C   0  0  0  0  0  0  0  0  0  0  0  0
    0.4936  -53.8443  -21.0333 H   0  0  0  0  0  0  0  0  0  0  0  0
   -0.6242  -52.5237  -18.7983 C   0  0  0  0  0  0  0  0  0  0  0  0
   -1.4905  -53.4385  -18.8167 O   0  0  0  0  0  0  0  0  0  0  0  0
   -0.3687  -51.9104  -17.5440 N   0  0  0  0  0  0  0  0  0  0  0  0
    0.3410  -51.1447  -17.5018 H   0  0  0  0  0  0  0  0  0  0  0  0
   -1.0350  -52.2806  -16.3101 C   0  0  0  0  0  0  0  0  0  0  0  0
   -1.8406  -51.1081  -15.8378 C   0  0  0  0  0  0  0  0  0  0  0  0
   -3.2435  -51.2147  -15.9647 N   0  0  0  0  0  0  0  0  0  0  0  0
   -3.7966  -52.4808  -16.2621 C   0  0  0  0  0  0  0  0  0  0  0  0
   -4.5517  -53.1246  -15.1189 C   0  0  0  0  0  0  0  0  0  0  0  0
   -5.3342  -52.1550  -14.5129 O   0  0  0  0  0  0  0  0  0  0  0  0
   -4.4943  -51.2084  -13.9247 C   0  0  0  0  0  0  0  0  0  0  0  0
   -3.9488  -50.3758  -15.0751 C   0  0  0  0  0  0  0  0  0  0  0  0
    4.0926  -52.3376  -25.4662 N   0  0  0  0  0  0  0  0  0  0  0  0
    4.9108  -52.9259  -25.2763 H   0  0  0  0  0  0  0  0  0  0  0  0
    4.2535  -50.9924  -25.0394 C   0  0  0  0  0  0  0  0  0  0  0  0
    4.9139  -50.5985  -23.9156 C   0  0  0  0  0  0  0  0  0  0  0  0
    5.0211  -49.2719  -23.5284 C   0  0  0  0  0  0  0  0  0  0  0  0
    4.4473  -48.3100  -24.2955 C   0  0  0  0  0  0  0  0  0  0  0  0
    3.7667  -48.6379  -25.4431 C   0  0  0  0  0  0  0  0  0  0  0  0
    3.6745  -49.9569  -25.8037 C   0  0  0  0  0  0  0  0  0  0  0  0
    3.1796  -47.5982  -26.2263 C   0  0  0  0  0  0  0  0  0  0  0  0
    2.7074  -46.7089  -26.8860 C   0  0  0  0  0  0  0  0  0  0  0  0
 13 14  1  0  0  0
 14 15  1  0  0  0
 15 16  2  0  0  0
 16 17  1  0  0  0
 17 18  1  0  0  0
 18  1  1  0  0  0
  1  2  2  0  0  0
  2  3  1  0  0  0
  3  4  2  0  0  0
  3  5  1  0  0  0
  5  6  1  0  0  0
  6  7  2  0  0  0
  7  8  1  0  0  0
  8  9  2  0  0  0
  9 10  1  0  0  0
 10 32  1  0  0  0
 32 34  1  0  0  0
 34 35  2  0  0  0
 35 36  1  0  0  0
 36 37  2  0  0  0
 37 38  1  0  0  0
 38 39  2  0  0  0
 38 40  1  0  0  0
 40 41  3  0  0  0
 10 11  2  0  0  0
 16 20  1  0  0  0
 20 21  2  0  0  0
 20 22  1  0  0  0
 22 24  1  0  0  0
 24 25  1  0  0  0
 25 26  1  0  0  0
 26 27  1  0  0  0
 27 28  1  0  0  0
 28 29  1  0  0  0
 29 30  1  0  0  0
 30 31  1  0  0  0
 18 14  2  0  0  0
 11  2  1  0  0  0
 31 26  1  0  0  0
 11  6  1  0  0  0
 39 34  1  0  0  0
 17 19  1  0  0  0
  5 12  1  0  0  0
 32 33  1  0  0  0
 22 23  1  0  0  0
M  END
> <minimizedAffinity>
-8.60969

> <CNNscore>
0.2384150028

> <CNNaffinity>
6.8821687698

> <CNN_VS>
1.6408122778

> <CNNaffinity_variance>
0.2583148777

$$$$
[H]C([H])=C([H])C(=O)N(c1c([H])c([H])c2nc([H])nc(N([H])c3c([H])c([H])c([H])c(Br)c3[H])c2c1[H])C([H])([H])C([H])([H])C([H])([H])N1C([H])([H])C([H])([H])OC([H])([H])C1([H])[H]


 33 36  0  0  0  0  0  0  0  0999 V2000
   -0.1493  -52.1516  -21.6659 C   0  0  0  0  0  0  0  0  0  0  0  0
   -0.6579  -52.5342  -20.4647 N   0  0  0  0  0  0  0  0  0  0  0  0
   -1.2911  -53.6960  -20.2707 C   0  0  0  0  0  0  0  0  0  0  0  0
   -1.4428  -54.5423  -21.3040 N   0  0  0  0  0  0  0  0  0  0  0  0
   -0.9595  -54.2194  -22.5222 C   0  0  0  0  0  0  0  0  0  0  0  0
   -1.1013  -55.0691  -23.5956 C   0  0  0  0  0  0  0  0  0  0  0  0
   -0.6094  -54.7434  -24.8374 C   0  0  0  0  0  0  0  0  0  0  0  0
    0.0477  -53.5619  -25.0839 C   0  0  0  0  0  0  0  0  0  0  0  0
    0.1883  -52.6996  -23.9812 C   0  0  0  0  0  0  0  0  0  0  0  0
   -0.2948  -53.0042  -22.7338 C   0  0  0  0  0  0  0  0  0  0  0  0
    0.5660  -53.1830  -26.3398 N   0  0  0  0  0  0  0  0  0  0  0  0
   -0.3313  -52.6055  -27.2736 C   0  0  0  0  0  0  0  0  0  0  0  0
    0.1143  -52.2744  -28.4135 O   0  0  0  0  0  0  0  0  0  0  0  0
   -1.7291  -52.3718  -26.9990 C   0  0  0  0  0  0  0  0  0  0  0  0
   -2.6142  -52.4152  -27.9611 C   0  0  0  0  0  0  0  0  0  0  0  0
    1.9614  -53.3520  -26.7217 C   0  0  0  0  0  0  0  0  0  0  0  0
    2.7907  -52.1745  -26.3974 C   0  0  0  0  0  0  0  0  0  0  0  0
    3.8356  -52.4414  -25.3705 C   0  0  0  0  0  0  0  0  0  0  0  0
    3.8919  -51.6772  -24.2011 N   0  0  0  0  0  0  0  0  0  0  0  0
    4.8921  -51.8420  -23.2453 C   0  0  0  0  0  0  0  0  0  0  0  0
    5.5976  -50.5594  -22.8354 C   0  0  0  0  0  0  0  0  0  0  0  0
    4.7487  -49.4778  -22.7662 O   0  0  0  0  0  0  0  0  0  0  0  0
    4.0968  -49.2346  -23.9770 C   0  0  0  0  0  0  0  0  0  0  0  0
    3.1956  -50.4349  -24.2176 C   0  0  0  0  0  0  0  0  0  0  0  0
    0.4757  -50.8972  -21.8374 N   0  0  0  0  0  0  0  0  0  0  0  0
    0.1411  -50.1974  -22.5523 H   0  0  0  0  0  0  0  0  0  0  0  0
    3.2532  -47.2619  -19.2202 Br  0  0  0  0  0  0  0  0  0  0  0  0
    2.9380  -49.0449  -19.7815 C   0  0  0  0  0  0  0  0  0  0  0  0
    3.7812  -50.0241  -19.3669 C   0  0  0  0  0  0  0  0  0  0  0  0
    3.5275  -51.3150  -19.7904 C   0  0  0  0  0  0  0  0  0  0  0  0
    2.4440  -51.5644  -20.6080 C   0  0  0  0  0  0  0  0  0  0  0  0
    1.5844  -50.5522  -21.0289 C   0  0  0  0  0  0  0  0  0  0  0  0
    1.8305  -49.2874  -20.6139 C   0  0  0  0  0  0  0  0  0  0  0  0
 27 28  1  0  0  0
 28 29  2  0  0  0
 29 30  1  0  0  0
 30 31  2  0  0  0
 31 32  1  0  0  0
 32 25  1  0  0  0
 25  1  1  0  0  0
  1  2  2  0  0  0
  2  3  1  0  0  0
  3  4  2  0  0  0
  4  5  1  0  0  0
  5  6  2  0  0  0
  6  7  1  0  0  0
  7  8  2  0  0  0
  8  9  1  0  0  0
  9 10  2  0  0  0
  8 11  1  0  0  0
 11 16  1  0  0  0
 16 17  1  0  0  0
 17 18  1  0  0  0
 18 19  1  0  0  0
 19 20  1  0  0  0
 20 21  1  0  0  0
 21 22  1  0  0  0
 22 23  1  0  0  0
 23 24  1  0  0  0
 11 12  1  0  0  0
 12 13  2  0  0  0
 12 14  1  0  0  0
 14 15  2  0  0  0
 32 33  2  0  0  0
 33 28  1  0  0  0
 10  1  1  0  0  0
 24 19  1  0  0  0
 10  5  1  0  0  0
 25 26  1  0  0  0
M  END
> <minimizedAffinity>
-7.56408

> <CNNscore>
0.8854083419

> <CNNaffinity>
7.7960801125

> <CNN_VS>
6.9027142525

> <CNNaffinity_variance>
0.0672637969

$$$$
[H]C([H])=C([H])C(=O)N(c1c([H])c([H])c2nc([H])nc(N([H])c3c([H])c([H])c([H])c(Br)c3[H])c2c1[H])C([H])([H])C([H])([H])C([H])([H])N1C([H])([H])C([H])([H])OC([H])([H])C1([H])[H]


 33 36  0  0  0  0  0  0  0  0999 V2000
   -0.3165  -52.4458  -21.8278 C   0  0  0  0  0  0  0  0  0  0  0  0
   -1.0587  -52.9099  -20.7877 N   0  0  0  0  0  0  0  0  0  0  0  0
   -1.7310  -54.0654  -20.8222 C   0  0  0  0  0  0  0  0  0  0  0  0
   -1.6832  -54.8207  -21.9331 N   0  0  0  0  0  0  0  0  0  0  0  0
   -0.9630  -54.4140  -22.9997 C   0  0  0  0  0  0  0  0  0  0  0  0
   -0.8974  -55.1698  -24.1480 C   0  0  0  0  0  0  0  0  0  0  0  0
   -0.1641  -54.7586  -25.2358 C   0  0  0  0  0  0  0  0  0  0  0  0
    0.5423  -53.5799  -25.2463 C   0  0  0  0  0  0  0  0  0  0  0  0
    0.4699  -52.8139  -24.0685 C   0  0  0  0  0  0  0  0  0  0  0  0
   -0.2557  -53.2048  -22.9718 C   0  0  0  0  0  0  0  0  0  0  0  0
    1.3049  -53.1152  -26.3381 N   0  0  0  0  0  0  0  0  0  0  0  0
    0.6057  -52.7182  -27.5062 C   0  0  0  0  0  0  0  0  0  0  0  0
    1.2768  -52.3137  -28.5030 O   0  0  0  0  0  0  0  0  0  0  0  0
   -0.8325  -52.7482  -27.6252 C   0  0  0  0  0  0  0  0  0  0  0  0
   -1.4044  -52.7540  -28.8016 C   0  0  0  0  0  0  0  0  0  0  0  0
    2.7584  -53.0225  -26.3264 C   0  0  0  0  0  0  0  0  0  0  0  0
    3.2545  -51.9028  -25.5021 C   0  0  0  0  0  0  0  0  0  0  0  0
    2.7718  -50.5676  -25.9513 C   0  0  0  0  0  0  0  0  0  0  0  0
    3.6280  -49.4624  -25.9368 N   0  0  0  0  0  0  0  0  0  0  0  0
    3.8536  -48.6740  -27.0631 C   0  0  0  0  0  0  0  0  0  0  0  0
    3.6736  -47.1810  -26.8407 C   0  0  0  0  0  0  0  0  0  0  0  0
    4.1189  -46.7642  -25.6064 O   0  0  0  0  0  0  0  0  0  0  0  0
    3.4797  -47.4290  -24.5577 C   0  0  0  0  0  0  0  0  0  0  0  0
    3.9021  -48.8854  -24.6639 C   0  0  0  0  0  0  0  0  0  0  0  0
    0.3443  -51.1995  -21.7652 N   0  0  0  0  0  0  0  0  0  0  0  0
   -0.0482  -50.3335  -22.2219 H   0  0  0  0  0  0  0  0  0  0  0  0
    5.6055  -50.8881  -21.8164 Br  0  0  0  0  0  0  0  0  0  0  0  0
    3.9386  -50.9207  -20.9142 C   0  0  0  0  0  0  0  0  0  0  0  0
    3.9196  -50.8032  -19.5624 C   0  0  0  0  0  0  0  0  0  0  0  0
    2.6907  -50.8292  -18.9305 C   0  0  0  0  0  0  0  0  0  0  0  0
    1.5409  -50.9721  -19.6801 C   0  0  0  0  0  0  0  0  0  0  0  0
    1.5706  -51.0927  -21.0676 C   0  0  0  0  0  0  0  0  0  0  0  0
    2.7734  -51.0659  -21.6884 C   0  0  0  0  0  0  0  0  0  0  0  0
 27 28  1  0  0  0
 28 29  2  0  0  0
 29 30  1  0  0  0
 30 31  2  0  0  0
 31 32  1  0  0  0
 32 25  1  0  0  0
 25  1  1  0  0  0
  1  2  2  0  0  0
  2  3  1  0  0  0
  3  4  2  0  0  0
  4  5  1  0  0  0
  5  6  2  0  0  0
  6  7  1  0  0  0
  7  8  2  0  0  0
  8  9  1  0  0  0
  9 10  2  0  0  0
  8 11  1  0  0  0
 11 16  1  0  0  0
 16 17  1  0  0  0
 17 18  1  0  0  0
 18 19  1  0  0  0
 19 20  1  0  0  0
 20 21  1  0  0  0
 21 22  1  0  0  0
 22 23  1  0  0  0
 23 24  1  0  0  0
 11 12  1  0  0  0
 12 13  2  0  0  0
 12 14  1  0  0  0
 14 15  2  0  0  0
 32 33  2  0  0  0
 33 28  1  0  0  0
 10  1  1  0  0  0
 24 19  1  0  0  0
 10  5  1  0  0  0
 25 26  1  0  0  0
M  END
> <minimizedAffinity>
-7.70051

> <CNNscore>
0.8133074641

> <CNNaffinity>
7.6691169739

> <CNN_VS>
6.2373499870

> <CNNaffinity_variance>
0.0567410700

$$$$
[H]C([H])=C([H])C(=O)N(c1c([H])c([H])c2nc([H])nc(N([H])c3c([H])c([H])c([H])c(Br)c3[H])c2c1[H])C([H])([H])C([H])([H])C([H])([H])N1C([H])([H])C([H])([H])OC([H])([H])C1([H])[H]


 33 36  0  0  0  0  0  0  0  0999 V2000
   -0.4335  -52.9988  -23.6625 C   0  0  0  0  0  0  0  0  0  0  0  0
   -1.1390  -54.1301  -23.9280 N   0  0  0  0  0  0  0  0  0  0  0  0
   -1.3232  -55.1083  -23.0350 C   0  0  0  0  0  0  0  0  0  0  0  0
   -0.7913  -54.9855  -21.8067 N   0  0  0  0  0  0  0  0  0  0  0  0
   -0.0801  -53.8853  -21.4820 C   0  0  0  0  0  0  0  0  0  0  0  0
    0.4737  -53.7356  -20.2310 C   0  0  0  0  0  0  0  0  0  0  0  0
    1.1979  -52.6157  -19.8971 C   0  0  0  0  0  0  0  0  0  0  0  0
    1.4132  -51.5858  -20.7810 C   0  0  0  0  0  0  0  0  0  0  0  0
    0.8434  -51.7470  -22.0572 C   0  0  0  0  0  0  0  0  0  0  0  0
    0.1175  -52.8558  -22.4118 C   0  0  0  0  0  0  0  0  0  0  0  0
    2.1511  -50.4206  -20.4857 N   0  0  0  0  0  0  0  0  0  0  0  0
    1.6892  -49.6019  -19.4239 C   0  0  0  0  0  0  0  0  0  0  0  0
    2.3312  -48.5419  -19.1559 O   0  0  0  0  0  0  0  0  0  0  0  0
    0.5250  -49.9082  -18.6274 C   0  0  0  0  0  0  0  0  0  0  0  0
    0.5876  -49.8920  -17.3210 C   0  0  0  0  0  0  0  0  0  0  0  0
    3.3513  -50.0204  -21.2074 C   0  0  0  0  0  0  0  0  0  0  0  0
    4.5068  -50.8953  -20.9273 C   0  0  0  0  0  0  0  0  0  0  0  0
    5.5785  -50.8221  -21.9587 C   0  0  0  0  0  0  0  0  0  0  0  0
    5.3540  -51.3079  -23.2502 N   0  0  0  0  0  0  0  0  0  0  0  0
    4.8215  -52.5721  -23.4937 C   0  0  0  0  0  0  0  0  0  0  0  0
    3.6328  -52.5899  -24.4409 C   0  0  0  0  0  0  0  0  0  0  0  0
    3.7512  -51.6817  -25.4688 O   0  0  0  0  0  0  0  0  0  0  0  0
    3.9057  -50.3728  -25.0072 C   0  0  0  0  0  0  0  0  0  0  0  0
    5.2434  -50.3367  -24.2861 C   0  0  0  0  0  0  0  0  0  0  0  0
   -0.2273  -52.0088  -24.6480 N   0  0  0  0  0  0  0  0  0  0  0  0
   -0.0162  -51.0058  -24.3991 H   0  0  0  0  0  0  0  0  0  0  0  0
    2.0391  -54.0085  -28.9659 Br  0  0  0  0  0  0  0  0  0  0  0  0
    0.5640  -53.2523  -28.0463 C   0  0  0  0  0  0  0  0  0  0  0  0
   -0.6054  -53.0745  -28.7117 C   0  0  0  0  0  0  0  0  0  0  0  0
   -1.6646  -52.5221  -28.0168 C   0  0  0  0  0  0  0  0  0  0  0  0
   -1.5036  -52.1737  -26.6912 C   0  0  0  0  0  0  0  0  0  0  0  0
   -0.2989  -52.3595  -26.0169 C   0  0  0  0  0  0  0  0  0  0  0  0
    0.7393  -52.9018  -26.6955 C   0  0  0  0  0  0  0  0  0  0  0  0
 27 28  1  0  0  0
 28 29  2  0  0  0
 29 30  1  0  0  0
 30 31  2  0  0  0
 31 32  1  0  0  0
 32 25  1  0  0  0
 25  1  1  0  0  0
  1  2  2  0  0  0
  2  3  1  0  0  0
  3  4  2  0  0  0
  4  5  1  0  0  0
  5  6  2  0  0  0
  6  7  1  0  0  0
  7  8  2  0  0  0
  8  9  1  0  0  0
  9 10  2  0  0  0
  8 11  1  0  0  0
 11 16  1  0  0  0
 16 17  1  0  0  0
 17 18  1  0  0  0
 18 19  1  0  0  0
 19 20  1  0  0  0
 20 21  1  0  0  0
 21 22  1  0  0  0
 22 23  1  0  0  0
 23 24  1  0  0  0
 11 12  1  0  0  0
 12 13  2  0  0  0
 12 14  1  0  0  0
 14 15  2  0  0  0
 32 33  2  0  0  0
 33 28  1  0  0  0
 10  1  1  0  0  0
 24 19  1  0  0  0
 10  5  1  0  0  0
 25 26  1  0  0  0
M  END
> <minimizedAffinity>
-7.62447

> <CNNscore>
0.7275419831

> <CNNaffinity>
7.4320478439

> <CNN_VS>
5.4071269035

> <CNNaffinity_variance>
0.2290381640

$$$$
[H]C([H])=C([H])C(=O)N(c1c([H])c([H])c2nc([H])nc(N([H])c3c([H])c([H])c([H])c(Br)c3[H])c2c1[H])C([H])([H])C([H])([H])C([H])([H])N1C([H])([H])C([H])([H])OC([H])([H])C1([H])[H]


 33 36  0  0  0  0  0  0  0  0999 V2000
   -0.1360  -52.9897  -23.6277 C   0  0  0  0  0  0  0  0  0  0  0  0
   -1.0068  -53.9319  -24.0768 N   0  0  0  0  0  0  0  0  0  0  0  0
   -1.4856  -54.9163  -23.3086 C   0  0  0  0  0  0  0  0  0  0  0  0
   -1.0976  -54.9953  -22.0240 N   0  0  0  0  0  0  0  0  0  0  0  0
   -0.2345  -54.0888  -21.5188 C   0  0  0  0  0  0  0  0  0  0  0  0
    0.1770  -54.1475  -20.2068 C   0  0  0  0  0  0  0  0  0  0  0  0
    1.0553  -53.2252  -19.6892 C   0  0  0  0  0  0  0  0  0  0  0  0
    1.5730  -52.1973  -20.4400 C   0  0  0  0  0  0  0  0  0  0  0  0
    1.1468  -52.1447  -21.7797 C   0  0  0  0  0  0  0  0  0  0  0  0
    0.2716  -53.0543  -22.3169 C   0  0  0  0  0  0  0  0  0  0  0  0
    2.4782  -51.2306  -19.9546 N   0  0  0  0  0  0  0  0  0  0  0  0
    1.9599  -50.2021  -19.1274 C   0  0  0  0  0  0  0  0  0  0  0  0
    2.7569  -49.3154  -18.6960 O   0  0  0  0  0  0  0  0  0  0  0  0
    0.5707  -50.1072  -18.7465 C   0  0  0  0  0  0  0  0  0  0  0  0
    0.2013  -50.3272  -17.5112 C   0  0  0  0  0  0  0  0  0  0  0  0
    3.9032  -51.2357  -20.2559 C   0  0  0  0  0  0  0  0  0  0  0  0
    4.1868  -51.0179  -21.6881 C   0  0  0  0  0  0  0  0  0  0  0  0
    4.5135  -49.6050  -22.0267 C   0  0  0  0  0  0  0  0  0  0  0  0
    3.6683  -48.8608  -22.8552 N   0  0  0  0  0  0  0  0  0  0  0  0
    2.6647  -48.0345  -22.3542 C   0  0  0  0  0  0  0  0  0  0  0  0
    2.6762  -46.6163  -22.9015 C   0  0  0  0  0  0  0  0  0  0  0  0
    3.0171  -46.5575  -24.2340 O   0  0  0  0  0  0  0  0  0  0  0  0
    4.2697  -47.1200  -24.4883 C   0  0  0  0  0  0  0  0  0  0  0  0
    4.1364  -48.6016  -24.1751 C   0  0  0  0  0  0  0  0  0  0  0  0
    0.3779  -51.9914  -24.4839 N   0  0  0  0  0  0  0  0  0  0  0  0
    0.4047  -50.9742  -24.2059 H   0  0  0  0  0  0  0  0  0  0  0  0
   -0.4241  -52.8780  -29.6171 Br  0  0  0  0  0  0  0  0  0  0  0  0
    0.6959  -52.7680  -28.0918 C   0  0  0  0  0  0  0  0  0  0  0  0
    2.0241  -53.0088  -28.2318 C   0  0  0  0  0  0  0  0  0  0  0  0
    2.8175  -52.9209  -27.1036 C   0  0  0  0  0  0  0  0  0  0  0  0
    2.2449  -52.5973  -25.8903 C   0  0  0  0  0  0  0  0  0  0  0  0
    0.8801  -52.3524  -25.7564 C   0  0  0  0  0  0  0  0  0  0  0  0
    0.1017  -52.4367  -26.8607 C   0  0  0  0  0  0  0  0  0  0  0  0
 27 28  1  0  0  0
 28 29  2  0  0  0
 29 30  1  0  0  0
 30 31  2  0  0  0
 31 32  1  0  0  0
 32 25  1  0  0  0
 25  1  1  0  0  0
  1  2  2  0  0  0
  2  3  1  0  0  0
  3  4  2  0  0  0
  4  5  1  0  0  0
  5  6  2  0  0  0
  6  7  1  0  0  0
  7  8  2  0  0  0
  8  9  1  0  0  0
  9 10  2  0  0  0
  8 11  1  0  0  0
 11 16  1  0  0  0
 16 17  1  0  0  0
 17 18  1  0  0  0
 18 19  1  0  0  0
 19 20  1  0  0  0
 20 21  1  0  0  0
 21 22  1  0  0  0
 22 23  1  0  0  0
 23 24  1  0  0  0
 11 12  1  0  0  0
 12 13  2  0  0  0
 12 14  1  0  0  0
 14 15  2  0  0  0
 32 33  2  0  0  0
 33 28  1  0  0  0
 10  1  1  0  0  0
 24 19  1  0  0  0
 10  5  1  0  0  0
 25 26  1  0  0  0
M  END
> <minimizedAffinity>
-7.38402

> <CNNscore>
0.6599746346

> <CNNaffinity>
7.2611455917

> <CNN_VS>
4.7921719551

> <CNNaffinity_variance>
0.1507671773

$$$$
[H]C([H])=C([H])C(=O)N(c1c([H])c([H])c2nc([H])nc(N([H])c3c([H])c([H])c([H])c(Br)c3[H])c2c1[H])C([H])([H])C([H])([H])C([H])([H])N1C([H])([H])C([H])([H])OC([H])([H])C1([H])[H]


 33 36  0  0  0  0  0  0  0  0999 V2000
    0.3937  -53.2890  -22.2085 C   0  0  0  0  0  0  0  0  0  0  0  0
   -0.5934  -54.1733  -22.5110 N   0  0  0  0  0  0  0  0  0  0  0  0
   -1.5287  -54.5587  -21.6364 C   0  0  0  0  0  0  0  0  0  0  0  0
   -1.5087  -54.0574  -20.3893 N   0  0  0  0  0  0  0  0  0  0  0  0
   -0.5537  -53.1747  -20.0279 C   0  0  0  0  0  0  0  0  0  0  0  0
   -0.5124  -52.6465  -18.7578 C   0  0  0  0  0  0  0  0  0  0  0  0
    0.4586  -51.7467  -18.3869 C   0  0  0  0  0  0  0  0  0  0  0  0
    1.4393  -51.3219  -19.2509 C   0  0  0  0  0  0  0  0  0  0  0  0
    1.3893  -51.8666  -20.5470 C   0  0  0  0  0  0  0  0  0  0  0  0
    0.4298  -52.7657  -20.9383 C   0  0  0  0  0  0  0  0  0  0  0  0
    2.4568  -50.4044  -18.9156 N   0  0  0  0  0  0  0  0  0  0  0  0
    2.3663  -49.0966  -19.4562 C   0  0  0  0  0  0  0  0  0  0  0  0
    3.2814  -48.2641  -19.1785 O   0  0  0  0  0  0  0  0  0  0  0  0
    1.2869  -48.6573  -20.3080 C   0  0  0  0  0  0  0  0  0  0  0  0
    1.5241  -48.2471  -21.5273 C   0  0  0  0  0  0  0  0  0  0  0  0
    3.5831  -50.7283  -18.0506 C   0  0  0  0  0  0  0  0  0  0  0  0
    3.2033  -50.8240  -16.6273 C   0  0  0  0  0  0  0  0  0  0  0  0
    3.4051  -49.5599  -15.8664 C   0  0  0  0  0  0  0  0  0  0  0  0
    2.3096  -48.8563  -15.3571 N   0  0  0  0  0  0  0  0  0  0  0  0
    1.6781  -49.2113  -14.1671 C   0  0  0  0  0  0  0  0  0  0  0  0
    1.5021  -48.0721  -13.1761 C   0  0  0  0  0  0  0  0  0  0  0  0
    1.2053  -46.8728  -13.7833 O   0  0  0  0  0  0  0  0  0  0  0  0
    2.1816  -46.4865  -14.7041 C   0  0  0  0  0  0  0  0  0  0  0  0
    2.1405  -47.5195  -15.8185 C   0  0  0  0  0  0  0  0  0  0  0  0
    1.3871  -52.9407  -23.1496 N   0  0  0  0  0  0  0  0  0  0  0  0
    2.4076  -52.8785  -22.8902 H   0  0  0  0  0  0  0  0  0  0  0  0
    2.0147  -53.7836  -28.3144 Br  0  0  0  0  0  0  0  0  0  0  0  0
    1.1550  -52.9472  -26.8465 C   0  0  0  0  0  0  0  0  0  0  0  0
    0.1319  -52.0882  -27.0853 C   0  0  0  0  0  0  0  0  0  0  0  0
   -0.4774  -51.4933  -25.9968 C   0  0  0  0  0  0  0  0  0  0  0  0
   -0.0344  -51.7852  -24.7228 C   0  0  0  0  0  0  0  0  0  0  0  0
    1.0173  -52.6680  -24.4878 C   0  0  0  0  0  0  0  0  0  0  0  0
    1.6144  -53.2528  -25.5527 C   0  0  0  0  0  0  0  0  0  0  0  0
 27 28  1  0  0  0
 28 29  2  0  0  0
 29 30  1  0  0  0
 30 31  2  0  0  0
 31 32  1  0  0  0
 32 25  1  0  0  0
 25  1  1  0  0  0
  1  2  2  0  0  0
  2  3  1  0  0  0
  3  4  2  0  0  0
  4  5  1  0  0  0
  5  6  2  0  0  0
  6  7  1  0  0  0
  7  8  2  0  0  0
  8  9  1  0  0  0
  9 10  2  0  0  0
  8 11  1  0  0  0
 11 16  1  0  0  0
 16 17  1  0  0  0
 17 18  1  0  0  0
 18 19  1  0  0  0
 19 20  1  0  0  0
 20 21  1  0  0  0
 21 22  1  0  0  0
 22 23  1  0  0  0
 23 24  1  0  0  0
 11 12  1  0  0  0
 12 13  2  0  0  0
 12 14  1  0  0  0
 14 15  2  0  0  0
 32 33  2  0  0  0
 33 28  1  0  0  0
 10  1  1  0  0  0
 24 19  1  0  0  0
 10  5  1  0  0  0
 25 26  1  0  0  0
M  END
> <minimizedAffinity>
-6.75680

> <CNNscore>
0.6440712810

> <CNNaffinity>
7.0162367821

> <CNN_VS>
4.5189566612

> <CNNaffinity_variance>
0.2371084690

$$$$
[H]C([H])=C([H])C(=O)N(c1c([H])c([H])c2nc([H])nc(N([H])c3c([H])c([H])c([H])c(Br)c3[H])c2c1[H])C([H])([H])C([H])([H])C([H])([H])N1C([H])([H])C([H])([H])OC([H])([H])C1([H])[H]


 33 36  0  0  0  0  0  0  0  0999 V2000
   -0.4793  -53.0202  -23.6725 C   0  0  0  0  0  0  0  0  0  0  0  0
   -1.1693  -54.1570  -23.9551 N   0  0  0  0  0  0  0  0  0  0  0  0
   -1.3621  -55.1395  -23.0686 C   0  0  0  0  0  0  0  0  0  0  0  0
   -0.8556  -55.0156  -21.8297 N   0  0  0  0  0  0  0  0  0  0  0  0
   -0.1608  -53.9100  -21.4880 C   0  0  0  0  0  0  0  0  0  0  0  0
    0.3668  -53.7590  -20.2259 C   0  0  0  0  0  0  0  0  0  0  0  0
    1.0742  -52.6337  -19.8746 C   0  0  0  0  0  0  0  0  0  0  0  0
    1.2974  -51.5992  -20.7512 C   0  0  0  0  0  0  0  0  0  0  0  0
    0.7544  -51.7618  -22.0388 C   0  0  0  0  0  0  0  0  0  0  0  0
    0.0456  -52.8760  -22.4108 C   0  0  0  0  0  0  0  0  0  0  0  0
    2.0189  -50.4283  -20.4382 N   0  0  0  0  0  0  0  0  0  0  0  0
    3.4023  -50.4063  -20.7489 C   0  0  0  0  0  0  0  0  0  0  0  0
    4.0695  -49.3679  -20.4589 O   0  0  0  0  0  0  0  0  0  0  0  0
    4.0969  -51.5034  -21.3796 C   0  0  0  0  0  0  0  0  0  0  0  0
    4.5774  -51.3808  -22.5899 C   0  0  0  0  0  0  0  0  0  0  0  0
    1.4213  -49.2529  -19.8195 C   0  0  0  0  0  0  0  0  0  0  0  0
    1.6810  -49.1747  -18.3684 C   0  0  0  0  0  0  0  0  0  0  0  0
    0.5678  -49.7007  -17.5307 C   0  0  0  0  0  0  0  0  0  0  0  0
    0.3905  -49.2461  -16.2205 N   0  0  0  0  0  0  0  0  0  0  0  0
   -0.8261  -48.7498  -15.7574 C   0  0  0  0  0  0  0  0  0  0  0  0
   -1.3170  -49.3763  -14.4623 C   0  0  0  0  0  0  0  0  0  0  0  0
   -0.2987  -49.6441  -13.5753 O   0  0  0  0  0  0  0  0  0  0  0  0
    0.6690  -50.4931  -14.1166 C   0  0  0  0  0  0  0  0  0  0  0  0
    1.3205  -49.7185  -15.2508 C   0  0  0  0  0  0  0  0  0  0  0  0
   -0.2628  -52.0255  -24.6510 N   0  0  0  0  0  0  0  0  0  0  0  0
   -0.0578  -51.0229  -24.3950 H   0  0  0  0  0  0  0  0  0  0  0  0
    2.0702  -53.9910  -28.9491 Br  0  0  0  0  0  0  0  0  0  0  0  0
    0.5789  -53.2486  -28.0446 C   0  0  0  0  0  0  0  0  0  0  0  0
   -0.5833  -53.0756  -28.7236 C   0  0  0  0  0  0  0  0  0  0  0  0
   -1.6547  -52.5332  -28.0396 C   0  0  0  0  0  0  0  0  0  0  0  0
   -1.5125  -52.1896  -26.7106 C   0  0  0  0  0  0  0  0  0  0  0  0
   -0.3151  -52.3705  -26.0221 C   0  0  0  0  0  0  0  0  0  0  0  0
    0.7350  -52.9030  -26.6902 C   0  0  0  0  0  0  0  0  0  0  0  0
 27 28  1  0  0  0
 28 29  2  0  0  0
 29 30  1  0  0  0
 30 31  2  0  0  0
 31 32  1  0  0  0
 32 25  1  0  0  0
 25  1  1  0  0  0
  1  2  2  0  0  0
  2  3  1  0  0  0
  3  4  2  0  0  0
  4  5  1  0  0  0
  5  6  2  0  0  0
  6  7  1  0  0  0
  7  8  2  0  0  0
  8  9  1  0  0  0
  9 10  2  0  0  0
  8 11  1  0  0  0
 11 16  1  0  0  0
 16 17  1  0  0  0
 17 18  1  0  0  0
 18 19  1  0  0  0
 19 20  1  0  0  0
 20 21  1  0  0  0
 21 22  1  0  0  0
 22 23  1  0  0  0
 23 24  1  0  0  0
 11 12  1  0  0  0
 12 13  2  0  0  0
 12 14  1  0  0  0
 14 15  2  0  0  0
 32 33  2  0  0  0
 33 28  1  0  0  0
 10  1  1  0  0  0
 24 19  1  0  0  0
 10  5  1  0  0  0
 25 26  1  0  0  0
M  END
> <minimizedAffinity>
-7.37773

> <CNNscore>
0.6276562214

> <CNNaffinity>
7.2026238441

> <CNN_VS>
4.5207715034

> <CNNaffinity_variance>
0.1364947259

$$$$
[H]C([H])=C([H])C(=O)N(c1c([H])c([H])c2nc([H])nc(N([H])c3c([H])c([H])c([H])c(Br)c3[H])c2c1[H])C([H])([H])C([H])([H])C([H])([H])N1C([H])([H])C([H])([H])OC([H])([H])C1([H])[H]


 33 36  0  0  0  0  0  0  0  0999 V2000
    0.1602  -53.6792  -21.2019 C   0  0  0  0  0  0  0  0  0  0  0  0
   -0.8155  -54.6182  -21.3215 N   0  0  0  0  0  0  0  0  0  0  0  0
   -1.5152  -54.8124  -22.4444 C   0  0  0  0  0  0  0  0  0  0  0  0
   -1.2556  -54.0502  -23.5207 N   0  0  0  0  0  0  0  0  0  0  0  0
   -0.2980  -53.1005  -23.4647 C   0  0  0  0  0  0  0  0  0  0  0  0
   -0.0128  -52.3081  -24.5532 C   0  0  0  0  0  0  0  0  0  0  0  0
    0.9625  -51.3406  -24.4995 C   0  0  0  0  0  0  0  0  0  0  0  0
    1.7065  -51.1052  -23.3684 C   0  0  0  0  0  0  0  0  0  0  0  0
    1.4085  -51.9198  -22.2608 C   0  0  0  0  0  0  0  0  0  0  0  0
    0.4397  -52.8907  -22.2921 C   0  0  0  0  0  0  0  0  0  0  0  0
    2.7136  -50.1232  -23.2646 N   0  0  0  0  0  0  0  0  0  0  0  0
    4.0213  -50.4764  -23.6841 C   0  0  0  0  0  0  0  0  0  0  0  0
    4.9423  -49.6110  -23.5821 O   0  0  0  0  0  0  0  0  0  0  0  0
    4.3649  -51.7706  -24.2234 C   0  0  0  0  0  0  0  0  0  0  0  0
    5.1792  -52.5665  -23.5797 C   0  0  0  0  0  0  0  0  0  0  0  0
    2.4810  -48.7787  -22.7548 C   0  0  0  0  0  0  0  0  0  0  0  0
    2.0915  -48.7653  -21.3309 C   0  0  0  0  0  0  0  0  0  0  0  0
    3.1675  -49.2266  -20.4105 C   0  0  0  0  0  0  0  0  0  0  0  0
    4.0375  -48.3059  -19.8190 N   0  0  0  0  0  0  0  0  0  0  0  0
    5.1423  -47.7824  -20.4871 C   0  0  0  0  0  0  0  0  0  0  0  0
    5.2420  -46.2657  -20.4601 C   0  0  0  0  0  0  0  0  0  0  0  0
    4.8396  -45.7221  -19.2610 O   0  0  0  0  0  0  0  0  0  0  0  0
    3.5261  -46.0664  -18.9346 C   0  0  0  0  0  0  0  0  0  0  0  0
    3.5291  -47.5699  -18.7107 C   0  0  0  0  0  0  0  0  0  0  0  0
    0.8466  -53.4786  -19.9843 N   0  0  0  0  0  0  0  0  0  0  0  0
    1.8247  -53.8406  -19.8263 H   0  0  0  0  0  0  0  0  0  0  0  0
    0.6036  -49.2514  -16.8457 Br  0  0  0  0  0  0  0  0  0  0  0  0
   -0.0499  -50.9221  -17.4582 C   0  0  0  0  0  0  0  0  0  0  0  0
   -1.1747  -51.4343  -16.8978 C   0  0  0  0  0  0  0  0  0  0  0  0
   -1.6293  -52.6533  -17.3639 C   0  0  0  0  0  0  0  0  0  0  0  0
   -0.9376  -53.3014  -18.3669 C   0  0  0  0  0  0  0  0  0  0  0  0
    0.2168  -52.7678  -18.9356 C   0  0  0  0  0  0  0  0  0  0  0  0
    0.6627  -51.5732  -18.4812 C   0  0  0  0  0  0  0  0  0  0  0  0
 27 28  1  0  0  0
 28 29  2  0  0  0
 29 30  1  0  0  0
 30 31  2  0  0  0
 31 32  1  0  0  0
 32 25  1  0  0  0
 25  1  1  0  0  0
  1  2  2  0  0  0
  2  3  1  0  0  0
  3  4  2  0  0  0
  4  5  1  0  0  0
  5  6  2  0  0  0
  6  7  1  0  0  0
  7  8  2  0  0  0
  8  9  1  0  0  0
  9 10  2  0  0  0
  8 11  1  0  0  0
 11 16  1  0  0  0
 16 17  1  0  0  0
 17 18  1  0  0  0
 18 19  1  0  0  0
 19 20  1  0  0  0
 20 21  1  0  0  0
 21 22  1  0  0  0
 22 23  1  0  0  0
 23 24  1  0  0  0
 11 12  1  0  0  0
 12 13  2  0  0  0
 12 14  1  0  0  0
 14 15  2  0  0  0
 32 33  2  0  0  0
 33 28  1  0  0  0
 10  1  1  0  0  0
 24 19  1  0  0  0
 10  5  1  0  0  0
 25 26  1  0  0  0
M  END
> <minimizedAffinity>
-6.27952

> <CNNscore>
0.6086454988

> <CNNaffinity>
6.9905114174

> <CNN_VS>
4.2547430992

> <CNNaffinity_variance>
0.1096584648

$$$$
[H]C([H])=C([H])C(=O)N(c1c([H])c([H])c2nc([H])nc(N([H])c3c([H])c([H])c([H])c(Br)c3[H])c2c1[H])C([H])([H])C([H])([H])C([H])([H])N1C([H])([H])C([H])([H])OC([H])([H])C1([H])[H]


 33 36  0  0  0  0  0  0  0  0999 V2000
   -0.1807  -52.8683  -23.4703 C   0  0  0  0  0  0  0  0  0  0  0  0
   -0.8750  -53.9788  -23.8344 N   0  0  0  0  0  0  0  0  0  0  0  0
   -1.1979  -54.9567  -22.9812 C   0  0  0  0  0  0  0  0  0  0  0  0
   -0.8257  -54.8549  -21.6936 N   0  0  0  0  0  0  0  0  0  0  0  0
   -0.1341  -53.7758  -21.2704 C   0  0  0  0  0  0  0  0  0  0  0  0
    0.2574  -53.6478  -19.9572 C   0  0  0  0  0  0  0  0  0  0  0  0
    0.9612  -52.5496  -19.5229 C   0  0  0  0  0  0  0  0  0  0  0  0
    1.3150  -51.5208  -20.3626 C   0  0  0  0  0  0  0  0  0  0  0  0
    0.9105  -51.6598  -21.7028 C   0  0  0  0  0  0  0  0  0  0  0  0
    0.2080  -52.7469  -22.1578 C   0  0  0  0  0  0  0  0  0  0  0  0
    2.0385  -50.3774  -19.9644 N   0  0  0  0  0  0  0  0  0  0  0  0
    3.4441  -50.3916  -20.1507 C   0  0  0  0  0  0  0  0  0  0  0  0
    4.1120  -49.3785  -19.7829 O   0  0  0  0  0  0  0  0  0  0  0  0
    4.1609  -51.4984  -20.7382 C   0  0  0  0  0  0  0  0  0  0  0  0
    4.9072  -51.3224  -21.7979 C   0  0  0  0  0  0  0  0  0  0  0  0
    1.4216  -49.1950  -19.3788 C   0  0  0  0  0  0  0  0  0  0  0  0
    0.8422  -49.4519  -18.0455 C   0  0  0  0  0  0  0  0  0  0  0  0
    1.8503  -49.4866  -16.9500 C   0  0  0  0  0  0  0  0  0  0  0  0
    2.2027  -50.6986  -16.3488 N   0  0  0  0  0  0  0  0  0  0  0  0
    3.5266  -51.1092  -16.2092 C   0  0  0  0  0  0  0  0  0  0  0  0
    3.9153  -51.5354  -14.8027 C   0  0  0  0  0  0  0  0  0  0  0  0
    2.9104  -52.2129  -14.1496 O   0  0  0  0  0  0  0  0  0  0  0  0
    1.7364  -51.4626  -14.0558 C   0  0  0  0  0  0  0  0  0  0  0  0
    1.2371  -51.2836  -15.4804 C   0  0  0  0  0  0  0  0  0  0  0  0
    0.1762  -51.8787  -24.4122 N   0  0  0  0  0  0  0  0  0  0  0  0
    0.0373  -50.8501  -24.2242 H   0  0  0  0  0  0  0  0  0  0  0  0
   -0.3686  -52.9004  -29.5540 Br  0  0  0  0  0  0  0  0  0  0  0  0
    0.6758  -52.7384  -27.9804 C   0  0  0  0  0  0  0  0  0  0  0  0
    2.0120  -52.9647  -28.0512 C   0  0  0  0  0  0  0  0  0  0  0  0
    2.7494  -52.8387  -26.8891 C   0  0  0  0  0  0  0  0  0  0  0  0
    2.1156  -52.4935  -25.7128 C   0  0  0  0  0  0  0  0  0  0  0  0
    0.7430  -52.2638  -25.6500 C   0  0  0  0  0  0  0  0  0  0  0  0
    0.0194  -52.3853  -26.7876 C   0  0  0  0  0  0  0  0  0  0  0  0
 27 28  1  0  0  0
 28 29  2  0  0  0
 29 30  1  0  0  0
 30 31  2  0  0  0
 31 32  1  0  0  0
 32 25  1  0  0  0
 25  1  1  0  0  0
  1  2  2  0  0  0
  2  3  1  0  0  0
  3  4  2  0  0  0
  4  5  1  0  0  0
  5  6  2  0  0  0
  6  7  1  0  0  0
  7  8  2  0  0  0
  8  9  1  0  0  0
  9 10  2  0  0  0
  8 11  1  0  0  0
 11 16  1  0  0  0
 16 17  1  0  0  0
 17 18  1  0  0  0
 18 19  1  0  0  0
 19 20  1  0  0  0
 20 21  1  0  0  0
 21 22  1  0  0  0
 22 23  1  0  0  0
 23 24  1  0  0  0
 11 12  1  0  0  0
 12 13  2  0  0  0
 12 14  1  0  0  0
 14 15  2  0  0  0
 32 33  2  0  0  0
 33 28  1  0  0  0
 10  1  1  0  0  0
 24 19  1  0  0  0
 10  5  1  0  0  0
 25 26  1  0  0  0
M  END
> <minimizedAffinity>
-7.69633

> <CNNscore>
0.6019355655

> <CNNaffinity>
7.0471296310

> <CNN_VS>
4.2419180870

> <CNNaffinity_variance>
0.0826996639

$$$$
[H]C([H])=C([H])C(=O)N(c1c([H])c([H])c2nc([H])nc(N([H])c3c([H])c([H])c([H])c(Br)c3[H])c2c1[H])C([H])([H])C([H])([H])C([H])([H])N1C([H])([H])C([H])([H])OC([H])([H])C1([H])[H]


 33 36  0  0  0  0  0  0  0  0999 V2000
   -0.0019  -52.8823  -22.9455 C   0  0  0  0  0  0  0  0  0  0  0  0
   -0.6981  -54.0239  -23.1909 N   0  0  0  0  0  0  0  0  0  0  0  0
   -1.2852  -54.7475  -22.2318 C   0  0  0  0  0  0  0  0  0  0  0  0
   -1.1935  -54.3421  -20.9535 N   0  0  0  0  0  0  0  0  0  0  0  0
   -0.5157  -53.2162  -20.6456 C   0  0  0  0  0  0  0  0  0  0  0  0
   -0.4084  -52.7797  -19.3448 C   0  0  0  0  0  0  0  0  0  0  0  0
    0.2806  -51.6330  -19.0281 C   0  0  0  0  0  0  0  0  0  0  0  0
    0.8994  -50.8578  -19.9792 C   0  0  0  0  0  0  0  0  0  0  0  0
    0.7844  -51.3112  -21.3060 C   0  0  0  0  0  0  0  0  0  0  0  0
    0.1022  -52.4523  -21.6445 C   0  0  0  0  0  0  0  0  0  0  0  0
    1.6195  -49.6769  -19.7026 N   0  0  0  0  0  0  0  0  0  0  0  0
    2.6519  -49.7489  -18.7332 C   0  0  0  0  0  0  0  0  0  0  0  0
    3.2982  -48.6928  -18.4603 O   0  0  0  0  0  0  0  0  0  0  0  0
    3.0107  -50.9614  -18.0369 C   0  0  0  0  0  0  0  0  0  0  0  0
    3.5048  -50.9143  -16.8267 C   0  0  0  0  0  0  0  0  0  0  0  0
    1.3599  -48.4012  -20.3558 C   0  0  0  0  0  0  0  0  0  0  0  0
    1.8309  -48.3675  -21.7546 C   0  0  0  0  0  0  0  0  0  0  0  0
    3.3071  -48.2230  -21.8871 C   0  0  0  0  0  0  0  0  0  0  0  0
    3.8531  -47.1585  -22.6104 N   0  0  0  0  0  0  0  0  0  0  0  0
    5.0686  -47.2553  -23.2843 C   0  0  0  0  0  0  0  0  0  0  0  0
    5.0267  -46.8136  -24.7383 C   0  0  0  0  0  0  0  0  0  0  0  0
    4.2073  -45.7270  -24.9462 O   0  0  0  0  0  0  0  0  0  0  0  0
    2.8934  -45.9653  -24.5376 C   0  0  0  0  0  0  0  0  0  0  0  0
    2.9479  -46.1415  -23.0287 C   0  0  0  0  0  0  0  0  0  0  0  0
    0.6386  -52.1706  -23.9833 N   0  0  0  0  0  0  0  0  0  0  0  0
    1.4014  -51.4674  -23.7926 H   0  0  0  0  0  0  0  0  0  0  0  0
    1.7688  -54.0203  -28.7875 Br  0  0  0  0  0  0  0  0  0  0  0  0
    0.5979  -53.2038  -27.5402 C   0  0  0  0  0  0  0  0  0  0  0  0
   -0.6534  -52.8616  -27.9387 C   0  0  0  0  0  0  0  0  0  0  0  0
   -1.4863  -52.2687  -27.0087 C   0  0  0  0  0  0  0  0  0  0  0  0
   -1.0281  -52.0461  -25.7261 C   0  0  0  0  0  0  0  0  0  0  0  0
    0.2585  -52.4004  -25.3266 C   0  0  0  0  0  0  0  0  0  0  0  0
    1.0753  -52.9826  -26.2358 C   0  0  0  0  0  0  0  0  0  0  0  0
 27 28  1  0  0  0
 28 29  2  0  0  0
 29 30  1  0  0  0
 30 31  2  0  0  0
 31 32  1  0  0  0
 32 25  1  0  0  0
 25  1  1  0  0  0
  1  2  2  0  0  0
  2  3  1  0  0  0
  3  4  2  0  0  0
  4  5  1  0  0  0
  5  6  2  0  0  0
  6  7  1  0  0  0
  7  8  2  0  0  0
  8  9  1  0  0  0
  9 10  2  0  0  0
  8 11  1  0  0  0
 11 16  1  0  0  0
 16 17  1  0  0  0
 17 18  1  0  0  0
 18 19  1  0  0  0
 19 20  1  0  0  0
 20 21  1  0  0  0
 21 22  1  0  0  0
 22 23  1  0  0  0
 23 24  1  0  0  0
 11 12  1  0  0  0
 12 13  2  0  0  0
 12 14  1  0  0  0
 14 15  2  0  0  0
 32 33  2  0  0  0
 33 28  1  0  0  0
 10  1  1  0  0  0
 24 19  1  0  0  0
 10  5  1  0  0  0
 25 26  1  0  0  0
M  END
> <minimizedAffinity>
-7.26037

> <CNNscore>
0.5848863721

> <CNNaffinity>
7.2057633400

> <CNN_VS>
4.2145528793

> <CNNaffinity_variance>
0.1623287499

$$$$
[H]c1nc(N([H])c2c([H])c([H])c([H])c(Br)c2[H])c2c([H])c([H])c(N([H])C(=O)C([H])([H])[H])c([H])c2n1


 24 26  0  0  0  0  0  0  0  0999 V2000
    0.0783  -51.7977  -19.0005 C   0  0  0  0  0  0  0  0  0  0  0  0
    0.4410  -50.8496  -19.9323 C   0  0  0  0  0  0  0  0  0  0  0  0
    0.3411  -51.1512  -21.3013 C   0  0  0  0  0  0  0  0  0  0  0  0
   -0.1095  -52.3688  -21.7235 C   0  0  0  0  0  0  0  0  0  0  0  0
   -0.2162  -52.6853  -23.0675 C   0  0  0  0  0  0  0  0  0  0  0  0
   -0.6688  -53.9035  -23.4548 N   0  0  0  0  0  0  0  0  0  0  0  0
   -1.0222  -54.8277  -22.5576 C   0  0  0  0  0  0  0  0  0  0  0  0
   -0.9264  -54.5416  -21.2420 N   0  0  0  0  0  0  0  0  0  0  0  0
   -0.4858  -53.3537  -20.7993 C   0  0  0  0  0  0  0  0  0  0  0  0
   -0.3798  -53.0366  -19.4736 C   0  0  0  0  0  0  0  0  0  0  0  0
   -0.5480  -51.5923  -15.1834 C   0  0  0  0  0  0  0  0  0  0  0  0
   -0.8171  -51.8949  -16.6365 C   0  0  0  0  0  0  0  0  0  0  0  0
   -1.9172  -52.4099  -16.8750 O   0  0  0  0  0  0  0  0  0  0  0  0
    0.1297  -51.5993  -17.5960 N   0  0  0  0  0  0  0  0  0  0  0  0
    1.0335  -51.1525  -17.2303 H   0  0  0  0  0  0  0  0  0  0  0  0
    0.1769  -51.7606  -24.0333 N   0  0  0  0  0  0  0  0  0  0  0  0
    0.1711  -50.7171  -23.8971 H   0  0  0  0  0  0  0  0  0  0  0  0
    0.6258  -52.1582  -25.3145 C   0  0  0  0  0  0  0  0  0  0  0  0
    1.9886  -52.4530  -25.4672 C   0  0  0  0  0  0  0  0  0  0  0  0
    2.5566  -52.8164  -26.6544 C   0  0  0  0  0  0  0  0  0  0  0  0
    1.7369  -52.8953  -27.7598 C   0  0  0  0  0  0  0  0  0  0  0  0
    0.3831  -52.6117  -27.6540 C   0  0  0  0  0  0  0  0  0  0  0  0
   -0.6773  -52.7451  -29.2311 Br  0  0  0  0  0  0  0  0  0  0  0  0
   -0.1736  -52.2400  -26.4199 C   0  0  0  0  0  0  0  0  0  0  0  0
 11 12  1  0  0  0
 12 13  2  0  0  0
 12 14  1  0  0  0
 14  1  1  0  0  0
  1  2  2  0  0  0
  2  3  1  0  0  0
  3  4  2  0  0  0
  4  5  1  0  0  0
  5 16  1  0  0  0
 16 18  1  0  0  0
 18 19  2  0  0  0
 19 20  1  0  0  0
 20 21  2  0  0  0
 21 22  1  0  0  0
 22 23  1  0  0  0
 22 24  2  0  0  0
  5  6  2  0  0  0
  6  7  1  0  0  0
  7  8  2  0  0  0
  8  9  1  0  0  0
  9 10  2  0  0  0
 10  1  1  0  0  0
  9  4  1  0  0  0
 24 18  1  0  0  0
 14 15  1  0  0  0
 16 17  1  0  0  0
M  END
> <minimizedAffinity>
-8.02810

> <CNNscore>
0.7898077369

> <CNNaffinity>
6.3836188316

> <CNN_VS>
5.0418314934

> <CNNaffinity_variance>
0.1395398825

$$$$
[H]c1nc(N([H])c2c([H])c([H])c([H])c(Br)c2[H])c2c([H])c([H])c(N([H])C(=O)C([H])([H])[H])c([H])c2n1


 24 26  0  0  0  0  0  0  0  0999 V2000
    0.0188  -51.6298  -19.0221 C   0  0  0  0  0  0  0  0  0  0  0  0
    0.3994  -50.7060  -19.9710 C   0  0  0  0  0  0  0  0  0  0  0  0
    0.3294  -51.0443  -21.3332 C   0  0  0  0  0  0  0  0  0  0  0  0
   -0.1094  -52.2739  -21.7322 C   0  0  0  0  0  0  0  0  0  0  0  0
   -0.1866  -52.6265  -23.0693 C   0  0  0  0  0  0  0  0  0  0  0  0
   -0.6281  -53.8558  -23.4334 N   0  0  0  0  0  0  0  0  0  0  0  0
   -0.9987  -54.7567  -22.5195 C   0  0  0  0  0  0  0  0  0  0  0  0
   -0.9318  -54.4353  -21.2104 N   0  0  0  0  0  0  0  0  0  0  0  0
   -0.5033  -53.2348  -20.7903 C   0  0  0  0  0  0  0  0  0  0  0  0
   -0.4264  -52.8821  -19.4716 C   0  0  0  0  0  0  0  0  0  0  0  0
    0.8879  -50.8296  -15.3331 C   0  0  0  0  0  0  0  0  0  0  0  0
    1.0958  -51.0261  -16.8142 C   0  0  0  0  0  0  0  0  0  0  0  0
    2.2508  -50.8348  -17.2165 O   0  0  0  0  0  0  0  0  0  0  0  0
    0.0396  -51.3938  -17.6227 N   0  0  0  0  0  0  0  0  0  0  0  0
   -0.9005  -51.5236  -17.1232 H   0  0  0  0  0  0  0  0  0  0  0  0
    0.2252  -51.7268  -24.0509 N   0  0  0  0  0  0  0  0  0  0  0  0
    0.2411  -50.6813  -23.9326 H   0  0  0  0  0  0  0  0  0  0  0  0
    0.6652  -52.1557  -25.3251 C   0  0  0  0  0  0  0  0  0  0  0  0
    2.0182  -52.4969  -25.4687 C   0  0  0  0  0  0  0  0  0  0  0  0
    2.5780  -52.8941  -26.6489 C   0  0  0  0  0  0  0  0  0  0  0  0
    1.7599  -52.9605  -27.7564 C   0  0  0  0  0  0  0  0  0  0  0  0
    0.4157  -52.6314  -27.6595 C   0  0  0  0  0  0  0  0  0  0  0  0
   -0.6431  -52.7507  -29.2387 Br  0  0  0  0  0  0  0  0  0  0  0  0
   -0.1327  -52.2256  -26.4324 C   0  0  0  0  0  0  0  0  0  0  0  0
 11 12  1  0  0  0
 12 13  2  0  0  0
 12 14  1  0  0  0
 14  1  1  0  0  0
  1  2  2  0  0  0
  2  3  1  0  0  0
  3  4  2  0  0  0
  4  5  1  0  0  0
  5 16  1  0  0  0
 16 18  1  0  0  0
 18 19  2  0  0  0
 19 20  1  0  0  0
 20 21  2  0  0  0
 21 22  1  0  0  0
 22 23  1  0  0  0
 22 24  2  0  0  0
  5  6  2  0  0  0
  6  7  1  0  0  0
  7  8  2  0  0  0
  8  9  1  0  0  0
  9 10  2  0  0  0
 10  1  1  0  0  0
  9  4  1  0  0  0
 24 18  1  0  0  0
 14 15  1  0  0  0
 16 17  1  0  0  0
M  END
> <minimizedAffinity>
-7.65513

> <CNNscore>
0.7844597101

> <CNNaffinity>
6.3996953964

> <CNN_VS>
5.0203032494

> <CNNaffinity_variance>
0.1664749682

$$$$
[H]c1nc(N([H])c2c([H])c([H])c([H])c(Br)c2[H])c2c([H])c([H])c(N([H])C(=O)C([H])([H])[H])c([H])c2n1


 24 26  0  0  0  0  0  0  0  0999 V2000
    1.5431  -51.9544  -20.3622 C   0  0  0  0  0  0  0  0  0  0  0  0
    2.2760  -51.6406  -21.4862 C   0  0  0  0  0  0  0  0  0  0  0  0
    1.9277  -52.2131  -22.7214 C   0  0  0  0  0  0  0  0  0  0  0  0
    0.8748  -53.0757  -22.8264 C   0  0  0  0  0  0  0  0  0  0  0  0
    0.5148  -53.6498  -24.0342 C   0  0  0  0  0  0  0  0  0  0  0  0
   -0.5374  -54.5022  -24.1057 N   0  0  0  0  0  0  0  0  0  0  0  0
   -1.2524  -54.8113  -23.0207 C   0  0  0  0  0  0  0  0  0  0  0  0
   -0.9199  -54.2640  -21.8326 N   0  0  0  0  0  0  0  0  0  0  0  0
    0.1106  -53.4143  -21.7007 C   0  0  0  0  0  0  0  0  0  0  0  0
    0.4688  -52.8445  -20.5106 C   0  0  0  0  0  0  0  0  0  0  0  0
    1.8441  -49.8469  -17.1262 C   0  0  0  0  0  0  0  0  0  0  0  0
    1.4651  -50.1979  -18.5434 C   0  0  0  0  0  0  0  0  0  0  0  0
    0.8543  -49.3164  -19.1617 O   0  0  0  0  0  0  0  0  0  0  0  0
    1.7989  -51.4297  -19.0685 N   0  0  0  0  0  0  0  0  0  0  0  0
    2.3310  -52.0847  -18.4066 H   0  0  0  0  0  0  0  0  0  0  0  0
    1.2586  -53.3802  -25.1816 N   0  0  0  0  0  0  0  0  0  0  0  0
    2.3061  -53.2820  -25.2039 H   0  0  0  0  0  0  0  0  0  0  0  0
    0.6503  -53.2076  -26.4471 C   0  0  0  0  0  0  0  0  0  0  0  0
    1.4731  -53.2682  -27.5815 C   0  0  0  0  0  0  0  0  0  0  0  0
    1.0197  -53.0867  -28.8565 C   0  0  0  0  0  0  0  0  0  0  0  0
   -0.3235  -52.8299  -29.0290 C   0  0  0  0  0  0  0  0  0  0  0  0
   -1.1733  -52.7607  -27.9346 C   0  0  0  0  0  0  0  0  0  0  0  0
   -3.0151  -52.4013  -28.2627 Br  0  0  0  0  0  0  0  0  0  0  0  0
   -0.6789  -52.9512  -26.6344 C   0  0  0  0  0  0  0  0  0  0  0  0
 11 12  1  0  0  0
 12 13  2  0  0  0
 12 14  1  0  0  0
 14  1  1  0  0  0
  1  2  2  0  0  0
  2  3  1  0  0  0
  3  4  2  0  0  0
  4  5  1  0  0  0
  5 16  1  0  0  0
 16 18  1  0  0  0
 18 19  2  0  0  0
 19 20  1  0  0  0
 20 21  2  0  0  0
 21 22  1  0  0  0
 22 23  1  0  0  0
 22 24  2  0  0  0
  5  6  2  0  0  0
  6  7  1  0  0  0
  7  8  2  0  0  0
  8  9  1  0  0  0
  9 10  2  0  0  0
 10  1  1  0  0  0
  9  4  1  0  0  0
 24 18  1  0  0  0
 14 15  1  0  0  0
 16 17  1  0  0  0
M  END
> <minimizedAffinity>
-6.59208

> <CNNscore>
0.7108938098

> <CNNaffinity>
6.5698952675

> <CNN_VS>
4.6704978943

> <CNNaffinity_variance>
0.2977942526

$$$$
[H]c1nc(N([H])c2c([H])c([H])c([H])c(Br)c2[H])c2c([H])c([H])c(N([H])C(=O)C([H])([H])[H])c([H])c2n1


 24 26  0  0  0  0  0  0  0  0999 V2000
   -0.1400  -52.1576  -19.7183 C   0  0  0  0  0  0  0  0  0  0  0  0
    0.1891  -51.2303  -20.6830 C   0  0  0  0  0  0  0  0  0  0  0  0
    0.0443  -51.5631  -22.0406 C   0  0  0  0  0  0  0  0  0  0  0  0
   -0.4170  -52.7907  -22.4199 C   0  0  0  0  0  0  0  0  0  0  0  0
   -0.5677  -53.1379  -23.7521 C   0  0  0  0  0  0  0  0  0  0  0  0
   -1.0299  -54.3654  -24.0964 N   0  0  0  0  0  0  0  0  0  0  0  0
   -1.3509  -55.2695  -23.1671 C   0  0  0  0  0  0  0  0  0  0  0  0
   -1.2120  -54.9535  -21.8623 N   0  0  0  0  0  0  0  0  0  0  0  0
   -0.7598  -53.7550  -21.4616 C   0  0  0  0  0  0  0  0  0  0  0  0
   -0.6105  -53.4077  -20.1477 C   0  0  0  0  0  0  0  0  0  0  0  0
   -0.5838  -51.9708  -15.8748 C   0  0  0  0  0  0  0  0  0  0  0  0
   -0.8843  -52.3361  -17.3072 C   0  0  0  0  0  0  0  0  0  0  0  0
   -1.9108  -53.0066  -17.4782 O   0  0  0  0  0  0  0  0  0  0  0  0
   -0.0423  -51.9273  -18.3212 N   0  0  0  0  0  0  0  0  0  0  0  0
    0.8066  -51.3496  -18.0115 H   0  0  0  0  0  0  0  0  0  0  0  0
   -0.2093  -52.2346  -24.7512 N   0  0  0  0  0  0  0  0  0  0  0  0
   -0.8939  -51.7043  -25.3491 H   0  0  0  0  0  0  0  0  0  0  0  0
    1.1424  -51.9499  -25.0559 C   0  0  0  0  0  0  0  0  0  0  0  0
    2.0946  -52.9469  -24.7978 C   0  0  0  0  0  0  0  0  0  0  0  0
    3.4334  -52.7901  -25.0152 C   0  0  0  0  0  0  0  0  0  0  0  0
    3.8643  -51.5806  -25.5165 C   0  0  0  0  0  0  0  0  0  0  0  0
    2.9567  -50.5665  -25.7857 C   0  0  0  0  0  0  0  0  0  0  0  0
    3.6373  -48.9269  -26.4768 Br  0  0  0  0  0  0  0  0  0  0  0  0
    1.5853  -50.7559  -25.5519 C   0  0  0  0  0  0  0  0  0  0  0  0
 11 12  1  0  0  0
 12 13  2  0  0  0
 12 14  1  0  0  0
 14  1  1  0  0  0
  1  2  2  0  0  0
  2  3  1  0  0  0
  3  4  2  0  0  0
  4  5  1  0  0  0
  5 16  1  0  0  0
 16 18  1  0  0  0
 18 19  2  0  0  0
 19 20  1  0  0  0
 20 21  2  0  0  0
 21 22  1  0  0  0
 22 23  1  0  0  0
 22 24  2  0  0  0
  5  6  2  0  0  0
  6  7  1  0  0  0
  7  8  2  0  0  0
  8  9  1  0  0  0
  9 10  2  0  0  0
 10  1  1  0  0  0
  9  4  1  0  0  0
 24 18  1  0  0  0
 14 15  1  0  0  0
 16 17  1  0  0  0
M  END
> <minimizedAffinity>
-7.58514

> <CNNscore>
0.6803346872

> <CNNaffinity>
6.1969518661

> <CNN_VS>
4.2160015106

> <CNNaffinity_variance>
0.1146803871

$$$$
[H]c1nc(N([H])c2c([H])c([H])c([H])c(Br)c2[H])c2c([H])c([H])c(N([H])C(=O)C([H])([H])[H])c([H])c2n1


 24 26  0  0  0  0  0  0  0  0999 V2000
   -0.3119  -52.8850  -19.9907 C   0  0  0  0  0  0  0  0  0  0  0  0
   -0.3952  -53.9354  -20.8787 C   0  0  0  0  0  0  0  0  0  0  0  0
    0.1408  -53.7939  -22.1701 C   0  0  0  0  0  0  0  0  0  0  0  0
    0.7427  -52.6322  -22.5598 C   0  0  0  0  0  0  0  0  0  0  0  0
    1.2777  -52.4729  -23.8272 C   0  0  0  0  0  0  0  0  0  0  0  0
    1.8706  -51.3065  -24.1834 N   0  0  0  0  0  0  0  0  0  0  0  0
    1.9551  -50.2839  -23.3283 C   0  0  0  0  0  0  0  0  0  0  0  0
    1.4405  -50.4162  -22.0876 N   0  0  0  0  0  0  0  0  0  0  0  0
    0.8425  -51.5460  -21.6788 C   0  0  0  0  0  0  0  0  0  0  0  0
    0.3140  -51.7080  -20.4284 C   0  0  0  0  0  0  0  0  0  0  0  0
   -1.2652  -52.2507  -16.2903 C   0  0  0  0  0  0  0  0  0  0  0  0
   -0.6398  -52.0068  -17.6411 C   0  0  0  0  0  0  0  0  0  0  0  0
    0.0100  -50.9579  -17.7418 O   0  0  0  0  0  0  0  0  0  0  0  0
   -0.8094  -52.9198  -18.6619 N   0  0  0  0  0  0  0  0  0  0  0  0
   -1.3988  -53.7817  -18.4170 H   0  0  0  0  0  0  0  0  0  0  0  0
    1.1771  -53.5041  -24.7594 N   0  0  0  0  0  0  0  0  0  0  0  0
    1.4710  -54.4989  -24.5822 H   0  0  0  0  0  0  0  0  0  0  0  0
    0.6601  -53.2931  -26.0592 C   0  0  0  0  0  0  0  0  0  0  0  0
    1.5604  -53.3275  -27.1342 C   0  0  0  0  0  0  0  0  0  0  0  0
    1.1987  -53.1082  -28.4324 C   0  0  0  0  0  0  0  0  0  0  0  0
   -0.1280  -52.8386  -28.6916 C   0  0  0  0  0  0  0  0  0  0  0  0
   -1.0524  -52.7945  -27.6581 C   0  0  0  0  0  0  0  0  0  0  0  0
   -2.8651  -52.4151  -28.1046 Br  0  0  0  0  0  0  0  0  0  0  0  0
   -0.6516  -53.0236  -26.3322 C   0  0  0  0  0  0  0  0  0  0  0  0
 11 12  1  0  0  0
 12 13  2  0  0  0
 12 14  1  0  0  0
 14  1  1  0  0  0
  1  2  2  0  0  0
  2  3  1  0  0  0
  3  4  2  0  0  0
  4  5  1  0  0  0
  5 16  1  0  0  0
 16 18  1  0  0  0
 18 19  2  0  0  0
 19 20  1  0  0  0
 20 21  2  0  0  0
 21 22  1  0  0  0
 22 23  1  0  0  0
 22 24  2  0  0  0
  5  6  2  0  0  0
  6  7  1  0  0  0
  7  8  2  0  0  0
  8  9  1  0  0  0
  9 10  2  0  0  0
 10  1  1  0  0  0
  9  4  1  0  0  0
 24 18  1  0  0  0
 14 15  1  0  0  0
 16 17  1  0  0  0
M  END
> <minimizedAffinity>
-7.43445

> <CNNscore>
0.6678852439

> <CNNaffinity>
6.3588285446

> <CNN_VS>
4.2469677925

> <CNNaffinity_variance>
0.1095223799

$$$$
[H]c1nc(N([H])c2c([H])c([H])c([H])c(Br)c2[H])c2c([H])c([H])c(N([H])C(=O)C([H])([H])[H])c([H])c2n1


 24 26  0  0  0  0  0  0  0  0999 V2000
   -0.2397  -51.7849  -17.9615 C   0  0  0  0  0  0  0  0  0  0  0  0
    0.3692  -50.8652  -18.7874 C   0  0  0  0  0  0  0  0  0  0  0  0
    0.3975  -51.0924  -20.1740 C   0  0  0  0  0  0  0  0  0  0  0  0
   -0.1685  -52.2100  -20.7165 C   0  0  0  0  0  0  0  0  0  0  0  0
   -0.1522  -52.4520  -22.0800 C   0  0  0  0  0  0  0  0  0  0  0  0
   -0.7246  -53.5713  -22.5882 N   0  0  0  0  0  0  0  0  0  0  0  0
   -1.3166  -54.4674  -21.7941 C   0  0  0  0  0  0  0  0  0  0  0  0
   -1.3445  -54.2527  -20.4619 N   0  0  0  0  0  0  0  0  0  0  0  0
   -0.7951  -53.1637  -19.9019 C   0  0  0  0  0  0  0  0  0  0  0  0
   -0.8098  -52.9203  -18.5567 C   0  0  0  0  0  0  0  0  0  0  0  0
   -1.3222  -51.3876  -14.2636 C   0  0  0  0  0  0  0  0  0  0  0  0
   -1.4572  -51.5147  -15.7606 C   0  0  0  0  0  0  0  0  0  0  0  0
   -2.6172  -51.4839  -16.1918 O   0  0  0  0  0  0  0  0  0  0  0  0
   -0.3349  -51.6537  -16.5514 N   0  0  0  0  0  0  0  0  0  0  0  0
    0.6009  -51.6605  -16.0275 H   0  0  0  0  0  0  0  0  0  0  0  0
    0.4874  -51.5585  -22.9375 N   0  0  0  0  0  0  0  0  0  0  0  0
    0.5006  -50.5142  -22.8087 H   0  0  0  0  0  0  0  0  0  0  0  0
    1.1890  -51.9927  -24.0866 C   0  0  0  0  0  0  0  0  0  0  0  0
    2.5659  -52.2292  -23.9611 C   0  0  0  0  0  0  0  0  0  0  0  0
    3.3649  -52.6192  -24.9973 C   0  0  0  0  0  0  0  0  0  0  0  0
    2.7767  -52.7874  -26.2325 C   0  0  0  0  0  0  0  0  0  0  0  0
    1.4180  -52.5637  -26.4016 C   0  0  0  0  0  0  0  0  0  0  0  0
    0.6865  -52.8193  -28.1419 Br  0  0  0  0  0  0  0  0  0  0  0  0
    0.6207  -52.1628  -25.3177 C   0  0  0  0  0  0  0  0  0  0  0  0
 11 12  1  0  0  0
 12 13  2  0  0  0
 12 14  1  0  0  0
 14  1  1  0  0  0
  1  2  2  0  0  0
  2  3  1  0  0  0
  3  4  2  0  0  0
  4  5  1  0  0  0
  5 16  1  0  0  0
 16 18  1  0  0  0
 18 19  2  0  0  0
 19 20  1  0  0  0
 20 21  2  0  0  0
 21 22  1  0  0  0
 22 23  1  0  0  0
 22 24  2  0  0  0
  5  6  2  0  0  0
  6  7  1  0  0  0
  7  8  2  0  0  0
  8  9  1  0  0  0
  9 10  2  0  0  0
 10  1  1  0  0  0
  9  4  1  0  0  0
 24 18  1  0  0  0
 14 15  1  0  0  0
 16 17  1  0  0  0
M  END
> <minimizedAffinity>
-7.23174

> <CNNscore>
0.5935876966

> <CNNaffinity>
6.0041742325

> <CNN_VS>
3.5640039444

> <CNNaffinity_variance>
0.1343769133

$$$$
[H]c1nc(N([H])c2c([H])c([H])c([H])c(Br)c2[H])c2c([H])c([H])c(N([H])C(=O)C([H])([H])[H])c([H])c2n1


 24 26  0  0  0  0  0  0  0  0999 V2000
   -0.4788  -53.7400  -23.6682 C   0  0  0  0  0  0  0  0  0  0  0  0
   -0.8806  -54.5325  -22.6150 C   0  0  0  0  0  0  0  0  0  0  0  0
   -0.7575  -54.0510  -21.3005 C   0  0  0  0  0  0  0  0  0  0  0  0
   -0.2458  -52.8105  -21.0495 C   0  0  0  0  0  0  0  0  0  0  0  0
   -0.1169  -52.3172  -19.7618 C   0  0  0  0  0  0  0  0  0  0  0  0
    0.3940  -51.0799  -19.5457 N   0  0  0  0  0  0  0  0  0  0  0  0
    0.7857  -50.3059  -20.5614 C   0  0  0  0  0  0  0  0  0  0  0  0
    0.6697  -50.7658  -21.8250 N   0  0  0  0  0  0  0  0  0  0  0  0
    0.1716  -51.9813  -22.1002 C   0  0  0  0  0  0  0  0  0  0  0  0
    0.0417  -52.4717  -23.3697 C   0  0  0  0  0  0  0  0  0  0  0  0
    0.1019  -54.5937  -27.4016 C   0  0  0  0  0  0  0  0  0  0  0  0
    0.4234  -54.1533  -25.9952 C   0  0  0  0  0  0  0  0  0  0  0  0
    1.6041  -53.8394  -25.7957 O   0  0  0  0  0  0  0  0  0  0  0  0
   -0.5654  -54.1196  -25.0331 N   0  0  0  0  0  0  0  0  0  0  0  0
   -1.5407  -54.4199  -25.3630 H   0  0  0  0  0  0  0  0  0  0  0  0
   -0.4810  -53.1088  -18.6740 N   0  0  0  0  0  0  0  0  0  0  0  0
   -0.1893  -54.1113  -18.5419 H   0  0  0  0  0  0  0  0  0  0  0  0
   -1.2987  -52.6184  -17.6290 C   0  0  0  0  0  0  0  0  0  0  0  0
   -0.8024  -51.5614  -16.8520 C   0  0  0  0  0  0  0  0  0  0  0  0
   -1.4746  -51.0176  -15.7953 C   0  0  0  0  0  0  0  0  0  0  0  0
   -2.7096  -51.5434  -15.4817 C   0  0  0  0  0  0  0  0  0  0  0  0
   -3.2382  -52.5897  -16.2236 C   0  0  0  0  0  0  0  0  0  0  0  0
   -4.9509  -53.2565  -15.7221 Br  0  0  0  0  0  0  0  0  0  0  0  0
   -2.5240  -53.1295  -17.3051 C   0  0  0  0  0  0  0  0  0  0  0  0
 11 12  1  0  0  0
 12 13  2  0  0  0
 12 14  1  0  0  0
 14  1  1  0  0  0
  1  2  2  0  0  0
  2  3  1  0  0  0
  3  4  2  0  0  0
  4  5  1  0  0  0
  5 16  1  0  0  0
 16 18  1  0  0  0
 18 19  2  0  0  0
 19 20  1  0  0  0
 20 21  2  0  0  0
 21 22  1  0  0  0
 22 23  1  0  0  0
 22 24  2  0  0  0
  5  6  2  0  0  0
  6  7  1  0  0  0
  7  8  2  0  0  0
  8  9  1  0  0  0
  9 10  2  0  0  0
 10  1  1  0  0  0
  9  4  1  0  0  0
 24 18  1  0  0  0
 14 15  1  0  0  0
 16 17  1  0  0  0
M  END
> <minimizedAffinity>
-8.23057

> <CNNscore>
0.5835220218

> <CNNaffinity>
6.1935873032

> <CNN_VS>
3.6140944958

> <CNNaffinity_variance>
0.0944173560

$$$$
[H]c1nc(N([H])c2c([H])c([H])c([H])c(Br)c2[H])c2c([H])c([H])c(N([H])C(=O)C([H])([H])[H])c([H])c2n1


 24 26  0  0  0  0  0  0  0  0999 V2000
    0.4868  -51.6983  -20.0934 C   0  0  0  0  0  0  0  0  0  0  0  0
    0.5585  -50.8521  -21.1787 C   0  0  0  0  0  0  0  0  0  0  0  0
    0.1777  -51.3206  -22.4477 C   0  0  0  0  0  0  0  0  0  0  0  0
   -0.2621  -52.6011  -22.6233 C   0  0  0  0  0  0  0  0  0  0  0  0
   -0.6428  -53.0818  -23.8650 C   0  0  0  0  0  0  0  0  0  0  0  0
   -1.0767  -54.3587  -24.0063 N   0  0  0  0  0  0  0  0  0  0  0  0
   -1.1489  -55.1848  -22.9592 C   0  0  0  0  0  0  0  0  0  0  0  0
   -0.7829  -54.7383  -21.7393 N   0  0  0  0  0  0  0  0  0  0  0  0
   -0.3459  -53.4853  -21.5385 C   0  0  0  0  0  0  0  0  0  0  0  0
    0.0299  -53.0063  -20.3143 C   0  0  0  0  0  0  0  0  0  0  0  0
    2.2205  -50.8561  -16.7335 C   0  0  0  0  0  0  0  0  0  0  0  0
    2.0812  -51.2790  -18.1747 C   0  0  0  0  0  0  0  0  0  0  0  0
    3.1411  -51.5627  -18.7478 O   0  0  0  0  0  0  0  0  0  0  0  0
    0.8362  -51.3302  -18.7680 N   0  0  0  0  0  0  0  0  0  0  0  0
    0.0130  -51.0559  -18.1376 H   0  0  0  0  0  0  0  0  0  0  0  0
   -0.5474  -52.2614  -24.9877 N   0  0  0  0  0  0  0  0  0  0  0  0
   -1.2845  -51.5727  -25.2873 H   0  0  0  0  0  0  0  0  0  0  0  0
    0.5781  -52.2891  -25.8442 C   0  0  0  0  0  0  0  0  0  0  0  0
    1.5955  -51.3506  -25.6171 C   0  0  0  0  0  0  0  0  0  0  0  0
    2.7175  -51.2484  -26.3883 C   0  0  0  0  0  0  0  0  0  0  0  0
    2.8493  -52.1206  -27.4475 C   0  0  0  0  0  0  0  0  0  0  0  0
    1.8667  -53.0645  -27.7086 C   0  0  0  0  0  0  0  0  0  0  0  0
    2.1284  -54.2307  -29.1921 Br  0  0  0  0  0  0  0  0  0  0  0  0
    0.7228  -53.1463  -26.8986 C   0  0  0  0  0  0  0  0  0  0  0  0
 11 12  1  0  0  0
 12 13  2  0  0  0
 12 14  1  0  0  0
 14  1  1  0  0  0
  1  2  2  0  0  0
  2  3  1  0  0  0
  3  4  2  0  0  0
  4  5  1  0  0  0
  5 16  1  0  0  0
 16 18  1  0  0  0
 18 19  2  0  0  0
 19 20  1  0  0  0
 20 21  2  0  0  0
 21 22  1  0  0  0
 22 23  1  0  0  0
 22 24  2  0  0  0
  5  6  2  0  0  0
  6  7  1  0  0  0
  7  8  2  0  0  0
  8  9  1  0  0  0
  9 10  2  0  0  0
 10  1  1  0  0  0
  9  4  1  0  0  0
 24 18  1  0  0  0
 14 15  1  0  0  0
 16 17  1  0  0  0
M  END
> <minimizedAffinity>
-6.41888

> <CNNscore>
0.5471306443

> <CNNaffinity>
6.2317328453

> <CNN_VS>
3.4095721245

> <CNNaffinity_variance>
0.2683054507

$$$$
[H]c1nc(N([H])c2c([H])c([H])c([H])c(Br)c2[H])c2c([H])c([H])c(N([H])C(=O)C([H])([H])[H])c([H])c2n1


 24 26  0  0  0  0  0  0  0  0999 V2000
   -0.5228  -52.1256  -17.5553 C   0  0  0  0  0  0  0  0  0  0  0  0
    0.1936  -51.0889  -18.1129 C   0  0  0  0  0  0  0  0  0  0  0  0
    0.3963  -51.0570  -19.5032 C   0  0  0  0  0  0  0  0  0  0  0  0
   -0.1048  -52.0370  -20.3110 C   0  0  0  0  0  0  0  0  0  0  0  0
    0.0830  -52.0235  -21.6830 C   0  0  0  0  0  0  0  0  0  0  0  0
   -0.4288  -53.0112  -22.4584 N   0  0  0  0  0  0  0  0  0  0  0  0
   -1.1241  -54.0194  -21.9253 C   0  0  0  0  0  0  0  0  0  0  0  0
   -1.3197  -54.0535  -20.5903 N   0  0  0  0  0  0  0  0  0  0  0  0
   -0.8375  -53.1044  -19.7730 C   0  0  0  0  0  0  0  0  0  0  0  0
   -1.0214  -53.1132  -18.4182 C   0  0  0  0  0  0  0  0  0  0  0  0
   -1.6079  -51.7163  -13.8595 C   0  0  0  0  0  0  0  0  0  0  0  0
   -1.4254  -51.3699  -15.3162 C   0  0  0  0  0  0  0  0  0  0  0  0
   -1.8737  -50.2679  -15.6584 O   0  0  0  0  0  0  0  0  0  0  0  0
   -0.7957  -52.2540  -16.1684 N   0  0  0  0  0  0  0  0  0  0  0  0
   -0.4608  -53.1686  -15.7194 H   0  0  0  0  0  0  0  0  0  0  0  0
    0.8336  -51.0078  -22.2724 N   0  0  0  0  0  0  0  0  0  0  0  0
    0.8008  -49.9968  -21.9821 H   0  0  0  0  0  0  0  0  0  0  0  0
    1.7246  -51.2572  -23.3425 C   0  0  0  0  0  0  0  0  0  0  0  0
    2.3243  -52.5233  -23.4121 C   0  0  0  0  0  0  0  0  0  0  0  0
    3.2254  -52.8827  -24.3728 C   0  0  0  0  0  0  0  0  0  0  0  0
    3.5586  -51.9420  -25.3236 C   0  0  0  0  0  0  0  0  0  0  0  0
    2.9897  -50.6771  -25.2921 C   0  0  0  0  0  0  0  0  0  0  0  0
    3.5059  -49.4381  -26.6440 Br  0  0  0  0  0  0  0  0  0  0  0  0
    2.0659  -50.3351  -24.2917 C   0  0  0  0  0  0  0  0  0  0  0  0
 11 12  1  0  0  0
 12 13  2  0  0  0
 12 14  1  0  0  0
 14  1  1  0  0  0
  1  2  2  0  0  0
  2  3  1  0  0  0
  3  4  2  0  0  0
  4  5  1  0  0  0
  5 16  1  0  0  0
 16 18  1  0  0  0
 18 19  2  0  0  0
 19 20  1  0  0  0
 20 21  2  0  0  0
 21 22  1  0  0  0
 22 23  1  0  0  0
 22 24  2  0  0  0
  5  6  2  0  0  0
  6  7  1  0  0  0
  7  8  2  0  0  0
  8  9  1  0  0  0
  9 10  2  0  0  0
 10  1  1  0  0  0
  9  4  1  0  0  0
 24 18  1  0  0  0
 14 15  1  0  0  0
 16 17  1  0  0  0
M  END
> <minimizedAffinity>
-6.68949

> <CNNscore>
0.5463253856

> <CNNaffinity>
5.9332451820

> <CNN_VS>
3.2414824963

> <CNNaffinity_variance>
0.2364633828

$$$$
[H]c1c([H])c([H])c2c(N([H])/N=C3/SC([H])([H])C(=O)N3[H])nnc([H])c2c1[H]


 20 22  0  0  0  0  0  0  0  0999 V2000
   -0.4519  -54.3816  -24.3279 N   0  0  0  0  0  0  0  0  0  0  0  0
    0.1341  -55.1817  -24.6471 H   0  0  0  0  0  0  0  0  0  0  0  0
   -0.7273  -54.0289  -22.9901 C   0  0  0  0  0  0  0  0  0  0  0  0
   -1.5422  -54.8064  -22.2360 N   0  0  0  0  0  0  0  0  0  0  0  0
   -1.8192  -54.5029  -20.9804 N   0  0  0  0  0  0  0  0  0  0  0  0
   -1.2837  -53.4002  -20.4345 C   0  0  0  0  0  0  0  0  0  0  0  0
   -0.4431  -52.5562  -21.1382 C   0  0  0  0  0  0  0  0  0  0  0  0
    0.1026  -51.4264  -20.5709 C   0  0  0  0  0  0  0  0  0  0  0  0
    0.9380  -50.5946  -21.2828 C   0  0  0  0  0  0  0  0  0  0  0  0
    1.2286  -50.9095  -22.5938 C   0  0  0  0  0  0  0  0  0  0  0  0
    0.6759  -52.0477  -23.1578 C   0  0  0  0  0  0  0  0  0  0  0  0
   -0.1619  -52.8927  -22.4630 C   0  0  0  0  0  0  0  0  0  0  0  0
    2.6375  -53.6115  -28.1785 O   0  0  0  0  0  0  0  0  0  0  0  0
    1.3727  -53.7235  -28.0111 C   0  0  0  0  0  0  0  0  0  0  0  0
    0.4372  -53.1920  -29.0457 C   0  0  0  0  0  0  0  0  0  0  0  0
   -0.9457  -52.6716  -27.9514 S   0  0  0  0  0  0  0  0  0  0  0  0
   -0.4277  -53.6037  -26.4864 C   0  0  0  0  0  0  0  0  0  0  0  0
    0.7207  -54.3108  -26.9267 N   0  0  0  0  0  0  0  0  0  0  0  0
   -1.0250  -53.5729  -25.3457 N   0  0  0  0  0  0  0  0  0  0  0  0
    1.0387  -55.2113  -26.4531 H   0  0  0  0  0  0  0  0  0  0  0  0
 13 14  2  0  0  0
 14 15  1  0  0  0
 15 16  1  0  0  0
 16 17  1  0  0  0
 17 18  1  0  0  0
 17 19  2  0  0  0
 19  1  1  0  0  0
  1  3  1  0  0  0
  3  4  2  0  0  0
  4  5  1  0  0  0
  5  6  2  0  0  0
  6  7  1  0  0  0
  7  8  2  0  0  0
  8  9  1  0  0  0
  9 10  2  0  0  0
 10 11  1  0  0  0
 11 12  2  0  0  0
 18 14  1  0  0  0
 12  3  1  0  0  0
 12  7  1  0  0  0
 18 20  1  0  0  0
  1  2  1  0  0  0
M  END
> <minimizedAffinity>
-8.21799

> <CNNscore>
0.9593172669

> <CNNaffinity>
6.2023053169

> <CNN_VS>
5.9499783516

> <CNNaffinity_variance>
0.1529988945

$$$$
[H]c1c([H])c([H])c2c(N([H])/N=C3/SC([H])([H])C(=O)N3[H])nnc([H])c2c1[H]


 20 22  0  0  0  0  0  0  0  0999 V2000
   -1.1935  -53.9960  -20.1664 N   0  0  0  0  0  0  0  0  0  0  0  0
   -1.8134  -54.6286  -19.6177 H   0  0  0  0  0  0  0  0  0  0  0  0
   -0.9977  -54.0231  -21.5631 C   0  0  0  0  0  0  0  0  0  0  0  0
   -1.5291  -55.0254  -22.3048 N   0  0  0  0  0  0  0  0  0  0  0  0
   -1.3634  -55.0785  -23.6145 N   0  0  0  0  0  0  0  0  0  0  0  0
   -0.6532  -54.1201  -24.2292 C   0  0  0  0  0  0  0  0  0  0  0  0
   -0.0795  -53.0649  -23.5426 C   0  0  0  0  0  0  0  0  0  0  0  0
    0.6479  -52.0852  -24.1806 C   0  0  0  0  0  0  0  0  0  0  0  0
    1.2139  -51.0400  -23.4849 C   0  0  0  0  0  0  0  0  0  0  0  0
    1.0423  -50.9825  -22.1176 C   0  0  0  0  0  0  0  0  0  0  0  0
    0.3092  -51.9717  -21.4826 C   0  0  0  0  0  0  0  0  0  0  0  0
   -0.2649  -53.0253  -22.1600 C   0  0  0  0  0  0  0  0  0  0  0  0
   -3.7956  -52.1904  -16.3021 O   0  0  0  0  0  0  0  0  0  0  0  0
   -2.5628  -52.4133  -16.5680 C   0  0  0  0  0  0  0  0  0  0  0  0
   -1.4975  -51.7191  -15.7862 C   0  0  0  0  0  0  0  0  0  0  0  0
   -0.2308  -51.5439  -17.1073 S   0  0  0  0  0  0  0  0  0  0  0  0
   -0.9446  -52.7502  -18.2557 C   0  0  0  0  0  0  0  0  0  0  0  0
   -2.0594  -53.2689  -17.5481 N   0  0  0  0  0  0  0  0  0  0  0  0
   -0.4802  -53.0141  -19.4278 N   0  0  0  0  0  0  0  0  0  0  0  0
   -2.4607  -54.2323  -17.7653 H   0  0  0  0  0  0  0  0  0  0  0  0
 13 14  2  0  0  0
 14 15  1  0  0  0
 15 16  1  0  0  0
 16 17  1  0  0  0
 17 18  1  0  0  0
 17 19  2  0  0  0
 19  1  1  0  0  0
  1  3  1  0  0  0
  3  4  2  0  0  0
  4  5  1  0  0  0
  5  6  2  0  0  0
  6  7  1  0  0  0
  7  8  2  0  0  0
  8  9  1  0  0  0
  9 10  2  0  0  0
 10 11  1  0  0  0
 11 12  2  0  0  0
 18 14  1  0  0  0
 12  3  1  0  0  0
 12  7  1  0  0  0
 18 20  1  0  0  0
  1  2  1  0  0  0
M  END
> <minimizedAffinity>
-7.55236

> <CNNscore>
0.9493256211

> <CNNaffinity>
5.5354080200

> <CNN_VS>
5.2549047470

> <CNNaffinity_variance>
0.2475074530

$$$$
[H]c1c([H])c([H])c2c(N([H])/N=C3/SC([H])([H])C(=O)N3[H])nnc([H])c2c1[H]


 20 22  0  0  0  0  0  0  0  0999 V2000
    0.8577  -52.4940  -24.4686 N   0  0  0  0  0  0  0  0  0  0  0  0
    1.2767  -51.6496  -24.0247 H   0  0  0  0  0  0  0  0  0  0  0  0
    0.9200  -52.8374  -25.8353 C   0  0  0  0  0  0  0  0  0  0  0  0
    2.0722  -53.3171  -26.3640 N   0  0  0  0  0  0  0  0  0  0  0  0
    2.1620  -53.6475  -27.6400 N   0  0  0  0  0  0  0  0  0  0  0  0
    1.0903  -53.5066  -28.4352 C   0  0  0  0  0  0  0  0  0  0  0  0
   -0.1206  -53.0243  -27.9712 C   0  0  0  0  0  0  0  0  0  0  0  0
   -1.2159  -52.8827  -28.7934 C   0  0  0  0  0  0  0  0  0  0  0  0
   -2.4156  -52.4011  -28.3186 C   0  0  0  0  0  0  0  0  0  0  0  0
   -2.5117  -52.0555  -26.9868 C   0  0  0  0  0  0  0  0  0  0  0  0
   -1.4056  -52.2008  -26.1656 C   0  0  0  0  0  0  0  0  0  0  0  0
   -0.1967  -52.6804  -26.6209 C   0  0  0  0  0  0  0  0  0  0  0  0
    2.4366  -52.2587  -19.7340 O   0  0  0  0  0  0  0  0  0  0  0  0
    1.3281  -52.4897  -20.3325 C   0  0  0  0  0  0  0  0  0  0  0  0
    0.2309  -53.2022  -19.6138 C   0  0  0  0  0  0  0  0  0  0  0  0
   -0.5045  -54.1141  -21.0310 S   0  0  0  0  0  0  0  0  0  0  0  0
    0.2788  -53.1435  -22.3454 C   0  0  0  0  0  0  0  0  0  0  0  0
    0.9954  -52.1416  -21.6418 N   0  0  0  0  0  0  0  0  0  0  0  0
    0.1578  -53.3795  -23.6059 N   0  0  0  0  0  0  0  0  0  0  0  0
    1.2472  -51.2108  -22.0961 H   0  0  0  0  0  0  0  0  0  0  0  0
 13 14  2  0  0  0
 14 15  1  0  0  0
 15 16  1  0  0  0
 16 17  1  0  0  0
 17 18  1  0  0  0
 17 19  2  0  0  0
 19  1  1  0  0  0
  1  3  1  0  0  0
  3  4  2  0  0  0
  4  5  1  0  0  0
  5  6  2  0  0  0
  6  7  1  0  0  0
  7  8  2  0  0  0
  8  9  1  0  0  0
  9 10  2  0  0  0
 10 11  1  0  0  0
 11 12  2  0  0  0
 18 14  1  0  0  0
 12  3  1  0  0  0
 12  7  1  0  0  0
 18 20  1  0  0  0
  1  2  1  0  0  0
M  END
> <minimizedAffinity>
-7.61320

> <CNNscore>
0.8151696324

> <CNNaffinity>
5.7386636734

> <CNN_VS>
4.6779842377

> <CNNaffinity_variance>
0.0887075588

$$$$
[H]c1c([H])c([H])c2c(N([H])/N=C3/SC([H])([H])C(=O)N3[H])nnc([H])c2c1[H]


 20 22  0  0  0  0  0  0  0  0999 V2000
    1.2142  -52.9014  -22.9051 N   0  0  0  0  0  0  0  0  0  0  0  0
    2.1921  -53.2570  -22.9580 H   0  0  0  0  0  0  0  0  0  0  0  0
    0.2717  -53.1949  -21.8974 C   0  0  0  0  0  0  0  0  0  0  0  0
   -0.7203  -54.0878  -22.1335 N   0  0  0  0  0  0  0  0  0  0  0  0
   -1.6178  -54.3838  -21.2103 N   0  0  0  0  0  0  0  0  0  0  0  0
   -1.5499  -53.7891  -20.0093 C   0  0  0  0  0  0  0  0  0  0  0  0
   -0.5682  -52.8676  -19.6913 C   0  0  0  0  0  0  0  0  0  0  0  0
   -0.5051  -52.2616  -18.4565 C   0  0  0  0  0  0  0  0  0  0  0  0
    0.4776  -51.3457  -18.1530 C   0  0  0  0  0  0  0  0  0  0  0  0
    1.4156  -51.0351  -19.1153 C   0  0  0  0  0  0  0  0  0  0  0  0
    1.3458  -51.6488  -20.3553 C   0  0  0  0  0  0  0  0  0  0  0  0
    0.3711  -52.5674  -20.6788 C   0  0  0  0  0  0  0  0  0  0  0  0
    0.6385  -55.2675  -27.2680 O   0  0  0  0  0  0  0  0  0  0  0  0
    0.0972  -54.2700  -26.6744 C   0  0  0  0  0  0  0  0  0  0  0  0
   -0.6662  -53.2605  -27.4657 C   0  0  0  0  0  0  0  0  0  0  0  0
   -0.2780  -51.7589  -26.4780 S   0  0  0  0  0  0  0  0  0  0  0  0
    0.3227  -52.6186  -25.0004 C   0  0  0  0  0  0  0  0  0  0  0  0
    0.1308  -53.9901  -25.3082 N   0  0  0  0  0  0  0  0  0  0  0  0
    0.7985  -52.0378  -23.9538 N   0  0  0  0  0  0  0  0  0  0  0  0
    0.0245  -54.7253  -24.5437 H   0  0  0  0  0  0  0  0  0  0  0  0
 13 14  2  0  0  0
 14 15  1  0  0  0
 15 16  1  0  0  0
 16 17  1  0  0  0
 17 18  1  0  0  0
 17 19  2  0  0  0
 19  1  1  0  0  0
  1  3  1  0  0  0
  3  4  2  0  0  0
  4  5  1  0  0  0
  5  6  2  0  0  0
  6  7  1  0  0  0
  7  8  2  0  0  0
  8  9  1  0  0  0
  9 10  2  0  0  0
 10 11  1  0  0  0
 11 12  2  0  0  0
 18 14  1  0  0  0
 12  3  1  0  0  0
 12  7  1  0  0  0
 18 20  1  0  0  0
  1  2  1  0  0  0
M  END
> <minimizedAffinity>
-6.61420

> <CNNscore>
0.7458488941

> <CNNaffinity>
5.6674089432

> <CNN_VS>
4.2270307541

> <CNNaffinity_variance>
0.2467427552

$$$$
[H]c1c([H])c([H])c2c(N([H])/N=C3/SC([H])([H])C(=O)N3[H])nnc([H])c2c1[H]


 20 22  0  0  0  0  0  0  0  0999 V2000
   -0.4720  -54.0102  -24.2938 N   0  0  0  0  0  0  0  0  0  0  0  0
   -0.7046  -55.0228  -24.2166 H   0  0  0  0  0  0  0  0  0  0  0  0
    0.3421  -53.2702  -23.4108 C   0  0  0  0  0  0  0  0  0  0  0  0
    1.4599  -52.6562  -23.8698 N   0  0  0  0  0  0  0  0  0  0  0  0
    2.2425  -51.9561  -23.0680 N   0  0  0  0  0  0  0  0  0  0  0  0
    1.9275  -51.8476  -21.7680 C   0  0  0  0  0  0  0  0  0  0  0  0
    0.8044  -52.4445  -21.2236 C   0  0  0  0  0  0  0  0  0  0  0  0
    0.4879  -52.3285  -19.8886 C   0  0  0  0  0  0  0  0  0  0  0  0
   -0.6334  -52.9279  -19.3594 C   0  0  0  0  0  0  0  0  0  0  0  0
   -1.4518  -53.6593  -20.1946 C   0  0  0  0  0  0  0  0  0  0  0  0
   -1.1270  -53.7716  -21.5366 C   0  0  0  0  0  0  0  0  0  0  0  0
   -0.0103  -53.1799  -22.0855 C   0  0  0  0  0  0  0  0  0  0  0  0
    2.7052  -53.5400  -28.1212 O   0  0  0  0  0  0  0  0  0  0  0  0
    1.4389  -53.6645  -27.9758 C   0  0  0  0  0  0  0  0  0  0  0  0
    0.5213  -53.2557  -29.0800 C   0  0  0  0  0  0  0  0  0  0  0  0
   -0.9013  -52.6653  -28.0759 S   0  0  0  0  0  0  0  0  0  0  0  0
   -0.4046  -53.4413  -26.5157 C   0  0  0  0  0  0  0  0  0  0  0  0
    0.7695  -54.1606  -26.8570 N   0  0  0  0  0  0  0  0  0  0  0  0
   -1.0334  -53.3156  -25.3986 N   0  0  0  0  0  0  0  0  0  0  0  0
    1.0929  -55.0043  -26.2913 H   0  0  0  0  0  0  0  0  0  0  0  0
 13 14  2  0  0  0
 14 15  1  0  0  0
 15 16  1  0  0  0
 16 17  1  0  0  0
 17 18  1  0  0  0
 17 19  2  0  0  0
 19  1  1  0  0  0
  1  3  1  0  0  0
  3  4  2  0  0  0
  4  5  1  0  0  0
  5  6  2  0  0  0
  6  7  1  0  0  0
  7  8  2  0  0  0
  8  9  1  0  0  0
  9 10  2  0  0  0
 10 11  1  0  0  0
 11 12  2  0  0  0
 18 14  1  0  0  0
 12  3  1  0  0  0
 12  7  1  0  0  0
 18 20  1  0  0  0
  1  2  1  0  0  0
M  END
> <minimizedAffinity>
-7.40916

> <CNNscore>
0.7230764031

> <CNNaffinity>
5.9776678085

> <CNN_VS>
4.3223104477

> <CNNaffinity_variance>
0.0626297593

$$$$
[H]c1c([H])c([H])c2c(N([H])/N=C3/SC([H])([H])C(=O)N3[H])nnc([H])c2c1[H]


 20 22  0  0  0  0  0  0  0  0999 V2000
   -0.1521  -52.2188  -24.0297 N   0  0  0  0  0  0  0  0  0  0  0  0
   -0.3610  -51.2269  -24.2705 H   0  0  0  0  0  0  0  0  0  0  0  0
   -0.4290  -52.8569  -22.8024 C   0  0  0  0  0  0  0  0  0  0  0  0
   -0.9943  -54.0887  -22.7889 N   0  0  0  0  0  0  0  0  0  0  0  0
   -1.2656  -54.7121  -21.6561 N   0  0  0  0  0  0  0  0  0  0  0  0
   -0.9767  -54.1158  -20.4892 C   0  0  0  0  0  0  0  0  0  0  0  0
   -0.3995  -52.8605  -20.4195 C   0  0  0  0  0  0  0  0  0  0  0  0
   -0.1060  -52.2552  -19.2180 C   0  0  0  0  0  0  0  0  0  0  0  0
    0.4687  -51.0049  -19.1628 C   0  0  0  0  0  0  0  0  0  0  0  0
    0.7528  -50.3521  -20.3441 C   0  0  0  0  0  0  0  0  0  0  0  0
    0.4547  -50.9673  -21.5490 C   0  0  0  0  0  0  0  0  0  0  0  0
   -0.1201  -52.2172  -21.6259 C   0  0  0  0  0  0  0  0  0  0  0  0
   -2.9525  -52.6787  -28.1420 O   0  0  0  0  0  0  0  0  0  0  0  0
   -1.7017  -52.6227  -27.8720 C   0  0  0  0  0  0  0  0  0  0  0  0
   -0.7059  -53.1364  -28.8582 C   0  0  0  0  0  0  0  0  0  0  0  0
    0.5683  -53.7624  -27.6897 S   0  0  0  0  0  0  0  0  0  0  0  0
   -0.0322  -52.8861  -26.2218 C   0  0  0  0  0  0  0  0  0  0  0  0
   -1.1179  -52.1153  -26.7112 N   0  0  0  0  0  0  0  0  0  0  0  0
    0.4720  -52.9965  -25.0416 N   0  0  0  0  0  0  0  0  0  0  0  0
   -1.4420  -51.2284  -26.2165 H   0  0  0  0  0  0  0  0  0  0  0  0
 13 14  2  0  0  0
 14 15  1  0  0  0
 15 16  1  0  0  0
 16 17  1  0  0  0
 17 18  1  0  0  0
 17 19  2  0  0  0
 19  1  1  0  0  0
  1  3  1  0  0  0
  3  4  2  0  0  0
  4  5  1  0  0  0
  5  6  2  0  0  0
  6  7  1  0  0  0
  7  8  2  0  0  0
  8  9  1  0  0  0
  9 10  2  0  0  0
 10 11  1  0  0  0
 11 12  2  0  0  0
 18 14  1  0  0  0
 12  3  1  0  0  0
 12  7  1  0  0  0
 18 20  1  0  0  0
  1  2  1  0  0  0
M  END
> <minimizedAffinity>
-7.37709

> <CNNscore>
0.7087107301

> <CNNaffinity>
5.6955289841

> <CNN_VS>
4.0364823341

> <CNNaffinity_variance>
0.0427212976

$$$$
[H]c1c([H])c([H])c2c(N([H])/N=C3/SC([H])([H])C(=O)N3[H])nnc([H])c2c1[H]


 20 22  0  0  0  0  0  0  0  0999 V2000
   -0.8977  -52.9942  -18.0370 N   0  0  0  0  0  0  0  0  0  0  0  0
   -1.3673  -53.9185  -18.1405 H   0  0  0  0  0  0  0  0  0  0  0  0
   -1.0973  -52.0679  -16.9920 C   0  0  0  0  0  0  0  0  0  0  0  0
   -0.0987  -51.2260  -16.6299 N   0  0  0  0  0  0  0  0  0  0  0  0
   -0.2548  -50.3475  -15.6555 N   0  0  0  0  0  0  0  0  0  0  0  0
   -1.4275  -50.2836  -15.0062 C   0  0  0  0  0  0  0  0  0  0  0  0
   -2.4942  -51.1081  -15.3167 C   0  0  0  0  0  0  0  0  0  0  0  0
   -3.6945  -51.0364  -14.6459 C   0  0  0  0  0  0  0  0  0  0  0  0
   -4.7486  -51.8632  -14.9650 C   0  0  0  0  0  0  0  0  0  0  0  0
   -4.5879  -52.7811  -15.9819 C   0  0  0  0  0  0  0  0  0  0  0  0
   -3.3774  -52.8475  -16.6523 C   0  0  0  0  0  0  0  0  0  0  0  0
   -2.3110  -52.0296  -16.3485 C   0  0  0  0  0  0  0  0  0  0  0  0
   -1.7622  -55.3233  -22.3721 O   0  0  0  0  0  0  0  0  0  0  0  0
   -1.2930  -54.1896  -22.0048 C   0  0  0  0  0  0  0  0  0  0  0  0
   -0.4511  -53.3945  -22.9466 C   0  0  0  0  0  0  0  0  0  0  0  0
    0.6802  -52.6031  -21.7322 S   0  0  0  0  0  0  0  0  0  0  0  0
   -0.3145  -52.9394  -20.2555 C   0  0  0  0  0  0  0  0  0  0  0  0
   -1.4779  -53.5676  -20.7699 N   0  0  0  0  0  0  0  0  0  0  0  0
    0.0322  -52.6413  -19.0514 N   0  0  0  0  0  0  0  0  0  0  0  0
   -2.4024  -53.5528  -20.2395 H   0  0  0  0  0  0  0  0  0  0  0  0
 13 14  2  0  0  0
 14 15  1  0  0  0
 15 16  1  0  0  0
 16 17  1  0  0  0
 17 18  1  0  0  0
 17 19  2  0  0  0
 19  1  1  0  0  0
  1  3  1  0  0  0
  3  4  2  0  0  0
  4  5  1  0  0  0
  5  6  2  0  0  0
  6  7  1  0  0  0
  7  8  2  0  0  0
  8  9  1  0  0  0
  9 10  2  0  0  0
 10 11  1  0  0  0
 11 12  2  0  0  0
 18 14  1  0  0  0
 12  3  1  0  0  0
 12  7  1  0  0  0
 18 20  1  0  0  0
  1  2  1  0  0  0
M  END
> <minimizedAffinity>
-6.45319

> <CNNscore>
0.6334211826

> <CNNaffinity>
4.8258428574

> <CNN_VS>
3.0567910671

> <CNNaffinity_variance>
0.0035811737

$$$$
[H]c1c([H])c([H])c2c(N([H])/N=C3/SC([H])([H])C(=O)N3[H])nnc([H])c2c1[H]


 20 22  0  0  0  0  0  0  0  0999 V2000
   -0.8536  -53.6620  -23.9523 N   0  0  0  0  0  0  0  0  0  0  0  0
   -1.8637  -53.5621  -24.1878 H   0  0  0  0  0  0  0  0  0  0  0  0
   -0.2754  -53.5161  -22.6739 C   0  0  0  0  0  0  0  0  0  0  0  0
   -0.5190  -54.4358  -21.7085 N   0  0  0  0  0  0  0  0  0  0  0  0
    0.0077  -54.3271  -20.5018 N   0  0  0  0  0  0  0  0  0  0  0  0
    0.8029  -53.2834  -20.2205 C   0  0  0  0  0  0  0  0  0  0  0  0
    1.0994  -52.3036  -21.1511 C   0  0  0  0  0  0  0  0  0  0  0  0
    1.9165  -51.2356  -20.8548 C   0  0  0  0  0  0  0  0  0  0  0  0
    2.2035  -50.2669  -21.7906 C   0  0  0  0  0  0  0  0  0  0  0  0
    1.6547  -50.3783  -23.0511 C   0  0  0  0  0  0  0  0  0  0  0  0
    0.8337  -51.4555  -23.3419 C   0  0  0  0  0  0  0  0  0  0  0  0
    0.5342  -52.4350  -22.4202 C   0  0  0  0  0  0  0  0  0  0  0  0
   -2.8788  -52.7545  -28.4288 O   0  0  0  0  0  0  0  0  0  0  0  0
   -1.7048  -52.7251  -27.9179 C   0  0  0  0  0  0  0  0  0  0  0  0
   -0.5069  -52.7804  -28.8067 C   0  0  0  0  0  0  0  0  0  0  0  0
    0.6332  -53.7118  -27.7051 S   0  0  0  0  0  0  0  0  0  0  0  0
   -0.3008  -53.4720  -26.1711 C   0  0  0  0  0  0  0  0  0  0  0  0
   -1.3835  -52.6432  -26.5629 N   0  0  0  0  0  0  0  0  0  0  0  0
    0.0181  -53.9756  -25.0293 N   0  0  0  0  0  0  0  0  0  0  0  0
   -1.8927  -52.0204  -25.8635 H   0  0  0  0  0  0  0  0  0  0  0  0
 13 14  2  0  0  0
 14 15  1  0  0  0
 15 16  1  0  0  0
 16 17  1  0  0  0
 17 18  1  0  0  0
 17 19  2  0  0  0
 19  1  1  0  0  0
  1  3  1  0  0  0
  3  4  2  0  0  0
  4  5  1  0  0  0
  5  6  2  0  0  0
  6  7  1  0  0  0
  7  8  2  0  0  0
  8  9  1  0  0  0
  9 10  2  0  0  0
 10 11  1  0  0  0
 11 12  2  0  0  0
 18 14  1  0  0  0
 12  3  1  0  0  0
 12  7  1  0  0  0
 18 20  1  0  0  0
  1  2  1  0  0  0
M  END
> <minimizedAffinity>
-6.92566

> <CNNscore>
0.6283626556

> <CNNaffinity>
5.5895619392

> <CNN_VS>
3.5122718811

> <CNNaffinity_variance>
0.0603104010

$$$$
[H]c1c([H])c([H])c2c(N([H])/N=C3/SC([H])([H])C(=O)N3[H])nnc([H])c2c1[H]


 20 22  0  0  0  0  0  0  0  0999 V2000
    0.8573  -52.5483  -24.6818 N   0  0  0  0  0  0  0  0  0  0  0  0
    1.1884  -51.5991  -24.4078 H   0  0  0  0  0  0  0  0  0  0  0  0
    0.0219  -53.3935  -23.9217 C   0  0  0  0  0  0  0  0  0  0  0  0
   -0.6611  -54.3963  -24.5258 N   0  0  0  0  0  0  0  0  0  0  0  0
   -1.4511  -55.2044  -23.8414 N   0  0  0  0  0  0  0  0  0  0  0  0
   -1.5836  -55.0323  -22.5172 C   0  0  0  0  0  0  0  0  0  0  0  0
   -0.9204  -54.0326  -21.8281 C   0  0  0  0  0  0  0  0  0  0  0  0
   -1.0615  -53.8624  -20.4691 C   0  0  0  0  0  0  0  0  0  0  0  0
   -0.3953  -52.8629  -19.7953 C   0  0  0  0  0  0  0  0  0  0  0  0
    0.4299  -52.0180  -20.5077 C   0  0  0  0  0  0  0  0  0  0  0  0
    0.5669  -52.1954  -21.8748 C   0  0  0  0  0  0  0  0  0  0  0  0
   -0.0904  -53.1887  -22.5674 C   0  0  0  0  0  0  0  0  0  0  0  0
   -2.8177  -52.7831  -28.0587 O   0  0  0  0  0  0  0  0  0  0  0  0
   -1.5562  -52.5623  -28.0733 C   0  0  0  0  0  0  0  0  0  0  0  0
   -0.7884  -52.7286  -29.3425 C   0  0  0  0  0  0  0  0  0  0  0  0
    0.8081  -53.3161  -28.6447 S   0  0  0  0  0  0  0  0  0  0  0  0
    0.4973  -52.8109  -26.9326 C   0  0  0  0  0  0  0  0  0  0  0  0
   -0.7636  -52.1641  -26.9967 N   0  0  0  0  0  0  0  0  0  0  0  0
    1.2946  -53.0295  -25.9448 N   0  0  0  0  0  0  0  0  0  0  0  0
   -1.0581  -51.4397  -26.2722 H   0  0  0  0  0  0  0  0  0  0  0  0
 13 14  2  0  0  0
 14 15  1  0  0  0
 15 16  1  0  0  0
 16 17  1  0  0  0
 17 18  1  0  0  0
 17 19  2  0  0  0
 19  1  1  0  0  0
  1  3  1  0  0  0
  3  4  2  0  0  0
  4  5  1  0  0  0
  5  6  2  0  0  0
  6  7  1  0  0  0
  7  8  2  0  0  0
  8  9  1  0  0  0
  9 10  2  0  0  0
 10 11  1  0  0  0
 11 12  2  0  0  0
 18 14  1  0  0  0
 12  3  1  0  0  0
 12  7  1  0  0  0
 18 20  1  0  0  0
  1  2  1  0  0  0
M  END
> <minimizedAffinity>
-7.74508

> <CNNscore>
0.6144415140

> <CNNaffinity>
5.8177981377

> <CNN_VS>
3.5746967793

> <CNNaffinity_variance>
0.0935569033

$$$$
[H]c1nc(N([H])c2c([H])c([H])c(OC([H])([H])c3nc([H])c([H])c([H])c3[H])c(Cl)c2[H])c2c([H])c(N([H])C(=O)C([H])([H])[H])c([H])c([H])c2n1


 32 35  0  0  0  0  0  0  0  0999 V2000
   -0.9509  -53.2912  -18.2286 N   0  0  0  0  0  0  0  0  0  0  0  0
   -1.2523  -54.2149  -17.8560 H   0  0  0  0  0  0  0  0  0  0  0  0
   -4.2370  -52.5611  -15.7094 C   0  0  0  0  0  0  0  0  0  0  0  0
   -4.1787  -51.4284  -14.8751 C   0  0  0  0  0  0  0  0  0  0  0  0
   -3.0940  -50.6048  -14.9098 C   0  0  0  0  0  0  0  0  0  0  0  0
   -2.0188  -50.8329  -15.7464 C   0  0  0  0  0  0  0  0  0  0  0  0
   -0.9636  -50.0042  -15.7637 N   0  0  0  0  0  0  0  0  0  0  0  0
    0.0823  -50.2460  -16.5970 C   0  0  0  0  0  0  0  0  0  0  0  0
    0.0912  -51.2963  -17.4085 N   0  0  0  0  0  0  0  0  0  0  0  0
   -0.9661  -52.1470  -17.4066 C   0  0  0  0  0  0  0  0  0  0  0  0
   -2.0494  -51.9318  -16.5712 C   0  0  0  0  0  0  0  0  0  0  0  0
   -3.1609  -52.7730  -16.5334 C   0  0  0  0  0  0  0  0  0  0  0  0
   -6.9238  -55.1061  -14.7132 C   0  0  0  0  0  0  0  0  0  0  0  0
   -5.6489  -54.3082  -14.6145 C   0  0  0  0  0  0  0  0  0  0  0  0
   -4.9562  -54.5427  -13.6212 O   0  0  0  0  0  0  0  0  0  0  0  0
   -5.3735  -53.3981  -15.6307 N   0  0  0  0  0  0  0  0  0  0  0  0
   -6.0738  -53.3054  -16.4334 H   0  0  0  0  0  0  0  0  0  0  0  0
   -0.5185  -53.2264  -19.5891 C   0  0  0  0  0  0  0  0  0  0  0  0
    0.5291  -52.3399  -19.8873 C   0  0  0  0  0  0  0  0  0  0  0  0
    1.0006  -52.2674  -21.1565 C   0  0  0  0  0  0  0  0  0  0  0  0
    0.4996  -53.0373  -22.2157 C   0  0  0  0  0  0  0  0  0  0  0  0
   -0.5370  -53.9096  -21.9014 C   0  0  0  0  0  0  0  0  0  0  0  0
   -1.2417  -54.9287  -23.1713 Cl  0  0  0  0  0  0  0  0  0  0  0  0
   -1.0152  -53.9832  -20.6122 C   0  0  0  0  0  0  0  0  0  0  0  0
    0.9854  -52.9261  -23.4011 O   0  0  0  0  0  0  0  0  0  0  0  0
    1.4560  -52.8223  -24.5893 C   0  0  0  0  0  0  0  0  0  0  0  0
    0.4344  -52.7971  -25.7183 C   0  0  0  0  0  0  0  0  0  0  0  0
   -0.7278  -52.0813  -25.5744 C   0  0  0  0  0  0  0  0  0  0  0  0
   -1.6714  -52.0531  -26.5992 C   0  0  0  0  0  0  0  0  0  0  0  0
   -1.4199  -52.7534  -27.7572 C   0  0  0  0  0  0  0  0  0  0  0  0
   -0.2442  -53.4523  -27.8513 C   0  0  0  0  0  0  0  0  0  0  0  0
    0.6549  -53.4670  -26.8493 N   0  0  0  0  0  0  0  0  0  0  0  0
 13 14  1  0  0  0
 14 15  2  0  0  0
 14 16  1  0  0  0
 16  3  1  0  0  0
  3  4  2  0  0  0
  4  5  1  0  0  0
  5  6  2  0  0  0
  6  7  1  0  0  0
  7  8  2  0  0  0
  8  9  1  0  0  0
  9 10  2  0  0  0
 10  1  1  0  0  0
  1 18  1  0  0  0
 18 19  2  0  0  0
 19 20  1  0  0  0
 20 21  2  0  0  0
 21 25  1  0  0  0
 25 26  1  0  0  0
 26 27  1  0  0  0
 27 28  2  0  0  0
 28 29  1  0  0  0
 29 30  2  0  0  0
 30 31  1  0  0  0
 31 32  2  0  0  0
 21 22  1  0  0  0
 22 23  1  0  0  0
 22 24  2  0  0  0
 10 11  1  0  0  0
 11 12  2  0  0  0
 12  3  1  0  0  0
 11  6  1  0  0  0
 24 18  1  0  0  0
 32 27  1  0  0  0
 16 17  1  0  0  0
  1  2  1  0  0  0
M  END
> <minimizedAffinity>
-8.66050

> <CNNscore>
0.4774480462

> <CNNaffinity>
6.9282097816

> <CNN_VS>
3.3078601360

> <CNNaffinity_variance>
0.1093452126

$$$$
[H]c1nc(N([H])c2c([H])c([H])c(OC([H])([H])c3nc([H])c([H])c([H])c3[H])c(Cl)c2[H])c2c([H])c(N([H])C(=O)C([H])([H])[H])c([H])c([H])c2n1


 32 35  0  0  0  0  0  0  0  0999 V2000
   -0.6461  -54.4564  -24.8069 N   0  0  0  0  0  0  0  0  0  0  0  0
   -0.9260  -55.4494  -24.9429 H   0  0  0  0  0  0  0  0  0  0  0  0
    3.0394  -52.4329  -24.8139 C   0  0  0  0  0  0  0  0  0  0  0  0
    3.3692  -51.6848  -25.9603 C   0  0  0  0  0  0  0  0  0  0  0  0
    2.5045  -51.6211  -27.0111 C   0  0  0  0  0  0  0  0  0  0  0  0
    1.2865  -52.2725  -27.0070 C   0  0  0  0  0  0  0  0  0  0  0  0
    0.4512  -52.1909  -28.0540 N   0  0  0  0  0  0  0  0  0  0  0  0
   -0.7438  -52.8375  -28.0275 C   0  0  0  0  0  0  0  0  0  0  0  0
   -1.1157  -53.5601  -26.9781 N   0  0  0  0  0  0  0  0  0  0  0  0
   -0.2856  -53.6558  -25.9088 C   0  0  0  0  0  0  0  0  0  0  0  0
    0.9395  -53.0102  -25.9006 C   0  0  0  0  0  0  0  0  0  0  0  0
    1.8266  -53.0736  -24.8266 C   0  0  0  0  0  0  0  0  0  0  0  0
    5.1675  -51.7845  -21.6932 C   0  0  0  0  0  0  0  0  0  0  0  0
    4.1118  -51.5403  -22.7408 C   0  0  0  0  0  0  0  0  0  0  0  0
    3.4586  -50.5036  -22.5987 O   0  0  0  0  0  0  0  0  0  0  0  0
    3.9717  -52.4856  -23.7525 N   0  0  0  0  0  0  0  0  0  0  0  0
    4.6158  -53.3390  -23.7434 H   0  0  0  0  0  0  0  0  0  0  0  0
   -0.6468  -53.9365  -23.4757 C   0  0  0  0  0  0  0  0  0  0  0  0
   -0.9088  -54.8413  -22.4342 C   0  0  0  0  0  0  0  0  0  0  0  0
   -0.8853  -54.4057  -21.1505 C   0  0  0  0  0  0  0  0  0  0  0  0
   -0.6101  -53.0803  -20.7857 C   0  0  0  0  0  0  0  0  0  0  0  0
   -0.3526  -52.1988  -21.8302 C   0  0  0  0  0  0  0  0  0  0  0  0
    0.0068  -50.4982  -21.4749 Cl  0  0  0  0  0  0  0  0  0  0  0  0
   -0.3761  -52.6419  -23.1337 C   0  0  0  0  0  0  0  0  0  0  0  0
   -0.6021  -52.7229  -19.5505 O   0  0  0  0  0  0  0  0  0  0  0  0
   -0.6021  -52.3808  -18.3147 C   0  0  0  0  0  0  0  0  0  0  0  0
    0.3343  -51.2428  -17.9311 C   0  0  0  0  0  0  0  0  0  0  0  0
   -0.0625  -50.3128  -17.0029 C   0  0  0  0  0  0  0  0  0  0  0  0
    0.7842  -49.2655  -16.6459 C   0  0  0  0  0  0  0  0  0  0  0  0
    2.0238  -49.1783  -17.2379 C   0  0  0  0  0  0  0  0  0  0  0  0
    2.3725  -50.1322  -18.1588 C   0  0  0  0  0  0  0  0  0  0  0  0
    1.5395  -51.1368  -18.4902 N   0  0  0  0  0  0  0  0  0  0  0  0
 13 14  1  0  0  0
 14 15  2  0  0  0
 14 16  1  0  0  0
 16  3  1  0  0  0
  3  4  2  0  0  0
  4  5  1  0  0  0
  5  6  2  0  0  0
  6  7  1  0  0  0
  7  8  2  0  0  0
  8  9  1  0  0  0
  9 10  2  0  0  0
 10  1  1  0  0  0
  1 18  1  0  0  0
 18 19  2  0  0  0
 19 20  1  0  0  0
 20 21  2  0  0  0
 21 25  1  0  0  0
 25 26  1  0  0  0
 26 27  1  0  0  0
 27 28  2  0  0  0
 28 29  1  0  0  0
 29 30  2  0  0  0
 30 31  1  0  0  0
 31 32  2  0  0  0
 21 22  1  0  0  0
 22 23  1  0  0  0
 22 24  2  0  0  0
 10 11  1  0  0  0
 11 12  2  0  0  0
 12  3  1  0  0  0
 11  6  1  0  0  0
 24 18  1  0  0  0
 32 27  1  0  0  0
 16 17  1  0  0  0
  1  2  1  0  0  0
M  END
> <minimizedAffinity>
-8.18703

> <CNNscore>
0.3816690445

> <CNNaffinity>
6.9451684952

> <CNN_VS>
2.6507558823

> <CNNaffinity_variance>
0.1558513045

$$$$
[H]c1nc(N([H])c2c([H])c([H])c(OC([H])([H])c3nc([H])c([H])c([H])c3[H])c(Cl)c2[H])c2c([H])c(N([H])C(=O)C([H])([H])[H])c([H])c([H])c2n1


 32 35  0  0  0  0  0  0  0  0999 V2000
    1.6015  -52.4656  -21.9948 N   0  0  0  0  0  0  0  0  0  0  0  0
    2.6304  -52.3432  -22.0909 H   0  0  0  0  0  0  0  0  0  0  0  0
    2.7031  -51.3091  -25.8840 C   0  0  0  0  0  0  0  0  0  0  0  0
    1.9150  -51.7807  -26.9513 C   0  0  0  0  0  0  0  0  0  0  0  0
    0.8311  -52.5696  -26.7085 C   0  0  0  0  0  0  0  0  0  0  0  0
    0.4573  -52.9399  -25.4314 C   0  0  0  0  0  0  0  0  0  0  0  0
   -0.6169  -53.7155  -25.2191 N   0  0  0  0  0  0  0  0  0  0  0  0
   -0.9686  -54.0653  -23.9539 C   0  0  0  0  0  0  0  0  0  0  0  0
   -0.2684  -53.6554  -22.9033 N   0  0  0  0  0  0  0  0  0  0  0  0
    0.8216  -52.8704  -23.0961 C   0  0  0  0  0  0  0  0  0  0  0  0
    1.2093  -52.4939  -24.3711 C   0  0  0  0  0  0  0  0  0  0  0  0
    2.3181  -51.6866  -24.6227 C   0  0  0  0  0  0  0  0  0  0  0  0
    5.1365  -48.4513  -26.6586 C   0  0  0  0  0  0  0  0  0  0  0  0
    3.8237  -49.1249  -26.3512 C   0  0  0  0  0  0  0  0  0  0  0  0
    2.8494  -48.3718  -26.2785 O   0  0  0  0  0  0  0  0  0  0  0  0
    3.8281  -50.5061  -26.1807 N   0  0  0  0  0  0  0  0  0  0  0  0
    4.7572  -51.0268  -26.2753 H   0  0  0  0  0  0  0  0  0  0  0  0
    1.0140  -52.2172  -20.7159 C   0  0  0  0  0  0  0  0  0  0  0  0
    0.2141  -53.2340  -20.1695 C   0  0  0  0  0  0  0  0  0  0  0  0
   -0.3368  -53.0625  -18.9426 C   0  0  0  0  0  0  0  0  0  0  0  0
   -0.1563  -51.9100  -18.1650 C   0  0  0  0  0  0  0  0  0  0  0  0
    0.6391  -50.9143  -18.7220 C   0  0  0  0  0  0  0  0  0  0  0  0
    0.9297  -49.4154  -17.8185 Cl  0  0  0  0  0  0  0  0  0  0  0  0
    1.1988  -51.0892  -19.9679 C   0  0  0  0  0  0  0  0  0  0  0  0
   -0.7045  -51.8015  -17.0069 O   0  0  0  0  0  0  0  0  0  0  0  0
   -1.2359  -51.6928  -15.8450 C   0  0  0  0  0  0  0  0  0  0  0  0
   -1.9320  -50.3724  -15.5438 C   0  0  0  0  0  0  0  0  0  0  0  0
   -1.2135  -49.2029  -15.5476 C   0  0  0  0  0  0  0  0  0  0  0  0
   -1.8387  -47.9890  -15.2707 C   0  0  0  0  0  0  0  0  0  0  0  0
   -3.1870  -47.9808  -14.9937 C   0  0  0  0  0  0  0  0  0  0  0  0
   -3.8592  -49.1756  -15.0026 C   0  0  0  0  0  0  0  0  0  0  0  0
   -3.2365  -50.3384  -15.2727 N   0  0  0  0  0  0  0  0  0  0  0  0
 13 14  1  0  0  0
 14 15  2  0  0  0
 14 16  1  0  0  0
 16  3  1  0  0  0
  3  4  2  0  0  0
  4  5  1  0  0  0
  5  6  2  0  0  0
  6  7  1  0  0  0
  7  8  2  0  0  0
  8  9  1  0  0  0
  9 10  2  0  0  0
 10  1  1  0  0  0
  1 18  1  0  0  0
 18 19  2  0  0  0
 19 20  1  0  0  0
 20 21  2  0  0  0
 21 25  1  0  0  0
 25 26  1  0  0  0
 26 27  1  0  0  0
 27 28  2  0  0  0
 28 29  1  0  0  0
 29 30  2  0  0  0
 30 31  1  0  0  0
 31 32  2  0  0  0
 21 22  1  0  0  0
 22 23  1  0  0  0
 22 24  2  0  0  0
 10 11  1  0  0  0
 11 12  2  0  0  0
 12  3  1  0  0  0
 11  6  1  0  0  0
 24 18  1  0  0  0
 32 27  1  0  0  0
 16 17  1  0  0  0
  1  2  1  0  0  0
M  END
> <minimizedAffinity>
-7.18348

> <CNNscore>
0.3679750264

> <CNNaffinity>
6.7688140869

> <CNN_VS>
2.4907546043

> <CNNaffinity_variance>
0.5427000523

$$$$
[H]c1nc(N([H])c2c([H])c([H])c(OC([H])([H])c3nc([H])c([H])c([H])c3[H])c(Cl)c2[H])c2c([H])c(N([H])C(=O)C([H])([H])[H])c([H])c([H])c2n1


 32 35  0  0  0  0  0  0  0  0999 V2000
   -1.0291  -52.3950  -16.5589 N   0  0  0  0  0  0  0  0  0  0  0  0
   -0.3345  -52.8026  -15.8999 H   0  0  0  0  0  0  0  0  0  0  0  0
   -1.3004  -48.3706  -15.3724 C   0  0  0  0  0  0  0  0  0  0  0  0
   -2.5586  -47.8995  -14.9509 C   0  0  0  0  0  0  0  0  0  0  0  0
   -3.6318  -48.7383  -14.9227 C   0  0  0  0  0  0  0  0  0  0  0  0
   -3.5438  -50.0647  -15.2977 C   0  0  0  0  0  0  0  0  0  0  0  0
   -4.6157  -50.8709  -15.2576 N   0  0  0  0  0  0  0  0  0  0  0  0
   -4.5058  -52.1737  -15.6283 C   0  0  0  0  0  0  0  0  0  0  0  0
   -3.3492  -52.6812  -16.0362 N   0  0  0  0  0  0  0  0  0  0  0  0
   -2.2528  -51.8829  -16.0844 C   0  0  0  0  0  0  0  0  0  0  0  0
   -2.3274  -50.5507  -15.7139 C   0  0  0  0  0  0  0  0  0  0  0  0
   -1.2308  -49.6899  -15.7417 C   0  0  0  0  0  0  0  0  0  0  0  0
    1.7405  -46.1773  -14.5783 C   0  0  0  0  0  0  0  0  0  0  0  0
    0.6361  -47.1750  -14.3404 C   0  0  0  0  0  0  0  0  0  0  0  0
    0.5922  -47.6511  -13.2033 O   0  0  0  0  0  0  0  0  0  0  0  0
   -0.2166  -47.4635  -15.4018 N   0  0  0  0  0  0  0  0  0  0  0  0
   -0.0528  -46.9671  -16.3346 H   0  0  0  0  0  0  0  0  0  0  0  0
   -0.6977  -52.3673  -17.9487 C   0  0  0  0  0  0  0  0  0  0  0  0
    0.2821  -51.4473  -18.3559 C   0  0  0  0  0  0  0  0  0  0  0  0
    0.6585  -51.4063  -19.6578 C   0  0  0  0  0  0  0  0  0  0  0  0
    0.1216  -52.2415  -20.6476 C   0  0  0  0  0  0  0  0  0  0  0  0
   -0.8468  -53.1462  -20.2258 C   0  0  0  0  0  0  0  0  0  0  0  0
   -1.5894  -54.2482  -21.4012 Cl  0  0  0  0  0  0  0  0  0  0  0  0
   -1.2283  -53.1878  -18.9034 C   0  0  0  0  0  0  0  0  0  0  0  0
    0.5164  -52.1577  -21.8685 O   0  0  0  0  0  0  0  0  0  0  0  0
    0.8986  -52.0622  -23.0888 C   0  0  0  0  0  0  0  0  0  0  0  0
    2.4029  -52.0638  -23.3253 C   0  0  0  0  0  0  0  0  0  0  0  0
    2.9047  -52.4571  -24.5408 C   0  0  0  0  0  0  0  0  0  0  0  0
    4.2793  -52.4655  -24.7681 C   0  0  0  0  0  0  0  0  0  0  0  0
    5.1254  -52.0733  -23.7558 C   0  0  0  0  0  0  0  0  0  0  0  0
    4.5743  -51.6893  -22.5606 C   0  0  0  0  0  0  0  0  0  0  0  0
    3.2428  -51.6883  -22.3608 N   0  0  0  0  0  0  0  0  0  0  0  0
 13 14  1  0  0  0
 14 15  2  0  0  0
 14 16  1  0  0  0
 16  3  1  0  0  0
  3  4  2  0  0  0
  4  5  1  0  0  0
  5  6  2  0  0  0
  6  7  1  0  0  0
  7  8  2  0  0  0
  8  9  1  0  0  0
  9 10  2  0  0  0
 10  1  1  0  0  0
  1 18  1  0  0  0
 18 19  2  0  0  0
 19 20  1  0  0  0
 20 21  2  0  0  0
 21 25  1  0  0  0
 25 26  1  0  0  0
 26 27  1  0  0  0
 27 28  2  0  0  0
 28 29  1  0  0  0
 29 30  2  0  0  0
 30 31  1  0  0  0
 31 32  2  0  0  0
 21 22  1  0  0  0
 22 23  1  0  0  0
 22 24  2  0  0  0
 10 11  1  0  0  0
 11 12  2  0  0  0
 12  3  1  0  0  0
 11  6  1  0  0  0
 24 18  1  0  0  0
 32 27  1  0  0  0
 16 17  1  0  0  0
  1  2  1  0  0  0
M  END
> <minimizedAffinity>
-7.32780

> <CNNscore>
0.3537368774

> <CNNaffinity>
6.2287254333

> <CNN_VS>
2.2033298016

> <CNNaffinity_variance>
0.1049679965

$$$$
[H]c1nc(N([H])c2c([H])c([H])c(OC([H])([H])c3nc([H])c([H])c([H])c3[H])c(Cl)c2[H])c2c([H])c(N([H])C(=O)C([H])([H])[H])c([H])c([H])c2n1


 32 35  0  0  0  0  0  0  0  0999 V2000
   -0.5465  -51.4801  -21.5378 N   0  0  0  0  0  0  0  0  0  0  0  0
   -1.1653  -50.6644  -21.7236 H   0  0  0  0  0  0  0  0  0  0  0  0
    0.9588  -51.9094  -25.4400 C   0  0  0  0  0  0  0  0  0  0  0  0
    0.7885  -53.1572  -26.0699 C   0  0  0  0  0  0  0  0  0  0  0  0
    0.1436  -54.1696  -25.4255 C   0  0  0  0  0  0  0  0  0  0  0  0
   -0.3652  -54.0281  -24.1492 C   0  0  0  0  0  0  0  0  0  0  0  0
   -0.9993  -55.0403  -23.5377 N   0  0  0  0  0  0  0  0  0  0  0  0
   -1.4948  -54.8784  -22.2827 C   0  0  0  0  0  0  0  0  0  0  0  0
   -1.3678  -53.7283  -21.6323 N   0  0  0  0  0  0  0  0  0  0  0  0
   -0.7297  -52.6919  -22.2327 C   0  0  0  0  0  0  0  0  0  0  0  0
   -0.2125  -52.8207  -23.5108 C   0  0  0  0  0  0  0  0  0  0  0  0
    0.4480  -51.7863  -24.1729 C   0  0  0  0  0  0  0  0  0  0  0  0
    3.5287  -49.4140  -26.8025 C   0  0  0  0  0  0  0  0  0  0  0  0
    2.9777  -50.5278  -25.9496 C   0  0  0  0  0  0  0  0  0  0  0  0
    3.7753  -51.0221  -25.1488 O   0  0  0  0  0  0  0  0  0  0  0  0
    1.6475  -50.8909  -26.1377 N   0  0  0  0  0  0  0  0  0  0  0  0
    1.0769  -50.3665  -26.8744 H   0  0  0  0  0  0  0  0  0  0  0  0
    0.4907  -51.3266  -20.5667 C   0  0  0  0  0  0  0  0  0  0  0  0
    0.1220  -51.4193  -19.2148 C   0  0  0  0  0  0  0  0  0  0  0  0
    1.0744  -51.3170  -18.2552 C   0  0  0  0  0  0  0  0  0  0  0  0
    2.4350  -51.1202  -18.5300 C   0  0  0  0  0  0  0  0  0  0  0  0
    2.7813  -51.0314  -19.8741 C   0  0  0  0  0  0  0  0  0  0  0  0
    4.4781  -50.7823  -20.3284 Cl  0  0  0  0  0  0  0  0  0  0  0  0
    1.8138  -51.1359  -20.8483 C   0  0  0  0  0  0  0  0  0  0  0  0
    3.2951  -51.0295  -17.5784 O   0  0  0  0  0  0  0  0  0  0  0  0
    4.1608  -50.9272  -16.6381 C   0  0  0  0  0  0  0  0  0  0  0  0
    3.7434  -51.4670  -15.2768 C   0  0  0  0  0  0  0  0  0  0  0  0
    2.7297  -50.8579  -14.5800 C   0  0  0  0  0  0  0  0  0  0  0  0
    2.3409  -51.3409  -13.3323 C   0  0  0  0  0  0  0  0  0  0  0  0
    2.9884  -52.4374  -12.8099 C   0  0  0  0  0  0  0  0  0  0  0  0
    3.9940  -53.0094  -13.5454 C   0  0  0  0  0  0  0  0  0  0  0  0
    4.3550  -52.5274  -14.7496 N   0  0  0  0  0  0  0  0  0  0  0  0
 13 14  1  0  0  0
 14 15  2  0  0  0
 14 16  1  0  0  0
 16  3  1  0  0  0
  3  4  2  0  0  0
  4  5  1  0  0  0
  5  6  2  0  0  0
  6  7  1  0  0  0
  7  8  2  0  0  0
  8  9  1  0  0  0
  9 10  2  0  0  0
 10  1  1  0  0  0
  1 18  1  0  0  0
 18 19  2  0  0  0
 19 20  1  0  0  0
 20 21  2  0  0  0
 21 25  1  0  0  0
 25 26  1  0  0  0
 26 27  1  0  0  0
 27 28  2  0  0  0
 28 29  1  0  0  0
 29 30  2  0  0  0
 30 31  1  0  0  0
 31 32  2  0  0  0
 21 22  1  0  0  0
 22 23  1  0  0  0
 22 24  2  0  0  0
 10 11  1  0  0  0
 11 12  2  0  0  0
 12  3  1  0  0  0
 11  6  1  0  0  0
 24 18  1  0  0  0
 32 27  1  0  0  0
 16 17  1  0  0  0
  1  2  1  0  0  0
M  END
> <minimizedAffinity>
-6.97820

> <CNNscore>
0.3194545209

> <CNNaffinity>
6.7953376770

> <CNN_VS>
2.1708014011

> <CNNaffinity_variance>
0.1924149096

$$$$
[H]c1nc(N([H])c2c([H])c([H])c(OC([H])([H])c3nc([H])c([H])c([H])c3[H])c(Cl)c2[H])c2c([H])c(N([H])C(=O)C([H])([H])[H])c([H])c([H])c2n1


 32 35  0  0  0  0  0  0  0  0999 V2000
   -1.1136  -52.4282  -24.9395 N   0  0  0  0  0  0  0  0  0  0  0  0
   -1.9563  -51.9226  -25.2815 H   0  0  0  0  0  0  0  0  0  0  0  0
    2.4229  -50.5412  -26.2081 C   0  0  0  0  0  0  0  0  0  0  0  0
    3.2687  -51.2588  -27.0755 C   0  0  0  0  0  0  0  0  0  0  0  0
    2.9268  -52.5116  -27.4874 C   0  0  0  0  0  0  0  0  0  0  0  0
    1.7589  -53.1295  -27.0846 C   0  0  0  0  0  0  0  0  0  0  0  0
    1.4438  -54.3633  -27.5076 N   0  0  0  0  0  0  0  0  0  0  0  0
    0.2880  -54.9512  -27.1011 C   0  0  0  0  0  0  0  0  0  0  0  0
   -0.5533  -54.3302  -26.2836 N   0  0  0  0  0  0  0  0  0  0  0  0
   -0.2535  -53.0818  -25.8439 C   0  0  0  0  0  0  0  0  0  0  0  0
    0.9151  -52.4517  -26.2376 C   0  0  0  0  0  0  0  0  0  0  0  0
    1.2678  -51.1696  -25.8176 C   0  0  0  0  0  0  0  0  0  0  0  0
    3.9020  -47.5068  -24.3935 C   0  0  0  0  0  0  0  0  0  0  0  0
    3.5741  -48.9537  -24.6592 C   0  0  0  0  0  0  0  0  0  0  0  0
    4.0124  -49.7542  -23.8293 O   0  0  0  0  0  0  0  0  0  0  0  0
    2.8227  -49.2506  -25.7923 N   0  0  0  0  0  0  0  0  0  0  0  0
    2.5115  -48.4439  -26.4214 H   0  0  0  0  0  0  0  0  0  0  0  0
   -0.8584  -52.4303  -23.5334 C   0  0  0  0  0  0  0  0  0  0  0  0
   -1.1391  -53.6145  -22.8326 C   0  0  0  0  0  0  0  0  0  0  0  0
   -0.8806  -53.6801  -21.5033 C   0  0  0  0  0  0  0  0  0  0  0  0
   -0.3387  -52.6188  -20.7647 C   0  0  0  0  0  0  0  0  0  0  0  0
   -0.0668  -51.4546  -21.4754 C   0  0  0  0  0  0  0  0  0  0  0  0
    0.6204  -50.0526  -20.6330 Cl  0  0  0  0  0  0  0  0  0  0  0  0
   -0.3291  -51.3887  -22.8256 C   0  0  0  0  0  0  0  0  0  0  0  0
   -0.1149  -52.7373  -19.5040 O   0  0  0  0  0  0  0  0  0  0  0  0
    0.0966  -52.8677  -18.2461 C   0  0  0  0  0  0  0  0  0  0  0  0
   -1.0259  -52.4117  -17.3236 C   0  0  0  0  0  0  0  0  0  0  0  0
   -2.2505  -53.0291  -17.3781 C   0  0  0  0  0  0  0  0  0  0  0  0
   -3.2862  -52.6188  -16.5412 C   0  0  0  0  0  0  0  0  0  0  0  0
   -3.0621  -51.5857  -15.6596 C   0  0  0  0  0  0  0  0  0  0  0  0
   -1.8215  -51.0024  -15.6442 C   0  0  0  0  0  0  0  0  0  0  0  0
   -0.8337  -51.4137  -16.4614 N   0  0  0  0  0  0  0  0  0  0  0  0
 13 14  1  0  0  0
 14 15  2  0  0  0
 14 16  1  0  0  0
 16  3  1  0  0  0
  3  4  2  0  0  0
  4  5  1  0  0  0
  5  6  2  0  0  0
  6  7  1  0  0  0
  7  8  2  0  0  0
  8  9  1  0  0  0
  9 10  2  0  0  0
 10  1  1  0  0  0
  1 18  1  0  0  0
 18 19  2  0  0  0
 19 20  1  0  0  0
 20 21  2  0  0  0
 21 25  1  0  0  0
 25 26  1  0  0  0
 26 27  1  0  0  0
 27 28  2  0  0  0
 28 29  1  0  0  0
 29 30  2  0  0  0
 30 31  1  0  0  0
 31 32  2  0  0  0
 21 22  1  0  0  0
 22 23  1  0  0  0
 22 24  2  0  0  0
 10 11  1  0  0  0
 11 12  2  0  0  0
 12  3  1  0  0  0
 11  6  1  0  0  0
 24 18  1  0  0  0
 32 27  1  0  0  0
 16 17  1  0  0  0
  1  2  1  0  0  0
M  END
> <minimizedAffinity>
-6.64563

> <CNNscore>
0.2117216736

> <CNNaffinity>
6.6615104675

> <CNN_VS>
1.4103860855

> <CNNaffinity_variance>
0.1226699948

$$$$
[H]c1nc(N([H])c2c([H])c([H])c(OC([H])([H])c3nc([H])c([H])c([H])c3[H])c(Cl)c2[H])c2c([H])c(N([H])C(=O)C([H])([H])[H])c([H])c([H])c2n1


 32 35  0  0  0  0  0  0  0  0999 V2000
    1.5450  -52.8341  -21.1064 N   0  0  0  0  0  0  0  0  0  0  0  0
    2.5317  -53.1598  -21.0504 H   0  0  0  0  0  0  0  0  0  0  0  0
    2.6418  -50.3312  -24.3017 C   0  0  0  0  0  0  0  0  0  0  0  0
    1.9312  -50.4683  -25.5096 C   0  0  0  0  0  0  0  0  0  0  0  0
    0.9195  -51.3749  -25.6123 C   0  0  0  0  0  0  0  0  0  0  0  0
    0.5464  -52.1888  -24.5605 C   0  0  0  0  0  0  0  0  0  0  0  0
   -0.4562  -53.0717  -24.6867 N   0  0  0  0  0  0  0  0  0  0  0  0
   -0.8088  -53.8607  -23.6380 C   0  0  0  0  0  0  0  0  0  0  0  0
   -0.1796  -53.7825  -22.4718 N   0  0  0  0  0  0  0  0  0  0  0  0
    0.8374  -52.8963  -22.3231 C   0  0  0  0  0  0  0  0  0  0  0  0
    1.2236  -52.0762  -23.3700 C   0  0  0  0  0  0  0  0  0  0  0  0
    2.2587  -51.1474  -23.2679 C   0  0  0  0  0  0  0  0  0  0  0  0
    4.8800  -47.2848  -23.6712 C   0  0  0  0  0  0  0  0  0  0  0  0
    3.6410  -48.1419  -23.6286 C   0  0  0  0  0  0  0  0  0  0  0  0
    2.6768  -47.6453  -23.0412 O   0  0  0  0  0  0  0  0  0  0  0  0
    3.6947  -49.3898  -24.2425 N   0  0  0  0  0  0  0  0  0  0  0  0
    4.6071  -49.6845  -24.7157 H   0  0  0  0  0  0  0  0  0  0  0  0
    0.9365  -52.3324  -19.9146 C   0  0  0  0  0  0  0  0  0  0  0  0
    1.4559  -51.1412  -19.3821 C   0  0  0  0  0  0  0  0  0  0  0  0
    0.8905  -50.6042  -18.2730 C   0  0  0  0  0  0  0  0  0  0  0  0
   -0.2043  -51.1729  -17.6070 C   0  0  0  0  0  0  0  0  0  0  0  0
   -0.7054  -52.3517  -18.1489 C   0  0  0  0  0  0  0  0  0  0  0  0
   -2.0900  -53.1517  -17.3805 Cl  0  0  0  0  0  0  0  0  0  0  0  0
   -0.1311  -52.8965  -19.2756 C   0  0  0  0  0  0  0  0  0  0  0  0
   -0.6997  -50.6194  -16.5573 O   0  0  0  0  0  0  0  0  0  0  0  0
   -1.2025  -50.0571  -15.5204 C   0  0  0  0  0  0  0  0  0  0  0  0
   -2.3842  -50.7684  -14.8750 C   0  0  0  0  0  0  0  0  0  0  0  0
   -3.6313  -50.6760  -15.4407 C   0  0  0  0  0  0  0  0  0  0  0  0
   -4.7207  -51.3200  -14.8578 C   0  0  0  0  0  0  0  0  0  0  0  0
   -4.5268  -52.0498  -13.7070 C   0  0  0  0  0  0  0  0  0  0  0  0
   -3.2619  -52.1110  -13.1819 C   0  0  0  0  0  0  0  0  0  0  0  0
   -2.2220  -51.4812  -13.7605 N   0  0  0  0  0  0  0  0  0  0  0  0
 13 14  1  0  0  0
 14 15  2  0  0  0
 14 16  1  0  0  0
 16  3  1  0  0  0
  3  4  2  0  0  0
  4  5  1  0  0  0
  5  6  2  0  0  0
  6  7  1  0  0  0
  7  8  2  0  0  0
  8  9  1  0  0  0
  9 10  2  0  0  0
 10  1  1  0  0  0
  1 18  1  0  0  0
 18 19  2  0  0  0
 19 20  1  0  0  0
 20 21  2  0  0  0
 21 25  1  0  0  0
 25 26  1  0  0  0
 26 27  1  0  0  0
 27 28  2  0  0  0
 28 29  1  0  0  0
 29 30  2  0  0  0
 30 31  1  0  0  0
 31 32  2  0  0  0
 21 22  1  0  0  0
 22 23  1  0  0  0
 22 24  2  0  0  0
 10 11  1  0  0  0
 11 12  2  0  0  0
 12  3  1  0  0  0
 11  6  1  0  0  0
 24 18  1  0  0  0
 32 27  1  0  0  0
 16 17  1  0  0  0
  1  2  1  0  0  0
M  END
> <minimizedAffinity>
-6.64107

> <CNNscore>
0.1913852096

> <CNNaffinity>
6.4773688316

> <CNN_VS>
1.2396725416

> <CNNaffinity_variance>
0.1366525888

$$$$
[H]c1nc(N([H])c2c([H])c([H])c(OC([H])([H])c3nc([H])c([H])c([H])c3[H])c(Cl)c2[H])c2c([H])c(N([H])C(=O)C([H])([H])[H])c([H])c([H])c2n1


 32 35  0  0  0  0  0  0  0  0999 V2000
   -1.1843  -53.2339  -17.3334 N   0  0  0  0  0  0  0  0  0  0  0  0
   -0.7323  -54.0671  -16.9040 H   0  0  0  0  0  0  0  0  0  0  0  0
    0.1338  -50.4845  -14.4385 C   0  0  0  0  0  0  0  0  0  0  0  0
   -0.8438  -49.7173  -13.7765 C   0  0  0  0  0  0  0  0  0  0  0  0
   -2.1637  -49.8865  -14.0686 C   0  0  0  0  0  0  0  0  0  0  0  0
   -2.6019  -50.7989  -15.0085 C   0  0  0  0  0  0  0  0  0  0  0  0
   -3.9084  -50.9484  -15.2754 N   0  0  0  0  0  0  0  0  0  0  0  0
   -4.3179  -51.8543  -16.2019 C   0  0  0  0  0  0  0  0  0  0  0  0
   -3.4482  -52.6089  -16.8624 N   0  0  0  0  0  0  0  0  0  0  0  0
   -2.1222  -52.4733  -16.6077 C   0  0  0  0  0  0  0  0  0  0  0  0
   -1.6688  -51.5607  -15.6700 C   0  0  0  0  0  0  0  0  0  0  0  0
   -0.3186  -51.3853  -15.3689 C   0  0  0  0  0  0  0  0  0  0  0  0
    3.7721  -49.2931  -14.2611 C   0  0  0  0  0  0  0  0  0  0  0  0
    2.3536  -49.3834  -14.7624 C   0  0  0  0  0  0  0  0  0  0  0  0
    2.0846  -48.6504  -15.7173 O   0  0  0  0  0  0  0  0  0  0  0  0
    1.4931  -50.2665  -14.1170 N   0  0  0  0  0  0  0  0  0  0  0  0
    1.8735  -50.8401  -13.2987 H   0  0  0  0  0  0  0  0  0  0  0  0
   -0.8181  -52.8879  -18.6708 C   0  0  0  0  0  0  0  0  0  0  0  0
   -0.0372  -51.7335  -18.8433 C   0  0  0  0  0  0  0  0  0  0  0  0
    0.3672  -51.3818  -20.0887 C   0  0  0  0  0  0  0  0  0  0  0  0
    0.0498  -52.1119  -21.2428 C   0  0  0  0  0  0  0  0  0  0  0  0
   -0.7235  -53.2521  -21.0524 C   0  0  0  0  0  0  0  0  0  0  0  0
   -1.1802  -54.2459  -22.4493 Cl  0  0  0  0  0  0  0  0  0  0  0  0
   -1.1336  -53.6090  -19.7873 C   0  0  0  0  0  0  0  0  0  0  0  0
    0.4606  -51.7302  -22.4000 O   0  0  0  0  0  0  0  0  0  0  0  0
    0.8841  -51.3435  -23.5469 C   0  0  0  0  0  0  0  0  0  0  0  0
    0.4173  -52.1572  -24.7465 C   0  0  0  0  0  0  0  0  0  0  0  0
   -0.6606  -51.7341  -25.4833 C   0  0  0  0  0  0  0  0  0  0  0  0
   -1.0989  -52.4715  -26.5812 C   0  0  0  0  0  0  0  0  0  0  0  0
   -0.4343  -53.6298  -26.9152 C   0  0  0  0  0  0  0  0  0  0  0  0
    0.6364  -54.0089  -26.1474 C   0  0  0  0  0  0  0  0  0  0  0  0
    1.0442  -53.2821  -25.0900 N   0  0  0  0  0  0  0  0  0  0  0  0
 13 14  1  0  0  0
 14 15  2  0  0  0
 14 16  1  0  0  0
 16  3  1  0  0  0
  3  4  2  0  0  0
  4  5  1  0  0  0
  5  6  2  0  0  0
  6  7  1  0  0  0
  7  8  2  0  0  0
  8  9  1  0  0  0
  9 10  2  0  0  0
 10  1  1  0  0  0
  1 18  1  0  0  0
 18 19  2  0  0  0
 19 20  1  0  0  0
 20 21  2  0  0  0
 21 25  1  0  0  0
 25 26  1  0  0  0
 26 27  1  0  0  0
 27 28  2  0  0  0
 28 29  1  0  0  0
 29 30  2  0  0  0
 30 31  1  0  0  0
 31 32  2  0  0  0
 21 22  1  0  0  0
 22 23  1  0  0  0
 22 24  2  0  0  0
 10 11  1  0  0  0
 11 12  2  0  0  0
 12  3  1  0  0  0
 11  6  1  0  0  0
 24 18  1  0  0  0
 32 27  1  0  0  0
 16 17  1  0  0  0
  1  2  1  0  0  0
M  END
> <minimizedAffinity>
-7.39025

> <CNNscore>
0.1693184078

> <CNNaffinity>
6.3857798576

> <CNN_VS>
1.0812300444

> <CNNaffinity_variance>
0.0900922045

$$$$
[H]c1nc(N([H])c2c([H])c([H])c(OC([H])([H])c3nc([H])c([H])c([H])c3[H])c(Cl)c2[H])c2c([H])c(N([H])C(=O)C([H])([H])[H])c([H])c([H])c2n1


 32 35  0  0  0  0  0  0  0  0999 V2000
   -0.9811  -52.5145  -16.6404 N   0  0  0  0  0  0  0  0  0  0  0  0
   -0.3705  -53.0499  -15.9898 H   0  0  0  0  0  0  0  0  0  0  0  0
   -1.6764  -48.7382  -14.9275 C   0  0  0  0  0  0  0  0  0  0  0  0
   -3.0061  -48.4031  -14.6080 C   0  0  0  0  0  0  0  0  0  0  0  0
   -4.0130  -49.2910  -14.8404 C   0  0  0  0  0  0  0  0  0  0  0  0
   -3.7871  -50.5381  -15.3895 C   0  0  0  0  0  0  0  0  0  0  0  0
   -4.7964  -51.3955  -15.6054 N   0  0  0  0  0  0  0  0  0  0  0  0
   -4.5512  -52.6189  -16.1439 C   0  0  0  0  0  0  0  0  0  0  0  0
   -3.3210  -52.9974  -16.4685 N   0  0  0  0  0  0  0  0  0  0  0  0
   -2.2860  -52.1451  -16.2585 C   0  0  0  0  0  0  0  0  0  0  0  0
   -2.4984  -50.8909  -15.7113 C   0  0  0  0  0  0  0  0  0  0  0  0
   -1.4699  -49.9801  -15.4722 C   0  0  0  0  0  0  0  0  0  0  0  0
    1.2558  -46.6892  -13.5520 C   0  0  0  0  0  0  0  0  0  0  0  0
    0.2448  -47.8042  -13.6308 C   0  0  0  0  0  0  0  0  0  0  0  0
    0.3204  -48.6483  -12.7344 O   0  0  0  0  0  0  0  0  0  0  0  0
   -0.6637  -47.7822  -14.6848 N   0  0  0  0  0  0  0  0  0  0  0  0
   -0.6060  -46.9794  -15.3887 H   0  0  0  0  0  0  0  0  0  0  0  0
   -0.4514  -52.1643  -17.9207 C   0  0  0  0  0  0  0  0  0  0  0  0
   -0.9133  -52.8952  -19.0273 C   0  0  0  0  0  0  0  0  0  0  0  0
   -0.4691  -52.5782  -20.2685 C   0  0  0  0  0  0  0  0  0  0  0  0
    0.4423  -51.5445  -20.5261 C   0  0  0  0  0  0  0  0  0  0  0  0
    0.8882  -50.8315  -19.4183 C   0  0  0  0  0  0  0  0  0  0  0  0
    2.0438  -49.5032  -19.6368 Cl  0  0  0  0  0  0  0  0  0  0  0  0
    0.4364  -51.1535  -18.1581 C   0  0  0  0  0  0  0  0  0  0  0  0
    0.8299  -51.2888  -21.7252 O   0  0  0  0  0  0  0  0  0  0  0  0
    1.2290  -51.0245  -22.9148 C   0  0  0  0  0  0  0  0  0  0  0  0
    0.6228  -51.8648  -24.0307 C   0  0  0  0  0  0  0  0  0  0  0  0
    0.5446  -51.3585  -25.3041 C   0  0  0  0  0  0  0  0  0  0  0  0
   -0.0105  -52.1167  -26.3327 C   0  0  0  0  0  0  0  0  0  0  0  0
   -0.4788  -53.3803  -26.0523 C   0  0  0  0  0  0  0  0  0  0  0  0
   -0.3774  -53.8398  -24.7646 C   0  0  0  0  0  0  0  0  0  0  0  0
    0.1626  -53.0912  -23.7844 N   0  0  0  0  0  0  0  0  0  0  0  0
 13 14  1  0  0  0
 14 15  2  0  0  0
 14 16  1  0  0  0
 16  3  1  0  0  0
  3  4  2  0  0  0
  4  5  1  0  0  0
  5  6  2  0  0  0
  6  7  1  0  0  0
  7  8  2  0  0  0
  8  9  1  0  0  0
  9 10  2  0  0  0
 10  1  1  0  0  0
  1 18  1  0  0  0
 18 19  2  0  0  0
 19 20  1  0  0  0
 20 21  2  0  0  0
 21 25  1  0  0  0
 25 26  1  0  0  0
 26 27  1  0  0  0
 27 28  2  0  0  0
 28 29  1  0  0  0
 29 30  2  0  0  0
 30 31  1  0  0  0
 31 32  2  0  0  0
 21 22  1  0  0  0
 22 23  1  0  0  0
 22 24  2  0  0  0
 10 11  1  0  0  0
 11 12  2  0  0  0
 12  3  1  0  0  0
 11  6  1  0  0  0
 24 18  1  0  0  0
 32 27  1  0  0  0
 16 17  1  0  0  0
  1  2  1  0  0  0
M  END
> <minimizedAffinity>
-7.19248

> <CNNscore>
0.1656620651

> <CNNaffinity>
6.1885399818

> <CNN_VS>
1.0252063274

> <CNNaffinity_variance>
0.0612134263

$$$$
[H]C([H])=C([H])C(=O)N1c2c([H])c(N([H])c3nc(N([H])c4c([H])nc(OC([H])([H])[H])c([H])c4[H])nc([H])c3F)c([H])c([H])c2OC([H])([H])C1([H])[H]


 33 36  0  0  0  0  0  0  0  0999 V2000
   -0.4379  -53.9701  -21.9670 C   0  0  0  0  0  0  0  0  0  0  0  0
   -1.4573  -54.1819  -21.1285 N   0  0  0  0  0  0  0  0  0  0  0  0
   -1.5877  -53.6726  -19.9045 C   0  0  0  0  0  0  0  0  0  0  0  0
   -0.5878  -52.8487  -19.4441 C   0  0  0  0  0  0  0  0  0  0  0  0
   -0.6354  -52.2850  -18.2089 F   0  0  0  0  0  0  0  0  0  0  0  0
    0.5160  -52.5850  -20.2805 C   0  0  0  0  0  0  0  0  0  0  0  0
    0.5359  -53.1485  -21.4789 N   0  0  0  0  0  0  0  0  0  0  0  0
   -0.3209  -54.5174  -23.2594 N   0  0  0  0  0  0  0  0  0  0  0  0
   -0.0588  -55.5548  -23.2846 H   0  0  0  0  0  0  0  0  0  0  0  0
   -0.7562  -52.8261  -27.0955 C   0  0  0  0  0  0  0  0  0  0  0  0
   -1.1652  -52.1384  -25.9781 C   0  0  0  0  0  0  0  0  0  0  0  0
   -1.0371  -52.6801  -24.6967 C   0  0  0  0  0  0  0  0  0  0  0  0
   -0.4962  -53.9210  -24.5065 C   0  0  0  0  0  0  0  0  0  0  0  0
   -0.0952  -54.5797  -25.6842 C   0  0  0  0  0  0  0  0  0  0  0  0
   -0.2270  -54.0461  -26.8894 N   0  0  0  0  0  0  0  0  0  0  0  0
   -0.3064  -52.8494  -29.5057 C   0  0  0  0  0  0  0  0  0  0  0  0
   -0.8854  -52.2869  -28.3557 O   0  0  0  0  0  0  0  0  0  0  0  0
    1.4890  -51.7242  -19.7675 N   0  0  0  0  0  0  0  0  0  0  0  0
    1.3322  -51.2825  -18.8201 H   0  0  0  0  0  0  0  0  0  0  0  0
    2.7039  -51.3811  -20.4146 C   0  0  0  0  0  0  0  0  0  0  0  0
    3.7474  -50.6948  -19.8631 C   0  0  0  0  0  0  0  0  0  0  0  0
    4.9223  -50.4190  -20.5793 C   0  0  0  0  0  0  0  0  0  0  0  0
    5.0893  -50.8245  -21.8812 C   0  0  0  0  0  0  0  0  0  0  0  0
    6.2119  -50.5947  -22.6527 O   0  0  0  0  0  0  0  0  0  0  0  0
    6.4909  -51.1852  -23.8900 C   0  0  0  0  0  0  0  0  0  0  0  0
    5.5320  -52.3182  -24.2281 C   0  0  0  0  0  0  0  0  0  0  0  0
    4.1986  -51.9455  -23.8090 N   0  0  0  0  0  0  0  0  0  0  0  0
    3.0551  -51.9347  -24.6422 C   0  0  0  0  0  0  0  0  0  0  0  0
    1.9217  -51.4794  -24.2975 O   0  0  0  0  0  0  0  0  0  0  0  0
    4.0332  -51.5175  -22.4394 C   0  0  0  0  0  0  0  0  0  0  0  0
    2.8815  -51.7971  -21.7576 C   0  0  0  0  0  0  0  0  0  0  0  0
    3.1644  -52.4789  -25.9897 C   0  0  0  0  0  0  0  0  0  0  0  0
    2.7702  -51.7647  -27.0532 C   0  0  0  0  0  0  0  0  0  0  0  0
 16 17  1  0  0  0
 17 10  1  0  0  0
 10 11  2  0  0  0
 11 12  1  0  0  0
 12 13  2  0  0  0
 13  8  1  0  0  0
  8  1  1  0  0  0
  1  2  2  0  0  0
  2  3  1  0  0  0
  3  4  2  0  0  0
  4  5  1  0  0  0
  4  6  1  0  0  0
  6 18  1  0  0  0
 18 20  1  0  0  0
 20 21  2  0  0  0
 21 22  1  0  0  0
 22 23  2  0  0  0
 23 24  1  0  0  0
 24 25  1  0  0  0
 25 26  1  0  0  0
 26 27  1  0  0  0
 27 28  1  0  0  0
 28 29  2  0  0  0
 28 32  1  0  0  0
 32 33  2  0  0  0
 27 30  1  0  0  0
 30 31  2  0  0  0
  6  7  2  0  0  0
 13 14  1  0  0  0
 14 15  2  0  0  0
 15 10  1  0  0  0
  7  1  1  0  0  0
 31 20  1  0  0  0
 30 23  1  0  0  0
  8  9  1  0  0  0
 18 19  1  0  0  0
M  END
> <minimizedAffinity>
-8.24418

> <CNNscore>
0.8833668232

> <CNNaffinity>
7.4984536171

> <CNN_VS>
6.6238851547

> <CNNaffinity_variance>
0.0496238470

$$$$
[H]C([H])=C([H])C(=O)N1c2c([H])c(N([H])c3nc(N([H])c4c([H])nc(OC([H])([H])[H])c([H])c4[H])nc([H])c3F)c([H])c([H])c2OC([H])([H])C1([H])[H]


 33 36  0  0  0  0  0  0  0  0999 V2000
   -0.7399  -53.8831  -22.4046 C   0  0  0  0  0  0  0  0  0  0  0  0
   -1.3860  -54.2382  -21.2895 N   0  0  0  0  0  0  0  0  0  0  0  0
   -1.2829  -53.6488  -20.0992 C   0  0  0  0  0  0  0  0  0  0  0  0
   -0.4357  -52.5714  -19.9897 C   0  0  0  0  0  0  0  0  0  0  0  0
   -0.2667  -51.9090  -18.8156 F   0  0  0  0  0  0  0  0  0  0  0  0
    0.2757  -52.1463  -21.1301 C   0  0  0  0  0  0  0  0  0  0  0  0
    0.0917  -52.8111  -22.2606 N   0  0  0  0  0  0  0  0  0  0  0  0
   -0.8655  -54.5194  -23.6547 N   0  0  0  0  0  0  0  0  0  0  0  0
   -1.2592  -55.5139  -23.6137 H   0  0  0  0  0  0  0  0  0  0  0  0
    0.1571  -53.2399  -27.5384 C   0  0  0  0  0  0  0  0  0  0  0  0
   -0.5537  -52.4184  -26.6964 C   0  0  0  0  0  0  0  0  0  0  0  0
   -0.9096  -52.8220  -25.4072 C   0  0  0  0  0  0  0  0  0  0  0  0
   -0.5612  -54.0558  -24.9331 C   0  0  0  0  0  0  0  0  0  0  0  0
    0.1647  -54.8548  -25.8366 C   0  0  0  0  0  0  0  0  0  0  0  0
    0.4908  -54.4508  -27.0552 N   0  0  0  0  0  0  0  0  0  0  0  0
   -0.4173  -52.6930  -29.8584 C   0  0  0  0  0  0  0  0  0  0  0  0
    0.5047  -52.8363  -28.8080 O   0  0  0  0  0  0  0  0  0  0  0  0
    1.1039  -51.0339  -20.9633 N   0  0  0  0  0  0  0  0  0  0  0  0
    0.8132  -50.2777  -20.2845 H   0  0  0  0  0  0  0  0  0  0  0  0
    2.3351  -50.8201  -21.6348 C   0  0  0  0  0  0  0  0  0  0  0  0
    3.4406  -51.6187  -21.5694 C   0  0  0  0  0  0  0  0  0  0  0  0
    4.6114  -51.3345  -22.2890 C   0  0  0  0  0  0  0  0  0  0  0  0
    4.7124  -50.2320  -23.1022 C   0  0  0  0  0  0  0  0  0  0  0  0
    5.8255  -49.8834  -23.8424 O   0  0  0  0  0  0  0  0  0  0  0  0
    5.8729  -48.9020  -24.8385 C   0  0  0  0  0  0  0  0  0  0  0  0
    4.4923  -48.3838  -25.2167 C   0  0  0  0  0  0  0  0  0  0  0  0
    3.6926  -48.2600  -24.0177 N   0  0  0  0  0  0  0  0  0  0  0  0
    3.0299  -47.0827  -23.5974 C   0  0  0  0  0  0  0  0  0  0  0  0
    2.4440  -46.9505  -22.4794 O   0  0  0  0  0  0  0  0  0  0  0  0
    3.5947  -49.4234  -23.1672 C   0  0  0  0  0  0  0  0  0  0  0  0
    2.4447  -49.6843  -22.4752 C   0  0  0  0  0  0  0  0  0  0  0  0
    3.0060  -45.9338  -24.4936 C   0  0  0  0  0  0  0  0  0  0  0  0
    2.0636  -44.9882  -24.3735 C   0  0  0  0  0  0  0  0  0  0  0  0
 16 17  1  0  0  0
 17 10  1  0  0  0
 10 11  2  0  0  0
 11 12  1  0  0  0
 12 13  2  0  0  0
 13  8  1  0  0  0
  8  1  1  0  0  0
  1  2  2  0  0  0
  2  3  1  0  0  0
  3  4  2  0  0  0
  4  5  1  0  0  0
  4  6  1  0  0  0
  6 18  1  0  0  0
 18 20  1  0  0  0
 20 21  2  0  0  0
 21 22  1  0  0  0
 22 23  2  0  0  0
 23 24  1  0  0  0
 24 25  1  0  0  0
 25 26  1  0  0  0
 26 27  1  0  0  0
 27 28  1  0  0  0
 28 29  2  0  0  0
 28 32  1  0  0  0
 32 33  2  0  0  0
 27 30  1  0  0  0
 30 31  2  0  0  0
  6  7  2  0  0  0
 13 14  1  0  0  0
 14 15  2  0  0  0
 15 10  1  0  0  0
  7  1  1  0  0  0
 31 20  1  0  0  0
 30 23  1  0  0  0
  8  9  1  0  0  0
 18 19  1  0  0  0
M  END
> <minimizedAffinity>
-7.97299

> <CNNscore>
0.7552075982

> <CNNaffinity>
7.5444383621

> <CNN_VS>
5.6976170540

> <CNNaffinity_variance>
0.1492956877

$$$$
[H]C([H])=C([H])C(=O)N1c2c([H])c(N([H])c3nc(N([H])c4c([H])nc(OC([H])([H])[H])c([H])c4[H])nc([H])c3F)c([H])c([H])c2OC([H])([H])C1([H])[H]


 33 36  0  0  0  0  0  0  0  0999 V2000
   -0.8420  -54.1764  -22.2427 C   0  0  0  0  0  0  0  0  0  0  0  0
   -1.7768  -54.2545  -21.2903 N   0  0  0  0  0  0  0  0  0  0  0  0
   -1.6965  -53.7376  -20.0651 C   0  0  0  0  0  0  0  0  0  0  0  0
   -0.5498  -53.0558  -19.7319 C   0  0  0  0  0  0  0  0  0  0  0  0
   -0.3794  -52.4960  -18.5058 F   0  0  0  0  0  0  0  0  0  0  0  0
    0.4751  -52.9375  -20.6926 C   0  0  0  0  0  0  0  0  0  0  0  0
    0.2818  -53.4935  -21.8789 N   0  0  0  0  0  0  0  0  0  0  0  0
   -0.9485  -54.7289  -23.5338 N   0  0  0  0  0  0  0  0  0  0  0  0
   -1.3528  -55.7195  -23.5652 H   0  0  0  0  0  0  0  0  0  0  0  0
    0.1586  -53.2165  -27.3091 C   0  0  0  0  0  0  0  0  0  0  0  0
   -0.5008  -52.4205  -26.4033 C   0  0  0  0  0  0  0  0  0  0  0  0
   -0.8835  -52.9004  -25.1483 C   0  0  0  0  0  0  0  0  0  0  0  0
   -0.6137  -54.1869  -24.7730 C   0  0  0  0  0  0  0  0  0  0  0  0
    0.0622  -54.9567  -25.7385 C   0  0  0  0  0  0  0  0  0  0  0  0
    0.4150  -54.4799  -26.9229 N   0  0  0  0  0  0  0  0  0  0  0  0
   -0.3375  -52.6593  -29.6447 C   0  0  0  0  0  0  0  0  0  0  0  0
    0.5328  -52.7376  -28.5444 O   0  0  0  0  0  0  0  0  0  0  0  0
    1.6063  -52.2157  -20.3045 N   0  0  0  0  0  0  0  0  0  0  0  0
    2.2878  -52.6585  -19.6287 H   0  0  0  0  0  0  0  0  0  0  0  0
    1.9378  -50.9097  -20.7481 C   0  0  0  0  0  0  0  0  0  0  0  0
    1.0652  -49.8793  -20.9509 C   0  0  0  0  0  0  0  0  0  0  0  0
    1.4918  -48.6110  -21.3735 C   0  0  0  0  0  0  0  0  0  0  0  0
    2.8165  -48.3334  -21.6090 C   0  0  0  0  0  0  0  0  0  0  0  0
    3.3166  -47.1145  -22.0244 O   0  0  0  0  0  0  0  0  0  0  0  0
    4.6670  -46.7496  -22.0533 C   0  0  0  0  0  0  0  0  0  0  0  0
    5.5621  -47.7598  -21.3493 C   0  0  0  0  0  0  0  0  0  0  0  0
    5.0937  -49.0943  -21.6532 N   0  0  0  0  0  0  0  0  0  0  0  0
    5.8842  -50.1301  -22.2045 C   0  0  0  0  0  0  0  0  0  0  0  0
    5.4296  -51.2510  -22.5892 O   0  0  0  0  0  0  0  0  0  0  0  0
    3.6989  -49.3759  -21.4053 C   0  0  0  0  0  0  0  0  0  0  0  0
    3.3029  -50.6179  -20.9924 C   0  0  0  0  0  0  0  0  0  0  0  0
    7.3186  -49.9167  -22.3479 C   0  0  0  0  0  0  0  0  0  0  0  0
    7.9552  -50.2620  -23.4758 C   0  0  0  0  0  0  0  0  0  0  0  0
 16 17  1  0  0  0
 17 10  1  0  0  0
 10 11  2  0  0  0
 11 12  1  0  0  0
 12 13  2  0  0  0
 13  8  1  0  0  0
  8  1  1  0  0  0
  1  2  2  0  0  0
  2  3  1  0  0  0
  3  4  2  0  0  0
  4  5  1  0  0  0
  4  6  1  0  0  0
  6 18  1  0  0  0
 18 20  1  0  0  0
 20 21  2  0  0  0
 21 22  1  0  0  0
 22 23  2  0  0  0
 23 24  1  0  0  0
 24 25  1  0  0  0
 25 26  1  0  0  0
 26 27  1  0  0  0
 27 28  1  0  0  0
 28 29  2  0  0  0
 28 32  1  0  0  0
 32 33  2  0  0  0
 27 30  1  0  0  0
 30 31  2  0  0  0
  6  7  2  0  0  0
 13 14  1  0  0  0
 14 15  2  0  0  0
 15 10  1  0  0  0
  7  1  1  0  0  0
 31 20  1  0  0  0
 30 23  1  0  0  0
  8  9  1  0  0  0
 18 19  1  0  0  0
M  END
> <minimizedAffinity>
-8.20231

> <CNNscore>
0.7343057990

> <CNNaffinity>
7.4006538391

> <CNN_VS>
5.4343428612

> <CNNaffinity_variance>
0.1134471744

$$$$
[H]C([H])=C([H])C(=O)N1c2c([H])c(N([H])c3nc(N([H])c4c([H])nc(OC([H])([H])[H])c([H])c4[H])nc([H])c3F)c([H])c([H])c2OC([H])([H])C1([H])[H]


 33 36  0  0  0  0  0  0  0  0999 V2000
   -0.8545  -54.2360  -22.0585 C   0  0  0  0  0  0  0  0  0  0  0  0
   -1.7506  -54.2268  -21.0666 N   0  0  0  0  0  0  0  0  0  0  0  0
   -1.6097  -53.6282  -19.8849 C   0  0  0  0  0  0  0  0  0  0  0  0
   -0.4370  -52.9510  -19.6461 C   0  0  0  0  0  0  0  0  0  0  0  0
   -0.2053  -52.3117  -18.4700 F   0  0  0  0  0  0  0  0  0  0  0  0
    0.5496  -52.9228  -20.6526 C   0  0  0  0  0  0  0  0  0  0  0  0
    0.2967  -53.5551  -21.7884 N   0  0  0  0  0  0  0  0  0  0  0  0
   -1.0249  -54.8740  -23.3025 N   0  0  0  0  0  0  0  0  0  0  0  0
   -1.4886  -55.8374  -23.2520 H   0  0  0  0  0  0  0  0  0  0  0  0
    0.0622  -53.7222  -27.2085 C   0  0  0  0  0  0  0  0  0  0  0  0
   -0.3794  -52.7884  -26.3019 C   0  0  0  0  0  0  0  0  0  0  0  0
   -0.7511  -53.1462  -25.0036 C   0  0  0  0  0  0  0  0  0  0  0  0
   -0.6880  -54.4459  -24.5850 C   0  0  0  0  0  0  0  0  0  0  0  0
   -0.2298  -55.3591  -25.5534 C   0  0  0  0  0  0  0  0  0  0  0  0
    0.1170  -54.9964  -26.7793 N   0  0  0  0  0  0  0  0  0  0  0  0
   -0.4547  -52.7795  -29.4121 C   0  0  0  0  0  0  0  0  0  0  0  0
    0.4268  -53.3631  -28.4867 O   0  0  0  0  0  0  0  0  0  0  0  0
    1.7099  -52.2017  -20.3613 N   0  0  0  0  0  0  0  0  0  0  0  0
    2.1579  -52.3169  -19.4109 H   0  0  0  0  0  0  0  0  0  0  0  0
    2.3641  -51.3077  -21.2474 C   0  0  0  0  0  0  0  0  0  0  0  0
    2.8251  -51.6027  -22.4983 C   0  0  0  0  0  0  0  0  0  0  0  0
    3.4443  -50.6418  -23.3124 C   0  0  0  0  0  0  0  0  0  0  0  0
    3.6231  -49.3453  -22.8950 C   0  0  0  0  0  0  0  0  0  0  0  0
    4.2200  -48.3423  -23.6339 O   0  0  0  0  0  0  0  0  0  0  0  0
    4.2111  -46.9784  -23.3221 C   0  0  0  0  0  0  0  0  0  0  0  0
    3.2613  -46.6447  -22.1802 C   0  0  0  0  0  0  0  0  0  0  0  0
    3.3443  -47.6870  -21.1806 N   0  0  0  0  0  0  0  0  0  0  0  0
    3.6268  -47.4814  -19.8096 C   0  0  0  0  0  0  0  0  0  0  0  0
    3.8280  -48.4133  -18.9718 O   0  0  0  0  0  0  0  0  0  0  0  0
    3.1580  -49.0473  -21.6293 C   0  0  0  0  0  0  0  0  0  0  0  0
    2.5510  -49.9689  -20.8219 C   0  0  0  0  0  0  0  0  0  0  0  0
    3.6948  -46.1159  -19.3049 C   0  0  0  0  0  0  0  0  0  0  0  0
    3.5195  -45.8554  -18.0018 C   0  0  0  0  0  0  0  0  0  0  0  0
 16 17  1  0  0  0
 17 10  1  0  0  0
 10 11  2  0  0  0
 11 12  1  0  0  0
 12 13  2  0  0  0
 13  8  1  0  0  0
  8  1  1  0  0  0
  1  2  2  0  0  0
  2  3  1  0  0  0
  3  4  2  0  0  0
  4  5  1  0  0  0
  4  6  1  0  0  0
  6 18  1  0  0  0
 18 20  1  0  0  0
 20 21  2  0  0  0
 21 22  1  0  0  0
 22 23  2  0  0  0
 23 24  1  0  0  0
 24 25  1  0  0  0
 25 26  1  0  0  0
 26 27  1  0  0  0
 27 28  1  0  0  0
 28 29  2  0  0  0
 28 32  1  0  0  0
 32 33  2  0  0  0
 27 30  1  0  0  0
 30 31  2  0  0  0
  6  7  2  0  0  0
 13 14  1  0  0  0
 14 15  2  0  0  0
 15 10  1  0  0  0
  7  1  1  0  0  0
 31 20  1  0  0  0
 30 23  1  0  0  0
  8  9  1  0  0  0
 18 19  1  0  0  0
M  END
> <minimizedAffinity>
-7.65074

> <CNNscore>
0.5909297466

> <CNNaffinity>
7.3706865311

> <CNN_VS>
4.3555579185

> <CNNaffinity_variance>
0.2704094350

$$$$
[H]C([H])=C([H])C(=O)N1c2c([H])c(N([H])c3nc(N([H])c4c([H])nc(OC([H])([H])[H])c([H])c4[H])nc([H])c3F)c([H])c([H])c2OC([H])([H])C1([H])[H]


 33 36  0  0  0  0  0  0  0  0999 V2000
   -0.3449  -53.6495  -20.4214 C   0  0  0  0  0  0  0  0  0  0  0  0
   -1.0961  -54.5163  -21.1079 N   0  0  0  0  0  0  0  0  0  0  0  0
   -1.2408  -54.5554  -22.4317 C   0  0  0  0  0  0  0  0  0  0  0  0
   -0.5598  -53.6226  -23.1779 C   0  0  0  0  0  0  0  0  0  0  0  0
   -0.6478  -53.5861  -24.5331 F   0  0  0  0  0  0  0  0  0  0  0  0
    0.2504  -52.6795  -22.5135 C   0  0  0  0  0  0  0  0  0  0  0  0
    0.3167  -52.7386  -21.1922 N   0  0  0  0  0  0  0  0  0  0  0  0
   -0.2040  -53.6274  -19.0203 N   0  0  0  0  0  0  0  0  0  0  0  0
    0.2513  -54.5010  -18.6019 H   0  0  0  0  0  0  0  0  0  0  0  0
   -1.1448  -50.5858  -16.2581 C   0  0  0  0  0  0  0  0  0  0  0  0
   -1.8813  -51.7455  -16.2984 C   0  0  0  0  0  0  0  0  0  0  0  0
   -1.5929  -52.7654  -17.2086 C   0  0  0  0  0  0  0  0  0  0  0  0
   -0.5610  -52.6465  -18.0972 C   0  0  0  0  0  0  0  0  0  0  0  0
    0.1586  -51.4396  -18.0120 C   0  0  0  0  0  0  0  0  0  0  0  0
   -0.1336  -50.4859  -17.1404 N   0  0  0  0  0  0  0  0  0  0  0  0
   -0.9857  -48.2601  -15.4983 C   0  0  0  0  0  0  0  0  0  0  0  0
   -1.4343  -49.5843  -15.3588 O   0  0  0  0  0  0  0  0  0  0  0  0
    0.9345  -51.7713  -23.3249 N   0  0  0  0  0  0  0  0  0  0  0  0
    0.3851  -51.0227  -23.8298 H   0  0  0  0  0  0  0  0  0  0  0  0
    2.3370  -51.7561  -23.5372 C   0  0  0  0  0  0  0  0  0  0  0  0
    3.0119  -52.4135  -24.5254 C   0  0  0  0  0  0  0  0  0  0  0  0
    4.4049  -52.3212  -24.6680 C   0  0  0  0  0  0  0  0  0  0  0  0
    5.1716  -51.5621  -23.8175 C   0  0  0  0  0  0  0  0  0  0  0  0
    6.5435  -51.4184  -23.8907 O   0  0  0  0  0  0  0  0  0  0  0  0
    7.3086  -50.4847  -23.1833 C   0  0  0  0  0  0  0  0  0  0  0  0
    6.4537  -49.4471  -22.4693 C   0  0  0  0  0  0  0  0  0  0  0  0
    5.2873  -50.0999  -21.9162 N   0  0  0  0  0  0  0  0  0  0  0  0
    4.8886  -50.0452  -20.5598 C   0  0  0  0  0  0  0  0  0  0  0  0
    3.9417  -50.7291  -20.0632 O   0  0  0  0  0  0  0  0  0  0  0  0
    4.4891  -50.8983  -22.8172 C   0  0  0  0  0  0  0  0  0  0  0  0
    3.1326  -50.9745  -22.6629 C   0  0  0  0  0  0  0  0  0  0  0  0
    5.5990  -49.1498  -19.6558 C   0  0  0  0  0  0  0  0  0  0  0  0
    4.9330  -48.4063  -18.7612 C   0  0  0  0  0  0  0  0  0  0  0  0
 16 17  1  0  0  0
 17 10  1  0  0  0
 10 11  2  0  0  0
 11 12  1  0  0  0
 12 13  2  0  0  0
 13  8  1  0  0  0
  8  1  1  0  0  0
  1  2  2  0  0  0
  2  3  1  0  0  0
  3  4  2  0  0  0
  4  5  1  0  0  0
  4  6  1  0  0  0
  6 18  1  0  0  0
 18 20  1  0  0  0
 20 21  2  0  0  0
 21 22  1  0  0  0
 22 23  2  0  0  0
 23 24  1  0  0  0
 24 25  1  0  0  0
 25 26  1  0  0  0
 26 27  1  0  0  0
 27 28  1  0  0  0
 28 29  2  0  0  0
 28 32  1  0  0  0
 32 33  2  0  0  0
 27 30  1  0  0  0
 30 31  2  0  0  0
  6  7  2  0  0  0
 13 14  1  0  0  0
 14 15  2  0  0  0
 15 10  1  0  0  0
  7  1  1  0  0  0
 31 20  1  0  0  0
 30 23  1  0  0  0
  8  9  1  0  0  0
 18 19  1  0  0  0
M  END
> <minimizedAffinity>
-7.50111

> <CNNscore>
0.5853862762

> <CNNaffinity>
6.9466032982

> <CNN_VS>
4.0664463043

> <CNNaffinity_variance>
0.1710493565

$$$$
[H]C([H])=C([H])C(=O)N1c2c([H])c(N([H])c3nc(N([H])c4c([H])nc(OC([H])([H])[H])c([H])c4[H])nc([H])c3F)c([H])c([H])c2OC([H])([H])C1([H])[H]


 33 36  0  0  0  0  0  0  0  0999 V2000
   -0.8121  -54.1720  -22.0527 C   0  0  0  0  0  0  0  0  0  0  0  0
   -1.8488  -54.0247  -21.2217 N   0  0  0  0  0  0  0  0  0  0  0  0
   -1.8074  -53.5008  -19.9976 C   0  0  0  0  0  0  0  0  0  0  0  0
   -0.5904  -53.0652  -19.5285 C   0  0  0  0  0  0  0  0  0  0  0  0
   -0.4528  -52.5184  -18.2925 F   0  0  0  0  0  0  0  0  0  0  0  0
    0.5433  -53.1924  -20.3568 C   0  0  0  0  0  0  0  0  0  0  0  0
    0.3793  -53.7297  -21.5561 N   0  0  0  0  0  0  0  0  0  0  0  0
   -0.8785  -54.7270  -23.3453 N   0  0  0  0  0  0  0  0  0  0  0  0
   -1.2034  -55.7463  -23.3790 H   0  0  0  0  0  0  0  0  0  0  0  0
   -0.0837  -52.8664  -27.0429 C   0  0  0  0  0  0  0  0  0  0  0  0
    0.0987  -54.2198  -26.8881 C   0  0  0  0  0  0  0  0  0  0  0  0
   -0.1521  -54.8584  -25.6711 C   0  0  0  0  0  0  0  0  0  0  0  0
   -0.5913  -54.1563  -24.5836 C   0  0  0  0  0  0  0  0  0  0  0  0
   -0.7602  -52.7753  -24.7983 C   0  0  0  0  0  0  0  0  0  0  0  0
   -0.5156  -52.1913  -25.9618 N   0  0  0  0  0  0  0  0  0  0  0  0
   -0.2465  -52.7547  -29.4868 C   0  0  0  0  0  0  0  0  0  0  0  0
    0.1655  -52.2429  -28.2448 O   0  0  0  0  0  0  0  0  0  0  0  0
    1.7471  -52.7130  -19.8352 N   0  0  0  0  0  0  0  0  0  0  0  0
    2.5599  -53.3804  -19.7294 H   0  0  0  0  0  0  0  0  0  0  0  0
    1.9894  -51.3762  -19.4271 C   0  0  0  0  0  0  0  0  0  0  0  0
    1.9461  -50.2678  -20.2232 C   0  0  0  0  0  0  0  0  0  0  0  0
    2.1817  -48.9782  -19.7223 C   0  0  0  0  0  0  0  0  0  0  0  0
    2.4712  -48.7572  -18.3977 C   0  0  0  0  0  0  0  0  0  0  0  0
    2.7138  -47.5227  -17.8272 O   0  0  0  0  0  0  0  0  0  0  0  0
    2.7877  -47.2537  -16.4562 C   0  0  0  0  0  0  0  0  0  0  0  0
    2.3367  -48.4310  -15.6029 C   0  0  0  0  0  0  0  0  0  0  0  0
    2.8229  -49.6562  -16.1988 N   0  0  0  0  0  0  0  0  0  0  0  0
    3.6014  -50.6331  -15.5345 C   0  0  0  0  0  0  0  0  0  0  0  0
    4.1321  -51.6354  -16.1044 O   0  0  0  0  0  0  0  0  0  0  0  0
    2.5163  -49.8784  -17.5927 C   0  0  0  0  0  0  0  0  0  0  0  0
    2.2883  -51.1425  -18.0617 C   0  0  0  0  0  0  0  0  0  0  0  0
    3.8200  -50.4988  -14.1000 C   0  0  0  0  0  0  0  0  0  0  0  0
    3.5813  -51.5236  -13.2697 C   0  0  0  0  0  0  0  0  0  0  0  0
 16 17  1  0  0  0
 17 10  1  0  0  0
 10 11  2  0  0  0
 11 12  1  0  0  0
 12 13  2  0  0  0
 13  8  1  0  0  0
  8  1  1  0  0  0
  1  2  2  0  0  0
  2  3  1  0  0  0
  3  4  2  0  0  0
  4  5  1  0  0  0
  4  6  1  0  0  0
  6 18  1  0  0  0
 18 20  1  0  0  0
 20 21  2  0  0  0
 21 22  1  0  0  0
 22 23  2  0  0  0
 23 24  1  0  0  0
 24 25  1  0  0  0
 25 26  1  0  0  0
 26 27  1  0  0  0
 27 28  1  0  0  0
 28 29  2  0  0  0
 28 32  1  0  0  0
 32 33  2  0  0  0
 27 30  1  0  0  0
 30 31  2  0  0  0
  6  7  2  0  0  0
 13 14  1  0  0  0
 14 15  2  0  0  0
 15 10  1  0  0  0
  7  1  1  0  0  0
 31 20  1  0  0  0
 30 23  1  0  0  0
  8  9  1  0  0  0
 18 19  1  0  0  0
M  END
> <minimizedAffinity>
-7.45758

> <CNNscore>
0.5775956511

> <CNNaffinity>
7.0182046890

> <CNN_VS>
4.0536847115

> <CNNaffinity_variance>
0.1647293717

$$$$
[H]C([H])=C([H])C(=O)N1c2c([H])c(N([H])c3nc(N([H])c4c([H])nc(OC([H])([H])[H])c([H])c4[H])nc([H])c3F)c([H])c([H])c2OC([H])([H])C1([H])[H]


 33 36  0  0  0  0  0  0  0  0999 V2000
   -0.3548  -53.9301  -21.0062 C   0  0  0  0  0  0  0  0  0  0  0  0
   -1.0653  -54.8875  -21.6109 N   0  0  0  0  0  0  0  0  0  0  0  0
   -1.2761  -55.0015  -22.9214 C   0  0  0  0  0  0  0  0  0  0  0  0
   -0.7168  -54.0527  -23.7447 C   0  0  0  0  0  0  0  0  0  0  0  0
   -0.8791  -54.0884  -25.0930 F   0  0  0  0  0  0  0  0  0  0  0  0
    0.0448  -53.0156  -23.1687 C   0  0  0  0  0  0  0  0  0  0  0  0
    0.1856  -53.0058  -21.8519 N   0  0  0  0  0  0  0  0  0  0  0  0
   -0.1424  -53.8295  -19.6176 N   0  0  0  0  0  0  0  0  0  0  0  0
    0.0570  -54.7593  -19.1263 H   0  0  0  0  0  0  0  0  0  0  0  0
   -0.2932  -50.5012  -17.0358 C   0  0  0  0  0  0  0  0  0  0  0  0
    0.5524  -50.5075  -18.1192 C   0  0  0  0  0  0  0  0  0  0  0  0
    0.6248  -51.6009  -18.9858 C   0  0  0  0  0  0  0  0  0  0  0  0
   -0.1480  -52.7108  -18.7869 C   0  0  0  0  0  0  0  0  0  0  0  0
   -0.9943  -52.6503  -17.6635 C   0  0  0  0  0  0  0  0  0  0  0  0
   -1.0456  -51.6022  -16.8552 N   0  0  0  0  0  0  0  0  0  0  0  0
   -1.1321  -49.4008  -15.0117 C   0  0  0  0  0  0  0  0  0  0  0  0
   -0.3597  -49.4206  -16.1853 O   0  0  0  0  0  0  0  0  0  0  0  0
    0.6057  -52.0941  -24.0561 N   0  0  0  0  0  0  0  0  0  0  0  0
   -0.0233  -51.6065  -24.7516 H   0  0  0  0  0  0  0  0  0  0  0  0
    1.9778  -51.7381  -24.1099 C   0  0  0  0  0  0  0  0  0  0  0  0
    3.0298  -52.5953  -24.2604 C   0  0  0  0  0  0  0  0  0  0  0  0
    4.3575  -52.1451  -24.3231 C   0  0  0  0  0  0  0  0  0  0  0  0
    4.6753  -50.8115  -24.2351 C   0  0  0  0  0  0  0  0  0  0  0  0
    5.9528  -50.2885  -24.2890 O   0  0  0  0  0  0  0  0  0  0  0  0
    6.2790  -48.9348  -24.4257 C   0  0  0  0  0  0  0  0  0  0  0  0
    5.0690  -48.0705  -24.7517 C   0  0  0  0  0  0  0  0  0  0  0  0
    3.9360  -48.5405  -23.9850 N   0  0  0  0  0  0  0  0  0  0  0  0
    3.1457  -47.7420  -23.1250 C   0  0  0  0  0  0  0  0  0  0  0  0
    2.2407  -48.1938  -22.3583 O   0  0  0  0  0  0  0  0  0  0  0  0
    3.6113  -49.9446  -24.0814 C   0  0  0  0  0  0  0  0  0  0  0  0
    2.3112  -50.3637  -24.0197 C   0  0  0  0  0  0  0  0  0  0  0  0
    3.3690  -46.3021  -23.1034 C   0  0  0  0  0  0  0  0  0  0  0  0
    3.8029  -45.6906  -21.9922 C   0  0  0  0  0  0  0  0  0  0  0  0
 16 17  1  0  0  0
 17 10  1  0  0  0
 10 11  2  0  0  0
 11 12  1  0  0  0
 12 13  2  0  0  0
 13  8  1  0  0  0
  8  1  1  0  0  0
  1  2  2  0  0  0
  2  3  1  0  0  0
  3  4  2  0  0  0
  4  5  1  0  0  0
  4  6  1  0  0  0
  6 18  1  0  0  0
 18 20  1  0  0  0
 20 21  2  0  0  0
 21 22  1  0  0  0
 22 23  2  0  0  0
 23 24  1  0  0  0
 24 25  1  0  0  0
 25 26  1  0  0  0
 26 27  1  0  0  0
 27 28  1  0  0  0
 28 29  2  0  0  0
 28 32  1  0  0  0
 32 33  2  0  0  0
 27 30  1  0  0  0
 30 31  2  0  0  0
  6  7  2  0  0  0
 13 14  1  0  0  0
 14 15  2  0  0  0
 15 10  1  0  0  0
  7  1  1  0  0  0
 31 20  1  0  0  0
 30 23  1  0  0  0
  8  9  1  0  0  0
 18 19  1  0  0  0
M  END
> <minimizedAffinity>
-7.50702

> <CNNscore>
0.5664325356

> <CNNaffinity>
7.0379624367

> <CNN_VS>
3.9865310192

> <CNNaffinity_variance>
0.1974982470

$$$$
[H]C([H])=C([H])C(=O)N1c2c([H])c(N([H])c3nc(N([H])c4c([H])nc(OC([H])([H])[H])c([H])c4[H])nc([H])c3F)c([H])c([H])c2OC([H])([H])C1([H])[H]


 33 36  0  0  0  0  0  0  0  0999 V2000
    0.0102  -53.4612  -22.1783 C   0  0  0  0  0  0  0  0  0  0  0  0
   -0.2245  -53.7275  -20.8895 N   0  0  0  0  0  0  0  0  0  0  0  0
    0.4556  -53.2457  -19.8502 C   0  0  0  0  0  0  0  0  0  0  0  0
    1.5016  -52.3918  -20.1100 C   0  0  0  0  0  0  0  0  0  0  0  0
    2.2511  -51.8526  -19.1135 F   0  0  0  0  0  0  0  0  0  0  0  0
    1.8011  -52.0704  -21.4496 C   0  0  0  0  0  0  0  0  0  0  0  0
    1.0542  -52.6111  -22.4002 N   0  0  0  0  0  0  0  0  0  0  0  0
   -0.7235  -53.9803  -23.2626 N   0  0  0  0  0  0  0  0  0  0  0  0
   -1.5609  -54.5873  -22.9872 H   0  0  0  0  0  0  0  0  0  0  0  0
   -0.0500  -53.6392  -27.4094 C   0  0  0  0  0  0  0  0  0  0  0  0
   -0.6174  -52.6037  -26.7060 C   0  0  0  0  0  0  0  0  0  0  0  0
   -0.8561  -52.6950  -25.3325 C   0  0  0  0  0  0  0  0  0  0  0  0
   -0.5314  -53.8241  -24.6338 C   0  0  0  0  0  0  0  0  0  0  0  0
    0.0457  -54.8520  -25.4033 C   0  0  0  0  0  0  0  0  0  0  0  0
    0.2624  -54.7429  -26.7055 N   0  0  0  0  0  0  0  0  0  0  0  0
   -0.5409  -52.6950  -29.6182 C   0  0  0  0  0  0  0  0  0  0  0  0
    0.1825  -53.5432  -28.7630 O   0  0  0  0  0  0  0  0  0  0  0  0
    2.8598  -51.1816  -21.6505 N   0  0  0  0  0  0  0  0  0  0  0  0
    3.8507  -51.5393  -21.5638 H   0  0  0  0  0  0  0  0  0  0  0  0
    2.7263  -49.8068  -21.9733 C   0  0  0  0  0  0  0  0  0  0  0  0
    2.1341  -48.8491  -21.2009 C   0  0  0  0  0  0  0  0  0  0  0  0
    2.0677  -47.5047  -21.5978 C   0  0  0  0  0  0  0  0  0  0  0  0
    2.5959  -47.0744  -22.7907 C   0  0  0  0  0  0  0  0  0  0  0  0
    2.5728  -45.7726  -23.2524 O   0  0  0  0  0  0  0  0  0  0  0  0
    3.2927  -45.2778  -24.3453 C   0  0  0  0  0  0  0  0  0  0  0  0
    4.3197  -46.2720  -24.8690 C   0  0  0  0  0  0  0  0  0  0  0  0
    3.7492  -47.6007  -24.8302 N   0  0  0  0  0  0  0  0  0  0  0  0
    3.6626  -48.4835  -25.9325 C   0  0  0  0  0  0  0  0  0  0  0  0
    3.0416  -49.5903  -25.9170 O   0  0  0  0  0  0  0  0  0  0  0  0
    3.1936  -48.0433  -23.5725 C   0  0  0  0  0  0  0  0  0  0  0  0
    3.2695  -49.3575  -23.2027 C   0  0  0  0  0  0  0  0  0  0  0  0
    4.3242  -48.1167  -27.1780 C   0  0  0  0  0  0  0  0  0  0  0  0
    3.6496  -47.5010  -28.1590 C   0  0  0  0  0  0  0  0  0  0  0  0
 16 17  1  0  0  0
 17 10  1  0  0  0
 10 11  2  0  0  0
 11 12  1  0  0  0
 12 13  2  0  0  0
 13  8  1  0  0  0
  8  1  1  0  0  0
  1  2  2  0  0  0
  2  3  1  0  0  0
  3  4  2  0  0  0
  4  5  1  0  0  0
  4  6  1  0  0  0
  6 18  1  0  0  0
 18 20  1  0  0  0
 20 21  2  0  0  0
 21 22  1  0  0  0
 22 23  2  0  0  0
 23 24  1  0  0  0
 24 25  1  0  0  0
 25 26  1  0  0  0
 26 27  1  0  0  0
 27 28  1  0  0  0
 28 29  2  0  0  0
 28 32  1  0  0  0
 32 33  2  0  0  0
 27 30  1  0  0  0
 30 31  2  0  0  0
  6  7  2  0  0  0
 13 14  1  0  0  0
 14 15  2  0  0  0
 15 10  1  0  0  0
  7  1  1  0  0  0
 31 20  1  0  0  0
 30 23  1  0  0  0
  8  9  1  0  0  0
 18 19  1  0  0  0
M  END
> <minimizedAffinity>
-7.46614

> <CNNscore>
0.4888389409

> <CNNaffinity>
7.0959701538

> <CNN_VS>
3.4687864780

> <CNNaffinity_variance>
0.1402085572

$$$$
[H]C([H])=C([H])C(=O)N1c2c([H])c(N([H])c3nc(N([H])c4c([H])nc(OC([H])([H])[H])c([H])c4[H])nc([H])c3F)c([H])c([H])c2OC([H])([H])C1([H])[H]


 33 36  0  0  0  0  0  0  0  0999 V2000
    0.9661  -52.5616  -23.4044 C   0  0  0  0  0  0  0  0  0  0  0  0
    0.2593  -53.2927  -24.2721 N   0  0  0  0  0  0  0  0  0  0  0  0
   -0.6660  -54.2006  -23.9651 C   0  0  0  0  0  0  0  0  0  0  0  0
   -0.9316  -54.4189  -22.6337 C   0  0  0  0  0  0  0  0  0  0  0  0
   -1.8580  -55.3256  -22.2270 F   0  0  0  0  0  0  0  0  0  0  0  0
   -0.2197  -53.6793  -21.6675 C   0  0  0  0  0  0  0  0  0  0  0  0
    0.6776  -52.8031  -22.0929 N   0  0  0  0  0  0  0  0  0  0  0  0
    1.9392  -51.6043  -23.7511 N   0  0  0  0  0  0  0  0  0  0  0  0
    1.6814  -50.9850  -24.5851 H   0  0  0  0  0  0  0  0  0  0  0  0
    5.7592  -50.8034  -22.1596 C   0  0  0  0  0  0  0  0  0  0  0  0
    4.7083  -51.1161  -21.3308 C   0  0  0  0  0  0  0  0  0  0  0  0
    3.4318  -51.3797  -21.8337 C   0  0  0  0  0  0  0  0  0  0  0  0
    3.1802  -51.3364  -23.1767 C   0  0  0  0  0  0  0  0  0  0  0  0
    4.2911  -51.0112  -23.9778 C   0  0  0  0  0  0  0  0  0  0  0  0
    5.4929  -50.7647  -23.4782 N   0  0  0  0  0  0  0  0  0  0  0  0
    7.9610  -49.7351  -22.3086 C   0  0  0  0  0  0  0  0  0  0  0  0
    7.0148  -50.5445  -21.6577 O   0  0  0  0  0  0  0  0  0  0  0  0
   -0.5477  -53.9284  -20.3328 N   0  0  0  0  0  0  0  0  0  0  0  0
   -0.8609  -54.8993  -20.0562 H   0  0  0  0  0  0  0  0  0  0  0  0
   -0.4943  -52.9752  -19.2836 C   0  0  0  0  0  0  0  0  0  0  0  0
   -1.1216  -53.0684  -18.0744 C   0  0  0  0  0  0  0  0  0  0  0  0
   -0.9922  -52.0794  -17.0872 C   0  0  0  0  0  0  0  0  0  0  0  0
   -0.2251  -50.9567  -17.2826 C   0  0  0  0  0  0  0  0  0  0  0  0
   -0.0458  -49.9407  -16.3639 O   0  0  0  0  0  0  0  0  0  0  0  0
    0.8977  -48.9115  -16.4538 C   0  0  0  0  0  0  0  0  0  0  0  0
    1.9041  -49.1354  -17.5739 C   0  0  0  0  0  0  0  0  0  0  0  0
    1.2149  -49.6831  -18.7218 N   0  0  0  0  0  0  0  0  0  0  0  0
    1.2418  -49.1363  -20.0264 C   0  0  0  0  0  0  0  0  0  0  0  0
    0.5278  -49.5491  -20.9912 O   0  0  0  0  0  0  0  0  0  0  0  0
    0.4082  -50.8617  -18.5061 C   0  0  0  0  0  0  0  0  0  0  0  0
    0.2957  -51.8152  -19.4797 C   0  0  0  0  0  0  0  0  0  0  0  0
    2.1431  -48.0250  -20.3023 C   0  0  0  0  0  0  0  0  0  0  0  0
    2.5731  -47.7821  -21.5485 C   0  0  0  0  0  0  0  0  0  0  0  0
 16 17  1  0  0  0
 17 10  1  0  0  0
 10 11  2  0  0  0
 11 12  1  0  0  0
 12 13  2  0  0  0
 13  8  1  0  0  0
  8  1  1  0  0  0
  1  2  2  0  0  0
  2  3  1  0  0  0
  3  4  2  0  0  0
  4  5  1  0  0  0
  4  6  1  0  0  0
  6 18  1  0  0  0
 18 20  1  0  0  0
 20 21  2  0  0  0
 21 22  1  0  0  0
 22 23  2  0  0  0
 23 24  1  0  0  0
 24 25  1  0  0  0
 25 26  1  0  0  0
 26 27  1  0  0  0
 27 28  1  0  0  0
 28 29  2  0  0  0
 28 32  1  0  0  0
 32 33  2  0  0  0
 27 30  1  0  0  0
 30 31  2  0  0  0
  6  7  2  0  0  0
 13 14  1  0  0  0
 14 15  2  0  0  0
 15 10  1  0  0  0
  7  1  1  0  0  0
 31 20  1  0  0  0
 30 23  1  0  0  0
  8  9  1  0  0  0
 18 19  1  0  0  0
M  END
> <minimizedAffinity>
-7.51876

> <CNNscore>
0.4873303175

> <CNNaffinity>
6.6946387291

> <CNN_VS>
3.2625005245

> <CNNaffinity_variance>
0.1412974447

$$$$
[H]c1c([H])c([N+](=O)[O-])c([H])c([N+](=O)[O-])c1N([H])C(=O)C([H])([H])Sc1nc2c([H])c3c([H])c([H])c([H])c([H])c3c([H])c2c(=O)n1-c1c([H])c([H])c(S(=O)(=O)N([H])[H])c([H])c1[H]


 45 49  0  0  0  0  0  0  0  0999 V2000
    0.9098  -51.7121  -22.3046 N   0  0  0  0  0  0  0  0  0  0  0  0
    1.7577  -50.8309  -21.7192 C   0  0  0  0  0  0  0  0  0  0  0  0
    1.6640  -50.5586  -20.3937 N   0  0  0  0  0  0  0  0  0  0  0  0
    0.6974  -51.1835  -19.6488 C   0  0  0  0  0  0  0  0  0  0  0  0
    0.5920  -50.8881  -18.2892 C   0  0  0  0  0  0  0  0  0  0  0  0
   -0.3805  -51.4853  -17.5181 C   0  0  0  0  0  0  0  0  0  0  0  0
   -0.5231  -51.2085  -16.1711 C   0  0  0  0  0  0  0  0  0  0  0  0
   -1.5010  -51.7940  -15.4032 C   0  0  0  0  0  0  0  0  0  0  0  0
   -2.3725  -52.6950  -16.0141 C   0  0  0  0  0  0  0  0  0  0  0  0
   -2.2094  -52.9537  -17.3548 C   0  0  0  0  0  0  0  0  0  0  0  0
   -1.2263  -52.3710  -18.1476 C   0  0  0  0  0  0  0  0  0  0  0  0
   -1.1476  -52.6844  -19.4891 C   0  0  0  0  0  0  0  0  0  0  0  0
   -0.1598  -52.0727  -20.2472 C   0  0  0  0  0  0  0  0  0  0  0  0
   -0.0474  -52.3386  -21.5998 C   0  0  0  0  0  0  0  0  0  0  0  0
   -0.8430  -53.1538  -22.1101 O   0  0  0  0  0  0  0  0  0  0  0  0
    1.4119  -52.7038  -26.3744 C   0  0  0  0  0  0  0  0  0  0  0  0
    2.2102  -53.2534  -25.3915 C   0  0  0  0  0  0  0  0  0  0  0  0
    2.0177  -52.9129  -24.0746 C   0  0  0  0  0  0  0  0  0  0  0  0
    1.0284  -52.0147  -23.6813 C   0  0  0  0  0  0  0  0  0  0  0  0
    0.2470  -51.4843  -24.6886 C   0  0  0  0  0  0  0  0  0  0  0  0
    0.4090  -51.8017  -26.0202 C   0  0  0  0  0  0  0  0  0  0  0  0
    3.1596  -52.3732  -28.5736 N   0  0  0  0  0  0  0  0  0  0  0  0
    1.6559  -53.0696  -28.0690 S   0  0  0  0  0  0  0  0  0  0  0  0
    1.7130  -54.5846  -28.2489 O   0  0  0  0  0  0  0  0  0  0  0  0
    0.5462  -52.5315  -28.8958 O   0  0  0  0  0  0  0  0  0  0  0  0
    3.0954  -52.0675  -29.5608 H   0  0  0  0  0  0  0  0  0  0  0  0
    3.2787  -51.5055  -28.0032 H   0  0  0  0  0  0  0  0  0  0  0  0
    2.9011  -50.0256  -22.7980 S   0  0  0  0  0  0  0  0  0  0  0  0
    4.5010  -49.7368  -22.1029 C   0  0  0  0  0  0  0  0  0  0  0  0
    4.5071  -49.2547  -20.6719 C   0  0  0  0  0  0  0  0  0  0  0  0
    5.2485  -49.7460  -19.8268 O   0  0  0  0  0  0  0  0  0  0  0  0
    3.6169  -48.2066  -20.3849 N   0  0  0  0  0  0  0  0  0  0  0  0
    3.0259  -47.8932  -21.2274 H   0  0  0  0  0  0  0  0  0  0  0  0
    3.4528  -47.5364  -19.1599 C   0  0  0  0  0  0  0  0  0  0  0  0
    2.9738  -48.1730  -18.0403 C   0  0  0  0  0  0  0  0  0  0  0  0
    2.9259  -47.5731  -16.7813 C   0  0  0  0  0  0  0  0  0  0  0  0
    3.3764  -46.2916  -16.6575 C   0  0  0  0  0  0  0  0  0  0  0  0
    3.8562  -45.6362  -17.7606 C   0  0  0  0  0  0  0  0  0  0  0  0
    3.9056  -46.2358  -19.0301 C   0  0  0  0  0  0  0  0  0  0  0  0
    4.4113  -45.4576  -20.1044 N   0  0  0  0  0  0  0  0  0  0  0  0
    5.5397  -45.7323  -20.8072 O   0  0  0  0  0  0  0  0  0  0  0  0
    3.7693  -44.4280  -20.4280 O   0  0  0  0  0  0  0  0  0  0  0  0
    3.3589  -45.6370  -15.3860 N   0  0  0  0  0  0  0  0  0  0  0  0
    2.3821  -44.7522  -15.0987 O   0  0  0  0  0  0  0  0  0  0  0  0
    4.2419  -45.9046  -14.5740 O   0  0  0  0  0  0  0  0  0  0  0  0
 22 23  1  0  0  0
 23 24  2  0  0  0
 23 25  2  0  0  0
 23 16  1  0  0  0
 16 17  2  0  0  0
 17 18  1  0  0  0
 18 19  2  0  0  0
 19 20  1  0  0  0
 20 21  2  0  0  0
 19  1  1  0  0  0
  1  2  1  0  0  0
  2 28  1  0  0  0
 28 29  1  0  0  0
 29 30  1  0  0  0
 30 31  2  0  0  0
 30 32  1  0  0  0
 32 34  1  0  0  0
 34 35  2  0  0  0
 35 36  1  0  0  0
 36 37  2  0  0  0
 37 38  1  0  0  0
 38 39  2  0  0  0
 39 40  1  0  0  0
 40 41  1  0  0  0
 40 42  2  0  0  0
 37 43  1  0  0  0
 43 44  1  0  0  0
 43 45  2  0  0  0
  2  3  2  0  0  0
  3  4  1  0  0  0
  4  5  2  0  0  0
  5  6  1  0  0  0
  6  7  2  0  0  0
  7  8  1  0  0  0
  8  9  2  0  0  0
  9 10  1  0  0  0
 10 11  2  0  0  0
 11 12  1  0  0  0
 12 13  2  0  0  0
 13 14  1  0  0  0
 14 15  2  0  0  0
 21 16  1  0  0  0
 14  1  1  0  0  0
 39 34  1  0  0  0
 13  4  1  0  0  0
 11  6  1  0  0  0
 22 26  1  0  0  0
 22 27  1  0  0  0
 32 33  1  0  0  0
M  CHG 1  40   1
M  CHG 1  41  -1
M  CHG 1  43   1
M  CHG 1  44  -1
M  END
> <minimizedAffinity>
-7.75257

> <CNNscore>
0.2383152097

> <CNNaffinity>
7.1966428757

> <CNN_VS>
1.7150694132

> <CNNaffinity_variance>
0.9240852594

$$$$
[H]c1c([H])c([N+](=O)[O-])c([H])c([N+](=O)[O-])c1N([H])C(=O)C([H])([H])Sc1nc2c([H])c3c([H])c([H])c([H])c([H])c3c([H])c2c(=O)n1-c1c([H])c([H])c(S(=O)(=O)N([H])[H])c([H])c1[H]


 45 49  0  0  0  0  0  0  0  0999 V2000
    0.8075  -50.3852  -18.0006 N   0  0  0  0  0  0  0  0  0  0  0  0
    0.1789  -51.5010  -18.4455 C   0  0  0  0  0  0  0  0  0  0  0  0
   -0.9358  -51.9602  -17.8239 N   0  0  0  0  0  0  0  0  0  0  0  0
   -1.4212  -51.2840  -16.7345 C   0  0  0  0  0  0  0  0  0  0  0  0
   -2.5577  -51.7687  -16.0863 C   0  0  0  0  0  0  0  0  0  0  0  0
   -3.0587  -51.1222  -14.9781 C   0  0  0  0  0  0  0  0  0  0  0  0
   -4.1751  -51.5794  -14.3028 C   0  0  0  0  0  0  0  0  0  0  0  0
   -4.6688  -50.9427  -13.1894 C   0  0  0  0  0  0  0  0  0  0  0  0
   -4.0132  -49.7990  -12.7350 C   0  0  0  0  0  0  0  0  0  0  0  0
   -2.9056  -49.3644  -13.4243 C   0  0  0  0  0  0  0  0  0  0  0  0
   -2.3917  -49.9953  -14.5523 C   0  0  0  0  0  0  0  0  0  0  0  0
   -1.2665  -49.4909  -15.1714 C   0  0  0  0  0  0  0  0  0  0  0  0
   -0.7793  -50.1565  -16.2869 C   0  0  0  0  0  0  0  0  0  0  0  0
    0.3551  -49.7028  -16.9352 C   0  0  0  0  0  0  0  0  0  0  0  0
    0.9119  -48.6735  -16.5014 O   0  0  0  0  0  0  0  0  0  0  0  0
    4.1188  -48.8400  -20.1093 C   0  0  0  0  0  0  0  0  0  0  0  0
    2.8265  -48.4609  -20.4123 C   0  0  0  0  0  0  0  0  0  0  0  0
    1.7702  -48.9794  -19.7033 C   0  0  0  0  0  0  0  0  0  0  0  0
    1.9535  -49.8934  -18.6683 C   0  0  0  0  0  0  0  0  0  0  0  0
    3.2579  -50.2505  -18.3902 C   0  0  0  0  0  0  0  0  0  0  0  0
    4.3433  -49.7519  -19.0783 C   0  0  0  0  0  0  0  0  0  0  0  0
    5.8595  -46.6413  -20.4779 N   0  0  0  0  0  0  0  0  0  0  0  0
    5.4897  -48.2443  -21.0206 S   0  0  0  0  0  0  0  0  0  0  0  0
    6.6894  -49.1543  -20.7686 O   0  0  0  0  0  0  0  0  0  0  0  0
    5.1973  -48.2310  -22.4763 O   0  0  0  0  0  0  0  0  0  0  0  0
    6.2153  -46.0729  -21.2669 H   0  0  0  0  0  0  0  0  0  0  0  0
    4.9467  -46.2169  -20.1966 H   0  0  0  0  0  0  0  0  0  0  0  0
    0.9480  -52.3328  -19.8006 S   0  0  0  0  0  0  0  0  0  0  0  0
    0.2270  -53.8914  -20.2214 C   0  0  0  0  0  0  0  0  0  0  0  0
   -0.0418  -54.1038  -21.6921 C   0  0  0  0  0  0  0  0  0  0  0  0
   -0.8077  -54.9756  -22.0906 O   0  0  0  0  0  0  0  0  0  0  0  0
    0.6357  -53.2324  -22.5609 N   0  0  0  0  0  0  0  0  0  0  0  0
    1.2804  -52.5315  -22.0605 H   0  0  0  0  0  0  0  0  0  0  0  0
    0.5331  -53.1722  -23.9618 C   0  0  0  0  0  0  0  0  0  0  0  0
   -0.6104  -53.5478  -24.6248 C   0  0  0  0  0  0  0  0  0  0  0  0
   -0.7903  -53.3742  -25.9976 C   0  0  0  0  0  0  0  0  0  0  0  0
    0.2197  -52.8042  -26.7158 C   0  0  0  0  0  0  0  0  0  0  0  0
    1.3701  -52.4240  -26.0764 C   0  0  0  0  0  0  0  0  0  0  0  0
    1.5559  -52.5975  -24.6947 C   0  0  0  0  0  0  0  0  0  0  0  0
    2.7938  -52.1775  -24.1410 N   0  0  0  0  0  0  0  0  0  0  0  0
    2.9649  -51.6884  -22.8864 O   0  0  0  0  0  0  0  0  0  0  0  0
    3.8129  -52.2569  -24.8705 O   0  0  0  0  0  0  0  0  0  0  0  0
    0.0790  -52.5943  -28.1234 N   0  0  0  0  0  0  0  0  0  0  0  0
   -1.1174  -52.2368  -28.6336 O   0  0  0  0  0  0  0  0  0  0  0  0
    1.0654  -52.7409  -28.8419 O   0  0  0  0  0  0  0  0  0  0  0  0
 22 23  1  0  0  0
 23 24  2  0  0  0
 23 25  2  0  0  0
 23 16  1  0  0  0
 16 17  2  0  0  0
 17 18  1  0  0  0
 18 19  2  0  0  0
 19 20  1  0  0  0
 20 21  2  0  0  0
 19  1  1  0  0  0
  1  2  1  0  0  0
  2 28  1  0  0  0
 28 29  1  0  0  0
 29 30  1  0  0  0
 30 31  2  0  0  0
 30 32  1  0  0  0
 32 34  1  0  0  0
 34 35  2  0  0  0
 35 36  1  0  0  0
 36 37  2  0  0  0
 37 38  1  0  0  0
 38 39  2  0  0  0
 39 40  1  0  0  0
 40 41  1  0  0  0
 40 42  2  0  0  0
 37 43  1  0  0  0
 43 44  1  0  0  0
 43 45  2  0  0  0
  2  3  2  0  0  0
  3  4  1  0  0  0
  4  5  2  0  0  0
  5  6  1  0  0  0
  6  7  2  0  0  0
  7  8  1  0  0  0
  8  9  2  0  0  0
  9 10  1  0  0  0
 10 11  2  0  0  0
 11 12  1  0  0  0
 12 13  2  0  0  0
 13 14  1  0  0  0
 14 15  2  0  0  0
 21 16  1  0  0  0
 14  1  1  0  0  0
 39 34  1  0  0  0
 13  4  1  0  0  0
 11  6  1  0  0  0
 22 26  1  0  0  0
 22 27  1  0  0  0
 32 33  1  0  0  0
M  CHG 1  40   1
M  CHG 1  41  -1
M  CHG 1  43   1
M  CHG 1  44  -1
M  END
> <minimizedAffinity>
-8.00570

> <CNNscore>
0.2143190056

> <CNNaffinity>
6.9624366760

> <CNN_VS>
1.4921824932

> <CNNaffinity_variance>
0.2500144243

$$$$
[H]c1c([H])c([N+](=O)[O-])c([H])c([N+](=O)[O-])c1N([H])C(=O)C([H])([H])Sc1nc2c([H])c3c([H])c([H])c([H])c([H])c3c([H])c2c(=O)n1-c1c([H])c([H])c(S(=O)(=O)N([H])[H])c([H])c1[H]


 45 49  0  0  0  0  0  0  0  0999 V2000
    1.6147  -51.5505  -21.8737 N   0  0  0  0  0  0  0  0  0  0  0  0
    2.6821  -50.8804  -21.3739 C   0  0  0  0  0  0  0  0  0  0  0  0
    2.7527  -50.5804  -20.0530 N   0  0  0  0  0  0  0  0  0  0  0  0
    1.7282  -50.9602  -19.2248 C   0  0  0  0  0  0  0  0  0  0  0  0
    1.7951  -50.6345  -17.8697 C   0  0  0  0  0  0  0  0  0  0  0  0
    0.7731  -50.9858  -17.0157 C   0  0  0  0  0  0  0  0  0  0  0  0
    0.7987  -50.6699  -15.6700 C   0  0  0  0  0  0  0  0  0  0  0  0
   -0.2261  -51.0085  -14.8192 C   0  0  0  0  0  0  0  0  0  0  0  0
   -1.3228  -51.6927  -15.3422 C   0  0  0  0  0  0  0  0  0  0  0  0
   -1.3239  -51.9956  -16.6835 C   0  0  0  0  0  0  0  0  0  0  0  0
   -0.2966  -51.6611  -17.5595 C   0  0  0  0  0  0  0  0  0  0  0  0
   -0.3922  -51.9979  -18.8941 C   0  0  0  0  0  0  0  0  0  0  0  0
    0.6489  -51.6360  -19.7366 C   0  0  0  0  0  0  0  0  0  0  0  0
    0.5960  -51.9344  -21.0861 C   0  0  0  0  0  0  0  0  0  0  0  0
   -0.4000  -52.5514  -21.5164 O   0  0  0  0  0  0  0  0  0  0  0  0
    1.6075  -52.6196  -25.9549 C   0  0  0  0  0  0  0  0  0  0  0  0
    2.6158  -53.0226  -25.1027 C   0  0  0  0  0  0  0  0  0  0  0  0
    2.5862  -52.6612  -23.7776 C   0  0  0  0  0  0  0  0  0  0  0  0
    1.5577  -51.8863  -23.2466 C   0  0  0  0  0  0  0  0  0  0  0  0
    0.5647  -51.5010  -24.1252 C   0  0  0  0  0  0  0  0  0  0  0  0
    0.5592  -51.8440  -25.4603 C   0  0  0  0  0  0  0  0  0  0  0  0
    3.1976  -52.6271  -28.2941 N   0  0  0  0  0  0  0  0  0  0  0  0
    1.6323  -53.0134  -27.6605 S   0  0  0  0  0  0  0  0  0  0  0  0
    1.3710  -54.5080  -27.8310 O   0  0  0  0  0  0  0  0  0  0  0  0
    0.5876  -52.2584  -28.3974 O   0  0  0  0  0  0  0  0  0  0  0  0
    3.1140  -52.3070  -29.2752 H   0  0  0  0  0  0  0  0  0  0  0  0
    3.5342  -51.8051  -27.7432 H   0  0  0  0  0  0  0  0  0  0  0  0
    3.8942  -50.3689  -22.5525 S   0  0  0  0  0  0  0  0  0  0  0  0
    4.5352  -48.7406  -22.2997 C   0  0  0  0  0  0  0  0  0  0  0  0
    4.6928  -47.9064  -23.5485 C   0  0  0  0  0  0  0  0  0  0  0  0
    5.7511  -47.3516  -23.8269 O   0  0  0  0  0  0  0  0  0  0  0  0
    3.5525  -47.8209  -24.3644 N   0  0  0  0  0  0  0  0  0  0  0  0
    2.6995  -48.3512  -23.9789 H   0  0  0  0  0  0  0  0  0  0  0  0
    3.4334  -47.1603  -25.5997 C   0  0  0  0  0  0  0  0  0  0  0  0
    3.7883  -47.7611  -26.7836 C   0  0  0  0  0  0  0  0  0  0  0  0
    3.5577  -47.1840  -28.0330 C   0  0  0  0  0  0  0  0  0  0  0  0
    2.9509  -45.9632  -28.0801 C   0  0  0  0  0  0  0  0  0  0  0  0
    2.5904  -45.3442  -26.9123 C   0  0  0  0  0  0  0  0  0  0  0  0
    2.8212  -45.9210  -25.6523 C   0  0  0  0  0  0  0  0  0  0  0  0
    2.4167  -45.1834  -24.5087 N   0  0  0  0  0  0  0  0  0  0  0  0
    3.2273  -44.8261  -23.4801 O   0  0  0  0  0  0  0  0  0  0  0  0
    1.2114  -44.8386  -24.4367 O   0  0  0  0  0  0  0  0  0  0  0  0
    2.6823  -45.3355  -29.3367 N   0  0  0  0  0  0  0  0  0  0  0  0
    1.6294  -45.7379  -30.0778 O   0  0  0  0  0  0  0  0  0  0  0  0
    3.4231  -44.4296  -29.7125 O   0  0  0  0  0  0  0  0  0  0  0  0
 22 23  1  0  0  0
 23 24  2  0  0  0
 23 25  2  0  0  0
 23 16  1  0  0  0
 16 17  2  0  0  0
 17 18  1  0  0  0
 18 19  2  0  0  0
 19 20  1  0  0  0
 20 21  2  0  0  0
 19  1  1  0  0  0
  1  2  1  0  0  0
  2 28  1  0  0  0
 28 29  1  0  0  0
 29 30  1  0  0  0
 30 31  2  0  0  0
 30 32  1  0  0  0
 32 34  1  0  0  0
 34 35  2  0  0  0
 35 36  1  0  0  0
 36 37  2  0  0  0
 37 38  1  0  0  0
 38 39  2  0  0  0
 39 40  1  0  0  0
 40 41  1  0  0  0
 40 42  2  0  0  0
 37 43  1  0  0  0
 43 44  1  0  0  0
 43 45  2  0  0  0
  2  3  2  0  0  0
  3  4  1  0  0  0
  4  5  2  0  0  0
  5  6  1  0  0  0
  6  7  2  0  0  0
  7  8  1  0  0  0
  8  9  2  0  0  0
  9 10  1  0  0  0
 10 11  2  0  0  0
 11 12  1  0  0  0
 12 13  2  0  0  0
 13 14  1  0  0  0
 14 15  2  0  0  0
 21 16  1  0  0  0
 14  1  1  0  0  0
 39 34  1  0  0  0
 13  4  1  0  0  0
 11  6  1  0  0  0
 22 26  1  0  0  0
 22 27  1  0  0  0
 32 33  1  0  0  0
M  CHG 1  40   1
M  CHG 1  41  -1
M  CHG 1  43   1
M  CHG 1  44  -1
M  END
> <minimizedAffinity>
-9.40271

> <CNNscore>
0.2122641504

> <CNNaffinity>
7.0683341026

> <CNN_VS>
1.5003539324

> <CNNaffinity_variance>
0.2290243208

$$$$
[H]c1c([H])c([N+](=O)[O-])c([H])c([N+](=O)[O-])c1N([H])C(=O)C([H])([H])Sc1nc2c([H])c3c([H])c([H])c([H])c([H])c3c([H])c2c(=O)n1-c1c([H])c([H])c(S(=O)(=O)N([H])[H])c([H])c1[H]


 45 49  0  0  0  0  0  0  0  0999 V2000
    1.0818  -51.6906  -21.7964 N   0  0  0  0  0  0  0  0  0  0  0  0
    2.3656  -51.6820  -22.2322 C   0  0  0  0  0  0  0  0  0  0  0  0
    2.6500  -51.8575  -23.5469 N   0  0  0  0  0  0  0  0  0  0  0  0
    1.6224  -52.0477  -24.4342 C   0  0  0  0  0  0  0  0  0  0  0  0
    1.9189  -52.2457  -25.7832 C   0  0  0  0  0  0  0  0  0  0  0  0
    0.9098  -52.4580  -26.6963 C   0  0  0  0  0  0  0  0  0  0  0  0
    1.1656  -52.6698  -28.0383 C   0  0  0  0  0  0  0  0  0  0  0  0
    0.1606  -52.8944  -28.9484 C   0  0  0  0  0  0  0  0  0  0  0  0
   -1.1567  -52.9072  -28.4912 C   0  0  0  0  0  0  0  0  0  0  0  0
   -1.3847  -52.6935  -27.1521 C   0  0  0  0  0  0  0  0  0  0  0  0
   -0.3810  -52.4648  -26.2167 C   0  0  0  0  0  0  0  0  0  0  0  0
   -0.7067  -52.2717  -24.8898 C   0  0  0  0  0  0  0  0  0  0  0  0
    0.3248  -52.0581  -23.9872 C   0  0  0  0  0  0  0  0  0  0  0  0
    0.0548  -51.8756  -22.6430 C   0  0  0  0  0  0  0  0  0  0  0  0
   -1.1369  -51.8896  -22.2723 O   0  0  0  0  0  0  0  0  0  0  0  0
    0.1356  -51.2234  -17.7117 C   0  0  0  0  0  0  0  0  0  0  0  0
    0.0044  -52.4399  -18.3507 C   0  0  0  0  0  0  0  0  0  0  0  0
    0.3254  -52.5597  -19.6811 C   0  0  0  0  0  0  0  0  0  0  0  0
    0.7874  -51.4793  -20.4291 C   0  0  0  0  0  0  0  0  0  0  0  0
    0.9081  -50.2777  -19.7598 C   0  0  0  0  0  0  0  0  0  0  0  0
    0.5968  -50.1183  -18.4264 C   0  0  0  0  0  0  0  0  0  0  0  0
   -0.3515  -52.5703  -15.2726 N   0  0  0  0  0  0  0  0  0  0  0  0
   -0.3110  -51.0138  -16.0319 S   0  0  0  0  0  0  0  0  0  0  0  0
    0.7349  -50.1406  -15.3431 O   0  0  0  0  0  0  0  0  0  0  0  0
   -1.6370  -50.3569  -15.9107 O   0  0  0  0  0  0  0  0  0  0  0  0
   -1.0889  -52.5914  -14.5460 H   0  0  0  0  0  0  0  0  0  0  0  0
   -0.6494  -53.2430  -16.0149 H   0  0  0  0  0  0  0  0  0  0  0  0
    3.6042  -51.5161  -20.9840 S   0  0  0  0  0  0  0  0  0  0  0  0
    4.4889  -49.9856  -21.0141 C   0  0  0  0  0  0  0  0  0  0  0  0
    4.7695  -49.4275  -22.3888 C   0  0  0  0  0  0  0  0  0  0  0  0
    5.8815  -49.5002  -22.9021 O   0  0  0  0  0  0  0  0  0  0  0  0
    3.6722  -48.8332  -23.0339 N   0  0  0  0  0  0  0  0  0  0  0  0
    2.7688  -48.8359  -22.4496 H   0  0  0  0  0  0  0  0  0  0  0  0
    3.6363  -48.2848  -24.3279 C   0  0  0  0  0  0  0  0  0  0  0  0
    3.7528  -49.0653  -25.4529 C   0  0  0  0  0  0  0  0  0  0  0  0
    3.5876  -48.5706  -26.7471 C   0  0  0  0  0  0  0  0  0  0  0  0
    3.2968  -47.2469  -26.9019 C   0  0  0  0  0  0  0  0  0  0  0  0
    3.1782  -46.4489  -25.7947 C   0  0  0  0  0  0  0  0  0  0  0  0
    3.3445  -46.9424  -24.4899 C   0  0  0  0  0  0  0  0  0  0  0  0
    3.2107  -46.0214  -23.4178 N   0  0  0  0  0  0  0  0  0  0  0  0
    3.8402  -46.1180  -22.2191 O   0  0  0  0  0  0  0  0  0  0  0  0
    2.4434  -45.0417  -23.5864 O   0  0  0  0  0  0  0  0  0  0  0  0
    3.1067  -46.6946  -28.2073 N   0  0  0  0  0  0  0  0  0  0  0  0
    2.5346  -45.4810  -28.3471 O   0  0  0  0  0  0  0  0  0  0  0  0
    3.4793  -47.3447  -29.1815 O   0  0  0  0  0  0  0  0  0  0  0  0
 22 23  1  0  0  0
 23 24  2  0  0  0
 23 25  2  0  0  0
 23 16  1  0  0  0
 16 17  2  0  0  0
 17 18  1  0  0  0
 18 19  2  0  0  0
 19 20  1  0  0  0
 20 21  2  0  0  0
 19  1  1  0  0  0
  1  2  1  0  0  0
  2 28  1  0  0  0
 28 29  1  0  0  0
 29 30  1  0  0  0
 30 31  2  0  0  0
 30 32  1  0  0  0
 32 34  1  0  0  0
 34 35  2  0  0  0
 35 36  1  0  0  0
 36 37  2  0  0  0
 37 38  1  0  0  0
 38 39  2  0  0  0
 39 40  1  0  0  0
 40 41  1  0  0  0
 40 42  2  0  0  0
 37 43  1  0  0  0
 43 44  1  0  0  0
 43 45  2  0  0  0
  2  3  2  0  0  0
  3  4  1  0  0  0
  4  5  2  0  0  0
  5  6  1  0  0  0
  6  7  2  0  0  0
  7  8  1  0  0  0
  8  9  2  0  0  0
  9 10  1  0  0  0
 10 11  2  0  0  0
 11 12  1  0  0  0
 12 13  2  0  0  0
 13 14  1  0  0  0
 14 15  2  0  0  0
 21 16  1  0  0  0
 14  1  1  0  0  0
 39 34  1  0  0  0
 13  4  1  0  0  0
 11  6  1  0  0  0
 22 26  1  0  0  0
 22 27  1  0  0  0
 32 33  1  0  0  0
M  CHG 1  40   1
M  CHG 1  41  -1
M  CHG 1  43   1
M  CHG 1  44  -1
M  END
> <minimizedAffinity>
-9.32125

> <CNNscore>
0.1911756545

> <CNNaffinity>
7.1027703285

> <CNN_VS>
1.3578767776

> <CNNaffinity_variance>
0.4060378969

$$$$
[H]c1c([H])c([N+](=O)[O-])c([H])c([N+](=O)[O-])c1N([H])C(=O)C([H])([H])Sc1nc2c([H])c3c([H])c([H])c([H])c([H])c3c([H])c2c(=O)n1-c1c([H])c([H])c(S(=O)(=O)N([H])[H])c([H])c1[H]


 45 49  0  0  0  0  0  0  0  0999 V2000
    1.1219  -51.9395  -22.7094 N   0  0  0  0  0  0  0  0  0  0  0  0
    2.3609  -52.0201  -23.2540 C   0  0  0  0  0  0  0  0  0  0  0  0
    2.5182  -52.1930  -24.5902 N   0  0  0  0  0  0  0  0  0  0  0  0
    1.4072  -52.2890  -25.3878 C   0  0  0  0  0  0  0  0  0  0  0  0
    1.5719  -52.4846  -26.7595 C   0  0  0  0  0  0  0  0  0  0  0  0
    0.4755  -52.6037  -27.5846 C   0  0  0  0  0  0  0  0  0  0  0  0
    0.5992  -52.8101  -28.9460 C   0  0  0  0  0  0  0  0  0  0  0  0
   -0.4938  -52.9417  -29.7686 C   0  0  0  0  0  0  0  0  0  0  0  0
   -1.7645  -52.8631  -29.1998 C   0  0  0  0  0  0  0  0  0  0  0  0
   -1.8607  -52.6568  -27.8437 C   0  0  0  0  0  0  0  0  0  0  0  0
   -0.7666  -52.5215  -26.9957 C   0  0  0  0  0  0  0  0  0  0  0  0
   -0.9624  -52.3282  -25.6436 C   0  0  0  0  0  0  0  0  0  0  0  0
    0.1555  -52.2093  -24.8308 C   0  0  0  0  0  0  0  0  0  0  0  0
    0.0156  -52.0311  -23.4663 C   0  0  0  0  0  0  0  0  0  0  0  0
   -1.1379  -51.9616  -22.9945 O   0  0  0  0  0  0  0  0  0  0  0  0
    0.6538  -51.1437  -18.5928 C   0  0  0  0  0  0  0  0  0  0  0  0
    0.6306  -50.1331  -19.5327 C   0  0  0  0  0  0  0  0  0  0  0  0
    0.7815  -50.4264  -20.8663 C   0  0  0  0  0  0  0  0  0  0  0  0
    0.9620  -51.7311  -21.3194 C   0  0  0  0  0  0  0  0  0  0  0  0
    0.9792  -52.7180  -20.3540 C   0  0  0  0  0  0  0  0  0  0  0  0
    0.8306  -52.4635  -19.0074 C   0  0  0  0  0  0  0  0  0  0  0  0
   -0.4985  -52.0149  -16.1610 N   0  0  0  0  0  0  0  0  0  0  0  0
    0.5175  -50.8099  -16.8796 S   0  0  0  0  0  0  0  0  0  0  0  0
    1.9056  -50.8741  -16.2471 O   0  0  0  0  0  0  0  0  0  0  0  0
   -0.0535  -49.4599  -16.6432 O   0  0  0  0  0  0  0  0  0  0  0  0
   -1.0425  -51.6021  -15.3827 H   0  0  0  0  0  0  0  0  0  0  0  0
   -1.1915  -52.2806  -16.8969 H   0  0  0  0  0  0  0  0  0  0  0  0
    3.7103  -51.9708  -22.1153 S   0  0  0  0  0  0  0  0  0  0  0  0
    4.9516  -50.7676  -22.4862 C   0  0  0  0  0  0  0  0  0  0  0  0
    5.0925  -49.6518  -21.4786 C   0  0  0  0  0  0  0  0  0  0  0  0
    6.0699  -48.9103  -21.4666 O   0  0  0  0  0  0  0  0  0  0  0  0
    4.0283  -49.5209  -20.5711 N   0  0  0  0  0  0  0  0  0  0  0  0
    3.2513  -50.2535  -20.7013 H   0  0  0  0  0  0  0  0  0  0  0  0
    3.8744  -48.5461  -19.5698 C   0  0  0  0  0  0  0  0  0  0  0  0
    4.1848  -48.7976  -18.2550 C   0  0  0  0  0  0  0  0  0  0  0  0
    4.1703  -47.8149  -17.2645 C   0  0  0  0  0  0  0  0  0  0  0  0
    3.8303  -46.5426  -17.6199 C   0  0  0  0  0  0  0  0  0  0  0  0
    3.5146  -46.2688  -18.9245 C   0  0  0  0  0  0  0  0  0  0  0  0
    3.5271  -47.2550  -19.9249 C   0  0  0  0  0  0  0  0  0  0  0  0
    3.1703  -46.8597  -21.2409 N   0  0  0  0  0  0  0  0  0  0  0  0
    3.8235  -45.9299  -21.9836 O   0  0  0  0  0  0  0  0  0  0  0  0
    2.1660  -47.4070  -21.7594 O   0  0  0  0  0  0  0  0  0  0  0  0
    3.8120  -45.4978  -16.6434 N   0  0  0  0  0  0  0  0  0  0  0  0
    3.0146  -44.4246  -16.8220 O   0  0  0  0  0  0  0  0  0  0  0  0
    4.5278  -45.6076  -15.6504 O   0  0  0  0  0  0  0  0  0  0  0  0
 22 23  1  0  0  0
 23 24  2  0  0  0
 23 25  2  0  0  0
 23 16  1  0  0  0
 16 17  2  0  0  0
 17 18  1  0  0  0
 18 19  2  0  0  0
 19 20  1  0  0  0
 20 21  2  0  0  0
 19  1  1  0  0  0
  1  2  1  0  0  0
  2 28  1  0  0  0
 28 29  1  0  0  0
 29 30  1  0  0  0
 30 31  2  0  0  0
 30 32  1  0  0  0
 32 34  1  0  0  0
 34 35  2  0  0  0
 35 36  1  0  0  0
 36 37  2  0  0  0
 37 38  1  0  0  0
 38 39  2  0  0  0
 39 40  1  0  0  0
 40 41  1  0  0  0
 40 42  2  0  0  0
 37 43  1  0  0  0
 43 44  1  0  0  0
 43 45  2  0  0  0
  2  3  2  0  0  0
  3  4  1  0  0  0
  4  5  2  0  0  0
  5  6  1  0  0  0
  6  7  2  0  0  0
  7  8  1  0  0  0
  8  9  2  0  0  0
  9 10  1  0  0  0
 10 11  2  0  0  0
 11 12  1  0  0  0
 12 13  2  0  0  0
 13 14  1  0  0  0
 14 15  2  0  0  0
 21 16  1  0  0  0
 14  1  1  0  0  0
 39 34  1  0  0  0
 13  4  1  0  0  0
 11  6  1  0  0  0
 22 26  1  0  0  0
 22 27  1  0  0  0
 32 33  1  0  0  0
M  CHG 1  40   1
M  CHG 1  41  -1
M  CHG 1  43   1
M  CHG 1  44  -1
M  END
> <minimizedAffinity>
-7.63549

> <CNNscore>
0.1648784727

> <CNNaffinity>
7.0310163498

> <CNN_VS>
1.1592632532

> <CNNaffinity_variance>
0.4501505792

$$$$
[H]c1c([H])c([N+](=O)[O-])c([H])c([N+](=O)[O-])c1N([H])C(=O)C([H])([H])Sc1nc2c([H])c3c([H])c([H])c([H])c([H])c3c([H])c2c(=O)n1-c1c([H])c([H])c(S(=O)(=O)N([H])[H])c([H])c1[H]


 45 49  0  0  0  0  0  0  0  0999 V2000
    2.8729  -49.0478  -21.3313 N   0  0  0  0  0  0  0  0  0  0  0  0
    2.9106  -50.1649  -22.0986 C   0  0  0  0  0  0  0  0  0  0  0  0
    3.0477  -50.0737  -23.4450 N   0  0  0  0  0  0  0  0  0  0  0  0
    3.1452  -48.8355  -24.0254 C   0  0  0  0  0  0  0  0  0  0  0  0
    3.2683  -48.7442  -25.4123 C   0  0  0  0  0  0  0  0  0  0  0  0
    3.3496  -47.5142  -26.0268 C   0  0  0  0  0  0  0  0  0  0  0  0
    3.4602  -47.3840  -27.3987 C   0  0  0  0  0  0  0  0  0  0  0  0
    3.5286  -46.1573  -28.0143 C   0  0  0  0  0  0  0  0  0  0  0  0
    3.4836  -45.0131  -27.2184 C   0  0  0  0  0  0  0  0  0  0  0  0
    3.3739  -45.1694  -25.8567 C   0  0  0  0  0  0  0  0  0  0  0  0
    3.3033  -46.4021  -25.2162 C   0  0  0  0  0  0  0  0  0  0  0  0
    3.1826  -46.4590  -23.8429 C   0  0  0  0  0  0  0  0  0  0  0  0
    3.1038  -47.7080  -23.2441 C   0  0  0  0  0  0  0  0  0  0  0  0
    2.9653  -47.8215  -21.8726 C   0  0  0  0  0  0  0  0  0  0  0  0
    2.9328  -46.7749  -21.1932 O   0  0  0  0  0  0  0  0  0  0  0  0
    2.7030  -49.3815  -17.1290 C   0  0  0  0  0  0  0  0  0  0  0  0
    3.9043  -49.3977  -17.8086 C   0  0  0  0  0  0  0  0  0  0  0  0
    3.9254  -49.2824  -19.1774 C   0  0  0  0  0  0  0  0  0  0  0  0
    2.7579  -49.1475  -19.9249 C   0  0  0  0  0  0  0  0  0  0  0  0
    1.5739  -49.1338  -19.2147 C   0  0  0  0  0  0  0  0  0  0  0  0
    1.5121  -49.2463  -17.8423 C   0  0  0  0  0  0  0  0  0  0  0  0
    4.1508  -49.1089  -14.7145 N   0  0  0  0  0  0  0  0  0  0  0  0
    2.6265  -49.5776  -15.3911 S   0  0  0  0  0  0  0  0  0  0  0  0
    1.5265  -48.6763  -14.8355 O   0  0  0  0  0  0  0  0  0  0  0  0
    2.3217  -50.9842  -15.0261 O   0  0  0  0  0  0  0  0  0  0  0  0
    4.3616  -49.6863  -13.8812 H   0  0  0  0  0  0  0  0  0  0  0  0
    4.8697  -49.3537  -15.4326 H   0  0  0  0  0  0  0  0  0  0  0  0
    2.6877  -51.6957  -21.2462 S   0  0  0  0  0  0  0  0  0  0  0  0
    1.0188  -52.2766  -21.1865 C   0  0  0  0  0  0  0  0  0  0  0  0
    0.4889  -52.8556  -22.4764 C   0  0  0  0  0  0  0  0  0  0  0  0
   -0.1278  -53.9159  -22.5046 O   0  0  0  0  0  0  0  0  0  0  0  0
    0.7435  -52.0938  -23.6289 N   0  0  0  0  0  0  0  0  0  0  0  0
    1.3064  -51.1960  -23.4428 H   0  0  0  0  0  0  0  0  0  0  0  0
    0.3248  -52.3665  -24.9430 C   0  0  0  0  0  0  0  0  0  0  0  0
   -0.9685  -52.1510  -25.3545 C   0  0  0  0  0  0  0  0  0  0  0  0
   -1.3810  -52.2843  -26.6808 C   0  0  0  0  0  0  0  0  0  0  0  0
   -0.4543  -52.6471  -27.6136 C   0  0  0  0  0  0  0  0  0  0  0  0
    0.8407  -52.8695  -27.2261 C   0  0  0  0  0  0  0  0  0  0  0  0
    1.2605  -52.7373  -25.8920 C   0  0  0  0  0  0  0  0  0  0  0  0
    2.6245  -53.0048  -25.6034 N   0  0  0  0  0  0  0  0  0  0  0  0
    3.1318  -53.2411  -24.3667 O   0  0  0  0  0  0  0  0  0  0  0  0
    3.4301  -53.0172  -26.5667 O   0  0  0  0  0  0  0  0  0  0  0  0
   -0.8252  -52.7855  -28.9879 N   0  0  0  0  0  0  0  0  0  0  0  0
   -2.1044  -53.0625  -29.3144 O   0  0  0  0  0  0  0  0  0  0  0  0
    0.0402  -52.6412  -29.8486 O   0  0  0  0  0  0  0  0  0  0  0  0
 22 23  1  0  0  0
 23 24  2  0  0  0
 23 25  2  0  0  0
 23 16  1  0  0  0
 16 17  2  0  0  0
 17 18  1  0  0  0
 18 19  2  0  0  0
 19 20  1  0  0  0
 20 21  2  0  0  0
 19  1  1  0  0  0
  1  2  1  0  0  0
  2 28  1  0  0  0
 28 29  1  0  0  0
 29 30  1  0  0  0
 30 31  2  0  0  0
 30 32  1  0  0  0
 32 34  1  0  0  0
 34 35  2  0  0  0
 35 36  1  0  0  0
 36 37  2  0  0  0
 37 38  1  0  0  0
 38 39  2  0  0  0
 39 40  1  0  0  0
 40 41  1  0  0  0
 40 42  2  0  0  0
 37 43  1  0  0  0
 43 44  1  0  0  0
 43 45  2  0  0  0
  2  3  2  0  0  0
  3  4  1  0  0  0
  4  5  2  0  0  0
  5  6  1  0  0  0
  6  7  2  0  0  0
  7  8  1  0  0  0
  8  9  2  0  0  0
  9 10  1  0  0  0
 10 11  2  0  0  0
 11 12  1  0  0  0
 12 13  2  0  0  0
 13 14  1  0  0  0
 14 15  2  0  0  0
 21 16  1  0  0  0
 14  1  1  0  0  0
 39 34  1  0  0  0
 13  4  1  0  0  0
 11  6  1  0  0  0
 22 26  1  0  0  0
 22 27  1  0  0  0
 32 33  1  0  0  0
M  CHG 1  40   1
M  CHG 1  41  -1
M  CHG 1  43   1
M  CHG 1  44  -1
M  END
> <minimizedAffinity>
-8.54624

> <CNNscore>
0.1645243019

> <CNNaffinity>
7.0115690231

> <CNN_VS>
1.1535735130

> <CNNaffinity_variance>
0.2194142640

$$$$
[H]c1c([H])c([N+](=O)[O-])c([H])c([N+](=O)[O-])c1N([H])C(=O)C([H])([H])Sc1nc2c([H])c3c([H])c([H])c([H])c([H])c3c([H])c2c(=O)n1-c1c([H])c([H])c(S(=O)(=O)N([H])[H])c([H])c1[H]


 45 49  0  0  0  0  0  0  0  0999 V2000
    2.5047  -49.6935  -19.7745 N   0  0  0  0  0  0  0  0  0  0  0  0
    2.4364  -50.7015  -20.6786 C   0  0  0  0  0  0  0  0  0  0  0  0
    2.6136  -50.4566  -22.0009 N   0  0  0  0  0  0  0  0  0  0  0  0
    2.8606  -49.1737  -22.4166 C   0  0  0  0  0  0  0  0  0  0  0  0
    3.0249  -48.9219  -23.7792 C   0  0  0  0  0  0  0  0  0  0  0  0
    3.2557  -47.6410  -24.2299 C   0  0  0  0  0  0  0  0  0  0  0  0
    3.4115  -47.3514  -25.5727 C   0  0  0  0  0  0  0  0  0  0  0  0
    3.6291  -46.0721  -26.0251 C   0  0  0  0  0  0  0  0  0  0  0  0
    3.6925  -45.0402  -25.0893 C   0  0  0  0  0  0  0  0  0  0  0  0
    3.5350  -45.3544  -23.7598 C   0  0  0  0  0  0  0  0  0  0  0  0
    3.3139  -46.6424  -23.2836 C   0  0  0  0  0  0  0  0  0  0  0  0
    3.1562  -46.8589  -21.9300 C   0  0  0  0  0  0  0  0  0  0  0  0
    2.9262  -48.1567  -21.4973 C   0  0  0  0  0  0  0  0  0  0  0  0
    2.7444  -48.4267  -20.1530 C   0  0  0  0  0  0  0  0  0  0  0  0
    2.8122  -47.4777  -19.3452 O   0  0  0  0  0  0  0  0  0  0  0  0
    2.1978  -50.5480  -15.6545 C   0  0  0  0  0  0  0  0  0  0  0  0
    3.3873  -50.6985  -16.3384 C   0  0  0  0  0  0  0  0  0  0  0  0
    3.4549  -50.4072  -17.6793 C   0  0  0  0  0  0  0  0  0  0  0  0
    2.3472  -49.9570  -18.3937 C   0  0  0  0  0  0  0  0  0  0  0  0
    1.1737  -49.8163  -17.6798 C   0  0  0  0  0  0  0  0  0  0  0  0
    1.0666  -50.0977  -16.3346 C   0  0  0  0  0  0  0  0  0  0  0  0
    2.7183  -52.5378  -13.7127 N   0  0  0  0  0  0  0  0  0  0  0  0
    2.0539  -50.9569  -13.9583 S   0  0  0  0  0  0  0  0  0  0  0  0
    2.8409  -49.9422  -13.1324 O   0  0  0  0  0  0  0  0  0  0  0  0
    0.6349  -50.9308  -13.5220 O   0  0  0  0  0  0  0  0  0  0  0  0
    2.1980  -53.0288  -12.9641 H   0  0  0  0  0  0  0  0  0  0  0  0
    2.5336  -53.0659  -14.5955 H   0  0  0  0  0  0  0  0  0  0  0  0
    2.0262  -52.2931  -20.0318 S   0  0  0  0  0  0  0  0  0  0  0  0
    0.3277  -52.7514  -20.2081 C   0  0  0  0  0  0  0  0  0  0  0  0
   -0.2733  -52.4958  -21.5696 C   0  0  0  0  0  0  0  0  0  0  0  0
   -1.3427  -51.9098  -21.7053 O   0  0  0  0  0  0  0  0  0  0  0  0
    0.4792  -52.9656  -22.6588 N   0  0  0  0  0  0  0  0  0  0  0  0
    1.3871  -53.4694  -22.3769 H   0  0  0  0  0  0  0  0  0  0  0  0
    0.1859  -52.8202  -24.0260 C   0  0  0  0  0  0  0  0  0  0  0  0
    0.5987  -51.7253  -24.7467 C   0  0  0  0  0  0  0  0  0  0  0  0
    0.4400  -51.6156  -26.1287 C   0  0  0  0  0  0  0  0  0  0  0  0
   -0.1549  -52.6460  -26.7958 C   0  0  0  0  0  0  0  0  0  0  0  0
   -0.5766  -53.7467  -26.0977 C   0  0  0  0  0  0  0  0  0  0  0  0
   -0.4197  -53.8613  -24.7063 C   0  0  0  0  0  0  0  0  0  0  0  0
   -0.9056  -55.0421  -24.0860 N   0  0  0  0  0  0  0  0  0  0  0  0
   -1.3543  -55.1276  -22.8077 O   0  0  0  0  0  0  0  0  0  0  0  0
   -0.9157  -56.0953  -24.7700 O   0  0  0  0  0  0  0  0  0  0  0  0
   -0.3299  -52.5861  -28.2139 N   0  0  0  0  0  0  0  0  0  0  0  0
   -1.5728  -52.5637  -28.7376 O   0  0  0  0  0  0  0  0  0  0  0  0
    0.6689  -52.5501  -28.9293 O   0  0  0  0  0  0  0  0  0  0  0  0
 22 23  1  0  0  0
 23 24  2  0  0  0
 23 25  2  0  0  0
 23 16  1  0  0  0
 16 17  2  0  0  0
 17 18  1  0  0  0
 18 19  2  0  0  0
 19 20  1  0  0  0
 20 21  2  0  0  0
 19  1  1  0  0  0
  1  2  1  0  0  0
  2 28  1  0  0  0
 28 29  1  0  0  0
 29 30  1  0  0  0
 30 31  2  0  0  0
 30 32  1  0  0  0
 32 34  1  0  0  0
 34 35  2  0  0  0
 35 36  1  0  0  0
 36 37  2  0  0  0
 37 38  1  0  0  0
 38 39  2  0  0  0
 39 40  1  0  0  0
 40 41  1  0  0  0
 40 42  2  0  0  0
 37 43  1  0  0  0
 43 44  1  0  0  0
 43 45  2  0  0  0
  2  3  2  0  0  0
  3  4  1  0  0  0
  4  5  2  0  0  0
  5  6  1  0  0  0
  6  7  2  0  0  0
  7  8  1  0  0  0
  8  9  2  0  0  0
  9 10  1  0  0  0
 10 11  2  0  0  0
 11 12  1  0  0  0
 12 13  2  0  0  0
 13 14  1  0  0  0
 14 15  2  0  0  0
 21 16  1  0  0  0
 14  1  1  0  0  0
 39 34  1  0  0  0
 13  4  1  0  0  0
 11  6  1  0  0  0
 22 26  1  0  0  0
 22 27  1  0  0  0
 32 33  1  0  0  0
M  CHG 1  40   1
M  CHG 1  41  -1
M  CHG 1  43   1
M  CHG 1  44  -1
M  END
> <minimizedAffinity>
-8.80293

> <CNNscore>
0.1642159522

> <CNNaffinity>
7.0803956985

> <CNN_VS>
1.1627138853

> <CNNaffinity_variance>
0.1517011225

$$$$
[H]c1c([H])c([N+](=O)[O-])c([H])c([N+](=O)[O-])c1N([H])C(=O)C([H])([H])Sc1nc2c([H])c3c([H])c([H])c([H])c([H])c3c([H])c2c(=O)n1-c1c([H])c([H])c(S(=O)(=O)N([H])[H])c([H])c1[H]


 45 49  0  0  0  0  0  0  0  0999 V2000
    1.7502  -50.4642  -19.1137 N   0  0  0  0  0  0  0  0  0  0  0  0
    0.7561  -51.3845  -19.0610 C   0  0  0  0  0  0  0  0  0  0  0  0
   -0.1330  -51.3831  -18.0365 N   0  0  0  0  0  0  0  0  0  0  0  0
   -0.0142  -50.4397  -17.0488 C   0  0  0  0  0  0  0  0  0  0  0  0
   -0.9194  -50.4517  -15.9870 C   0  0  0  0  0  0  0  0  0  0  0  0
   -0.8150  -49.5289  -14.9699 C   0  0  0  0  0  0  0  0  0  0  0  0
   -1.6857  -49.5172  -13.8960 C   0  0  0  0  0  0  0  0  0  0  0  0
   -1.5751  -48.6051  -12.8740 C   0  0  0  0  0  0  0  0  0  0  0  0
   -0.5465  -47.6654  -12.9330 C   0  0  0  0  0  0  0  0  0  0  0  0
    0.3057  -47.6976  -14.0116 C   0  0  0  0  0  0  0  0  0  0  0  0
    0.2095  -48.6128  -15.0546 C   0  0  0  0  0  0  0  0  0  0  0  0
    1.1197  -48.5745  -16.0909 C   0  0  0  0  0  0  0  0  0  0  0  0
    0.9957  -49.5121  -17.1059 C   0  0  0  0  0  0  0  0  0  0  0  0
    1.8914  -49.5287  -18.1596 C   0  0  0  0  0  0  0  0  0  0  0  0
    2.7963  -48.6692  -18.1797 O   0  0  0  0  0  0  0  0  0  0  0  0
    4.3411  -50.3326  -22.4407 C   0  0  0  0  0  0  0  0  0  0  0  0
    3.1707  -49.6017  -22.4052 C   0  0  0  0  0  0  0  0  0  0  0  0
    2.3509  -49.6632  -21.3046 C   0  0  0  0  0  0  0  0  0  0  0  0
    2.6585  -50.4513  -20.1980 C   0  0  0  0  0  0  0  0  0  0  0  0
    3.8364  -51.1685  -20.2652 C   0  0  0  0  0  0  0  0  0  0  0  0
    4.6848  -51.1324  -21.3511 C   0  0  0  0  0  0  0  0  0  0  0  0
    6.4155  -51.7177  -23.7745 N   0  0  0  0  0  0  0  0  0  0  0  0
    5.3886  -50.3243  -23.8434 S   0  0  0  0  0  0  0  0  0  0  0  0
    4.5322  -50.3875  -25.1057 O   0  0  0  0  0  0  0  0  0  0  0  0
    6.2127  -49.0899  -23.8862 O   0  0  0  0  0  0  0  0  0  0  0  0
    7.3406  -51.4973  -24.1840 H   0  0  0  0  0  0  0  0  0  0  0  0
    6.5789  -51.9026  -22.7589 H   0  0  0  0  0  0  0  0  0  0  0  0
    0.7595  -52.6000  -20.3426 S   0  0  0  0  0  0  0  0  0  0  0  0
   -0.8325  -52.9774  -21.0127 C   0  0  0  0  0  0  0  0  0  0  0  0
   -0.8327  -53.4772  -22.4376 C   0  0  0  0  0  0  0  0  0  0  0  0
   -1.1096  -54.6397  -22.7156 O   0  0  0  0  0  0  0  0  0  0  0  0
   -0.5047  -52.5202  -23.4123 N   0  0  0  0  0  0  0  0  0  0  0  0
   -0.2745  -51.5493  -23.0103 H   0  0  0  0  0  0  0  0  0  0  0  0
   -0.4786  -52.6956  -24.8069 C   0  0  0  0  0  0  0  0  0  0  0  0
   -1.6084  -52.5653  -25.5783 C   0  0  0  0  0  0  0  0  0  0  0  0
   -1.5900  -52.6009  -26.9731 C   0  0  0  0  0  0  0  0  0  0  0  0
   -0.3913  -52.7743  -27.6005 C   0  0  0  0  0  0  0  0  0  0  0  0
    0.7480  -52.9088  -26.8519 C   0  0  0  0  0  0  0  0  0  0  0  0
    0.7343  -52.8744  -25.4475 C   0  0  0  0  0  0  0  0  0  0  0  0
    1.9739  -53.0367  -24.7748 N   0  0  0  0  0  0  0  0  0  0  0  0
    2.2116  -52.7057  -23.4799 O   0  0  0  0  0  0  0  0  0  0  0  0
    2.9313  -53.5179  -25.4297 O   0  0  0  0  0  0  0  0  0  0  0  0
   -0.3187  -52.8060  -29.0285 N   0  0  0  0  0  0  0  0  0  0  0  0
   -1.4412  -52.9845  -29.7550 O   0  0  0  0  0  0  0  0  0  0  0  0
    0.7774  -52.6621  -29.5655 O   0  0  0  0  0  0  0  0  0  0  0  0
 22 23  1  0  0  0
 23 24  2  0  0  0
 23 25  2  0  0  0
 23 16  1  0  0  0
 16 17  2  0  0  0
 17 18  1  0  0  0
 18 19  2  0  0  0
 19 20  1  0  0  0
 20 21  2  0  0  0
 19  1  1  0  0  0
  1  2  1  0  0  0
  2 28  1  0  0  0
 28 29  1  0  0  0
 29 30  1  0  0  0
 30 31  2  0  0  0
 30 32  1  0  0  0
 32 34  1  0  0  0
 34 35  2  0  0  0
 35 36  1  0  0  0
 36 37  2  0  0  0
 37 38  1  0  0  0
 38 39  2  0  0  0
 39 40  1  0  0  0
 40 41  1  0  0  0
 40 42  2  0  0  0
 37 43  1  0  0  0
 43 44  1  0  0  0
 43 45  2  0  0  0
  2  3  2  0  0  0
  3  4  1  0  0  0
  4  5  2  0  0  0
  5  6  1  0  0  0
  6  7  2  0  0  0
  7  8  1  0  0  0
  8  9  2  0  0  0
  9 10  1  0  0  0
 10 11  2  0  0  0
 11 12  1  0  0  0
 12 13  2  0  0  0
 13 14  1  0  0  0
 14 15  2  0  0  0
 21 16  1  0  0  0
 14  1  1  0  0  0
 39 34  1  0  0  0
 13  4  1  0  0  0
 11  6  1  0  0  0
 22 26  1  0  0  0
 22 27  1  0  0  0
 32 33  1  0  0  0
M  CHG 1  40   1
M  CHG 1  41  -1
M  CHG 1  43   1
M  CHG 1  44  -1
M  END
> <minimizedAffinity>
-8.40421

> <CNNscore>
0.1617175043

> <CNNaffinity>
7.0453543663

> <CNN_VS>
1.1393570900

> <CNNaffinity_variance>
0.2451924831

$$$$
[H]c1c([H])c([N+](=O)[O-])c([H])c([N+](=O)[O-])c1N([H])C(=O)C([H])([H])Sc1nc2c([H])c3c([H])c([H])c([H])c([H])c3c([H])c2c(=O)n1-c1c([H])c([H])c(S(=O)(=O)N([H])[H])c([H])c1[H]


 45 49  0  0  0  0  0  0  0  0999 V2000
    1.4495  -51.1538  -22.3706 N   0  0  0  0  0  0  0  0  0  0  0  0
    2.2458  -50.1184  -22.0076 C   0  0  0  0  0  0  0  0  0  0  0  0
    2.2799  -49.6913  -20.7206 N   0  0  0  0  0  0  0  0  0  0  0  0
    1.4955  -50.3176  -19.7868 C   0  0  0  0  0  0  0  0  0  0  0  0
    1.5192  -49.8648  -18.4672 C   0  0  0  0  0  0  0  0  0  0  0  0
    0.7286  -50.4611  -17.5099 C   0  0  0  0  0  0  0  0  0  0  0  0
    0.7165  -50.0323  -16.1956 C   0  0  0  0  0  0  0  0  0  0  0  0
   -0.0812  -50.6180  -15.2420 C   0  0  0  0  0  0  0  0  0  0  0  0
   -0.9014  -51.6787  -15.6247 C   0  0  0  0  0  0  0  0  0  0  0  0
   -0.8706  -52.0867  -16.9375 C   0  0  0  0  0  0  0  0  0  0  0  0
   -0.0705  -51.5064  -17.9161 C   0  0  0  0  0  0  0  0  0  0  0  0
   -0.1161  -51.9775  -19.2121 C   0  0  0  0  0  0  0  0  0  0  0  0
    0.6893  -51.3637  -20.1604 C   0  0  0  0  0  0  0  0  0  0  0  0
    0.6697  -51.7858  -21.4774 C   0  0  0  0  0  0  0  0  0  0  0  0
   -0.0744  -52.7408  -21.7809 O   0  0  0  0  0  0  0  0  0  0  0  0
    1.5670  -52.6109  -26.3282 C   0  0  0  0  0  0  0  0  0  0  0  0
    2.4693  -53.0350  -25.3735 C   0  0  0  0  0  0  0  0  0  0  0  0
    2.4011  -52.5442  -24.0921 C   0  0  0  0  0  0  0  0  0  0  0  0
    1.4376  -51.6145  -23.7080 C   0  0  0  0  0  0  0  0  0  0  0  0
    0.5501  -51.2123  -24.6862 C   0  0  0  0  0  0  0  0  0  0  0  0
    0.5861  -51.6820  -25.9817 C   0  0  0  0  0  0  0  0  0  0  0  0
    3.2325  -52.8342  -28.6034 N   0  0  0  0  0  0  0  0  0  0  0  0
    1.6497  -53.1705  -27.9849 S   0  0  0  0  0  0  0  0  0  0  0  0
    1.4029  -54.6769  -28.0153 O   0  0  0  0  0  0  0  0  0  0  0  0
    0.6251  -52.5012  -28.8257 O   0  0  0  0  0  0  0  0  0  0  0  0
    3.1791  -52.6131  -29.6135 H   0  0  0  0  0  0  0  0  0  0  0  0
    3.5461  -51.9590  -28.1258 H   0  0  0  0  0  0  0  0  0  0  0  0
    3.1417  -49.3375  -23.3143 S   0  0  0  0  0  0  0  0  0  0  0  0
    3.1056  -47.5701  -23.2870 C   0  0  0  0  0  0  0  0  0  0  0  0
    3.4246  -46.8961  -24.6001 C   0  0  0  0  0  0  0  0  0  0  0  0
    4.2763  -46.0172  -24.6862 O   0  0  0  0  0  0  0  0  0  0  0  0
    2.6882  -47.3517  -25.7062 N   0  0  0  0  0  0  0  0  0  0  0  0
    1.9707  -48.1169  -25.4674 H   0  0  0  0  0  0  0  0  0  0  0  0
    2.8149  -46.9409  -27.0447 C   0  0  0  0  0  0  0  0  0  0  0  0
    2.2538  -45.7737  -27.5043 C   0  0  0  0  0  0  0  0  0  0  0  0
    2.4736  -45.2735  -28.7883 C   0  0  0  0  0  0  0  0  0  0  0  0
    3.2847  -45.9791  -29.6278 C   0  0  0  0  0  0  0  0  0  0  0  0
    3.8532  -47.1469  -29.1922 C   0  0  0  0  0  0  0  0  0  0  0  0
    3.6343  -47.6547  -27.9007 C   0  0  0  0  0  0  0  0  0  0  0  0
    4.2652  -48.8804  -27.5616 N   0  0  0  0  0  0  0  0  0  0  0  0
    3.8008  -50.1152  -27.8815 O   0  0  0  0  0  0  0  0  0  0  0  0
    5.3353  -48.8209  -26.9070 O   0  0  0  0  0  0  0  0  0  0  0  0
    3.5502  -45.5021  -30.9497 N   0  0  0  0  0  0  0  0  0  0  0  0
    2.9350  -46.0719  -32.0062 O   0  0  0  0  0  0  0  0  0  0  0  0
    4.3376  -44.5691  -31.0917 O   0  0  0  0  0  0  0  0  0  0  0  0
 22 23  1  0  0  0
 23 24  2  0  0  0
 23 25  2  0  0  0
 23 16  1  0  0  0
 16 17  2  0  0  0
 17 18  1  0  0  0
 18 19  2  0  0  0
 19 20  1  0  0  0
 20 21  2  0  0  0
 19  1  1  0  0  0
  1  2  1  0  0  0
  2 28  1  0  0  0
 28 29  1  0  0  0
 29 30  1  0  0  0
 30 31  2  0  0  0
 30 32  1  0  0  0
 32 34  1  0  0  0
 34 35  2  0  0  0
 35 36  1  0  0  0
 36 37  2  0  0  0
 37 38  1  0  0  0
 38 39  2  0  0  0
 39 40  1  0  0  0
 40 41  1  0  0  0
 40 42  2  0  0  0
 37 43  1  0  0  0
 43 44  1  0  0  0
 43 45  2  0  0  0
  2  3  2  0  0  0
  3  4  1  0  0  0
  4  5  2  0  0  0
  5  6  1  0  0  0
  6  7  2  0  0  0
  7  8  1  0  0  0
  8  9  2  0  0  0
  9 10  1  0  0  0
 10 11  2  0  0  0
 11 12  1  0  0  0
 12 13  2  0  0  0
 13 14  1  0  0  0
 14 15  2  0  0  0
 21 16  1  0  0  0
 14  1  1  0  0  0
 39 34  1  0  0  0
 13  4  1  0  0  0
 11  6  1  0  0  0
 22 26  1  0  0  0
 22 27  1  0  0  0
 32 33  1  0  0  0
M  CHG 1  40   1
M  CHG 1  41  -1
M  CHG 1  43   1
M  CHG 1  44  -1
M  END
> <minimizedAffinity>
-8.78324

> <CNNscore>
0.1412699521

> <CNNaffinity>
6.9099893570

> <CNN_VS>
0.9761738777

> <CNNaffinity_variance>
0.4367554188

$$$$
[H]C([H])=C([H])C(=O)N([H])c1c([H])c([H])c([H])c(N([H])c2nc(N([H])c3c([H])c([H])c([H])c(OC([H])([H])[H])c3[H])nc([H])c2OC([H])([H])[H])c1[H]


 32 34  0  0  0  0  0  0  0  0999 V2000
   -0.5710  -53.9991  -21.1830 C   0  0  0  0  0  0  0  0  0  0  0  0
   -1.5036  -54.7104  -21.8982 N   0  0  0  0  0  0  0  0  0  0  0  0
   -1.5397  -54.7505  -23.2280 C   0  0  0  0  0  0  0  0  0  0  0  0
   -0.5961  -54.0440  -23.9278 C   0  0  0  0  0  0  0  0  0  0  0  0
    0.3936  -53.2891  -23.2478 C   0  0  0  0  0  0  0  0  0  0  0  0
    0.3194  -53.3329  -21.9174 N   0  0  0  0  0  0  0  0  0  0  0  0
   -0.6307  -54.0097  -19.7660 N   0  0  0  0  0  0  0  0  0  0  0  0
   -0.7865  -54.9834  -19.3437 H   0  0  0  0  0  0  0  0  0  0  0  0
   -0.9400  -51.6378  -16.8704 C   0  0  0  0  0  0  0  0  0  0  0  0
   -0.1346  -50.6324  -17.3402 C   0  0  0  0  0  0  0  0  0  0  0  0
    0.4939  -50.7281  -18.5552 C   0  0  0  0  0  0  0  0  0  0  0  0
    0.2953  -51.8645  -19.2951 C   0  0  0  0  0  0  0  0  0  0  0  0
   -0.5078  -52.9298  -18.8865 C   0  0  0  0  0  0  0  0  0  0  0  0
   -1.1107  -52.7779  -17.6640 C   0  0  0  0  0  0  0  0  0  0  0  0
   -2.9788  -51.7420  -15.5388 C   0  0  0  0  0  0  0  0  0  0  0  0
   -1.5932  -51.5859  -15.6542 O   0  0  0  0  0  0  0  0  0  0  0  0
   -0.5789  -54.0448  -25.3148 O   0  0  0  0  0  0  0  0  0  0  0  0
   -1.1325  -52.9587  -26.0023 C   0  0  0  0  0  0  0  0  0  0  0  0
    1.3503  -52.6124  -24.0184 N   0  0  0  0  0  0  0  0  0  0  0  0
    1.1314  -52.3705  -25.0202 H   0  0  0  0  0  0  0  0  0  0  0  0
    2.6194  -52.2141  -23.5598 C   0  0  0  0  0  0  0  0  0  0  0  0
    3.7675  -52.6290  -24.2256 C   0  0  0  0  0  0  0  0  0  0  0  0
    4.9989  -52.2157  -23.8165 C   0  0  0  0  0  0  0  0  0  0  0  0
    5.1270  -51.3828  -22.7411 C   0  0  0  0  0  0  0  0  0  0  0  0
    4.0020  -50.9458  -22.0501 C   0  0  0  0  0  0  0  0  0  0  0  0
    2.7862  -51.3655  -22.4691 C   0  0  0  0  0  0  0  0  0  0  0  0
    4.2030  -50.0999  -20.9473 N   0  0  0  0  0  0  0  0  0  0  0  0
    4.0755  -50.3766  -19.5785 C   0  0  0  0  0  0  0  0  0  0  0  0
    3.7305  -51.5224  -19.1688 O   0  0  0  0  0  0  0  0  0  0  0  0
    4.5045  -49.0762  -21.1511 H   0  0  0  0  0  0  0  0  0  0  0  0
    4.3211  -49.3989  -18.5336 C   0  0  0  0  0  0  0  0  0  0  0  0
    3.5573  -48.3568  -18.3678 C   0  0  0  0  0  0  0  0  0  0  0  0
 15 16  1  0  0  0
 16  9  1  0  0  0
  9 10  2  0  0  0
 10 11  1  0  0  0
 11 12  2  0  0  0
 12 13  1  0  0  0
 13  7  1  0  0  0
  7  1  1  0  0  0
  1  2  2  0  0  0
  2  3  1  0  0  0
  3  4  2  0  0  0
  4 17  1  0  0  0
 17 18  1  0  0  0
  4  5  1  0  0  0
  5 19  1  0  0  0
 19 21  1  0  0  0
 21 22  2  0  0  0
 22 23  1  0  0  0
 23 24  2  0  0  0
 24 25  1  0  0  0
 25 27  1  0  0  0
 27 28  1  0  0  0
 28 29  2  0  0  0
 28 31  1  0  0  0
 31 32  2  0  0  0
 25 26  2  0  0  0
  5  6  2  0  0  0
 13 14  2  0  0  0
 14  9  1  0  0  0
  6  1  1  0  0  0
 26 21  1  0  0  0
  7  8  1  0  0  0
 19 20  1  0  0  0
 27 30  1  0  0  0
M  END
> <minimizedAffinity>
-7.34616

> <CNNscore>
0.8937553167

> <CNNaffinity>
7.0281586647

> <CNN_VS>
6.2814540863

> <CNNaffinity_variance>
0.0369073935

$$$$
[H]C([H])=C([H])C(=O)N([H])c1c([H])c([H])c([H])c(N([H])c2nc(N([H])c3c([H])c([H])c([H])c(OC([H])([H])[H])c3[H])nc([H])c2OC([H])([H])[H])c1[H]


 32 34  0  0  0  0  0  0  0  0999 V2000
   -0.8279  -53.9282  -21.2657 C   0  0  0  0  0  0  0  0  0  0  0  0
   -1.4387  -54.9546  -21.9443 N   0  0  0  0  0  0  0  0  0  0  0  0
   -1.4177  -55.0784  -23.2693 C   0  0  0  0  0  0  0  0  0  0  0  0
   -0.7509  -54.1312  -24.0024 C   0  0  0  0  0  0  0  0  0  0  0  0
   -0.1002  -53.0462  -23.3610 C   0  0  0  0  0  0  0  0  0  0  0  0
   -0.1963  -53.0389  -22.0313 N   0  0  0  0  0  0  0  0  0  0  0  0
   -0.9245  -53.8799  -19.8515 N   0  0  0  0  0  0  0  0  0  0  0  0
   -1.2781  -54.7902  -19.4076 H   0  0  0  0  0  0  0  0  0  0  0  0
    0.4739  -50.7489  -18.3196 C   0  0  0  0  0  0  0  0  0  0  0  0
   -0.1203  -50.8389  -17.0871 C   0  0  0  0  0  0  0  0  0  0  0  0
   -0.9544  -51.8800  -16.7695 C   0  0  0  0  0  0  0  0  0  0  0  0
   -1.1815  -52.8372  -17.7237 C   0  0  0  0  0  0  0  0  0  0  0  0
   -0.6153  -52.8161  -18.9987 C   0  0  0  0  0  0  0  0  0  0  0  0
    0.2099  -51.7519  -19.2591 C   0  0  0  0  0  0  0  0  0  0  0  0
    1.3260  -49.1728  -19.9720 C   0  0  0  0  0  0  0  0  0  0  0  0
    1.3205  -49.7199  -18.6843 O   0  0  0  0  0  0  0  0  0  0  0  0
   -0.6913  -54.2030  -25.3863 O   0  0  0  0  0  0  0  0  0  0  0  0
    0.0016  -55.2624  -25.9831 C   0  0  0  0  0  0  0  0  0  0  0  0
    0.5914  -52.1265  -24.1628 N   0  0  0  0  0  0  0  0  0  0  0  0
    0.0610  -51.5576  -24.8735 H   0  0  0  0  0  0  0  0  0  0  0  0
    1.9764  -51.8865  -24.1026 C   0  0  0  0  0  0  0  0  0  0  0  0
    2.8533  -52.6444  -24.8707 C   0  0  0  0  0  0  0  0  0  0  0  0
    4.1918  -52.3935  -24.8530 C   0  0  0  0  0  0  0  0  0  0  0  0
    4.6969  -51.3886  -24.0774 C   0  0  0  0  0  0  0  0  0  0  0  0
    3.8514  -50.6085  -23.2960 C   0  0  0  0  0  0  0  0  0  0  0  0
    2.5246  -50.8706  -23.3248 C   0  0  0  0  0  0  0  0  0  0  0  0
    4.4350  -49.5990  -22.5133 N   0  0  0  0  0  0  0  0  0  0  0  0
    4.8363  -49.6342  -21.1701 C   0  0  0  0  0  0  0  0  0  0  0  0
    4.6930  -50.6767  -20.4683 O   0  0  0  0  0  0  0  0  0  0  0  0
    4.6178  -48.6400  -22.9900 H   0  0  0  0  0  0  0  0  0  0  0  0
    5.4369  -48.5070  -20.4799 C   0  0  0  0  0  0  0  0  0  0  0  0
    5.7019  -48.5379  -19.2048 C   0  0  0  0  0  0  0  0  0  0  0  0
 15 16  1  0  0  0
 16  9  1  0  0  0
  9 10  2  0  0  0
 10 11  1  0  0  0
 11 12  2  0  0  0
 12 13  1  0  0  0
 13  7  1  0  0  0
  7  1  1  0  0  0
  1  2  2  0  0  0
  2  3  1  0  0  0
  3  4  2  0  0  0
  4 17  1  0  0  0
 17 18  1  0  0  0
  4  5  1  0  0  0
  5 19  1  0  0  0
 19 21  1  0  0  0
 21 22  2  0  0  0
 22 23  1  0  0  0
 23 24  2  0  0  0
 24 25  1  0  0  0
 25 27  1  0  0  0
 27 28  1  0  0  0
 28 29  2  0  0  0
 28 31  1  0  0  0
 31 32  2  0  0  0
 25 26  2  0  0  0
  5  6  2  0  0  0
 13 14  2  0  0  0
 14  9  1  0  0  0
  6  1  1  0  0  0
 26 21  1  0  0  0
  7  8  1  0  0  0
 19 20  1  0  0  0
 27 30  1  0  0  0
M  END
> <minimizedAffinity>
-7.33753

> <CNNscore>
0.8259996772

> <CNNaffinity>
6.9362220764

> <CNN_VS>
5.7293171883

> <CNNaffinity_variance>
0.0674513429

$$$$
[H]C([H])=C([H])C(=O)N([H])c1c([H])c([H])c([H])c(N([H])c2nc(N([H])c3c([H])c([H])c([H])c(OC([H])([H])[H])c3[H])nc([H])c2OC([H])([H])[H])c1[H]


 32 34  0  0  0  0  0  0  0  0999 V2000
   -0.8769  -53.9341  -21.4273 C   0  0  0  0  0  0  0  0  0  0  0  0
   -1.3562  -55.0177  -22.1226 N   0  0  0  0  0  0  0  0  0  0  0  0
   -1.3212  -55.1171  -23.4493 C   0  0  0  0  0  0  0  0  0  0  0  0
   -0.7778  -54.0830  -24.1668 C   0  0  0  0  0  0  0  0  0  0  0  0
   -0.2662  -52.9359  -23.5077 C   0  0  0  0  0  0  0  0  0  0  0  0
   -0.3613  -52.9614  -22.1782 N   0  0  0  0  0  0  0  0  0  0  0  0
   -0.9774  -53.9205  -20.0126 N   0  0  0  0  0  0  0  0  0  0  0  0
   -1.3913  -54.8183  -19.5965 H   0  0  0  0  0  0  0  0  0  0  0  0
   -0.5933  -51.6661  -17.0334 C   0  0  0  0  0  0  0  0  0  0  0  0
    0.2529  -50.7383  -17.5843 C   0  0  0  0  0  0  0  0  0  0  0  0
    0.6895  -50.8485  -18.8795 C   0  0  0  0  0  0  0  0  0  0  0  0
    0.2551  -51.9192  -19.6166 C   0  0  0  0  0  0  0  0  0  0  0  0
   -0.6046  -52.9037  -19.1283 C   0  0  0  0  0  0  0  0  0  0  0  0
   -1.0082  -52.7410  -17.8276 C   0  0  0  0  0  0  0  0  0  0  0  0
   -0.2205  -51.7583  -14.6265 C   0  0  0  0  0  0  0  0  0  0  0  0
   -1.0592  -51.5966  -15.7347 O   0  0  0  0  0  0  0  0  0  0  0  0
   -0.7111  -54.1251  -25.5516 O   0  0  0  0  0  0  0  0  0  0  0  0
    0.0910  -55.0944  -26.1647 C   0  0  0  0  0  0  0  0  0  0  0  0
    0.3050  -51.9249  -24.2943 N   0  0  0  0  0  0  0  0  0  0  0  0
   -0.3214  -51.2783  -24.8417 H   0  0  0  0  0  0  0  0  0  0  0  0
    1.6859  -51.6879  -24.4238 C   0  0  0  0  0  0  0  0  0  0  0  0
    2.6014  -52.6835  -24.1015 C   0  0  0  0  0  0  0  0  0  0  0  0
    3.9384  -52.4805  -24.2628 C   0  0  0  0  0  0  0  0  0  0  0  0
    4.4038  -51.2905  -24.7463 C   0  0  0  0  0  0  0  0  0  0  0  0
    3.5190  -50.2709  -25.0804 C   0  0  0  0  0  0  0  0  0  0  0  0
    2.1943  -50.4885  -24.9142 C   0  0  0  0  0  0  0  0  0  0  0  0
    4.0625  -49.0687  -25.5616 N   0  0  0  0  0  0  0  0  0  0  0  0
    4.1884  -48.6145  -26.8823 C   0  0  0  0  0  0  0  0  0  0  0  0
    3.7902  -49.3133  -27.8585 O   0  0  0  0  0  0  0  0  0  0  0  0
    4.4474  -48.3655  -24.8283 H   0  0  0  0  0  0  0  0  0  0  0  0
    4.7723  -47.3345  -27.2409 C   0  0  0  0  0  0  0  0  0  0  0  0
    4.4925  -46.2403  -26.5917 C   0  0  0  0  0  0  0  0  0  0  0  0
 15 16  1  0  0  0
 16  9  1  0  0  0
  9 10  2  0  0  0
 10 11  1  0  0  0
 11 12  2  0  0  0
 12 13  1  0  0  0
 13  7  1  0  0  0
  7  1  1  0  0  0
  1  2  2  0  0  0
  2  3  1  0  0  0
  3  4  2  0  0  0
  4 17  1  0  0  0
 17 18  1  0  0  0
  4  5  1  0  0  0
  5 19  1  0  0  0
 19 21  1  0  0  0
 21 22  2  0  0  0
 22 23  1  0  0  0
 23 24  2  0  0  0
 24 25  1  0  0  0
 25 27  1  0  0  0
 27 28  1  0  0  0
 28 29  2  0  0  0
 28 31  1  0  0  0
 31 32  2  0  0  0
 25 26  2  0  0  0
  5  6  2  0  0  0
 13 14  2  0  0  0
 14  9  1  0  0  0
  6  1  1  0  0  0
 26 21  1  0  0  0
  7  8  1  0  0  0
 19 20  1  0  0  0
 27 30  1  0  0  0
M  END
> <minimizedAffinity>
-7.44639

> <CNNscore>
0.7920865417

> <CNNaffinity>
6.8499770164

> <CNN_VS>
5.4257745743

> <CNNaffinity_variance>
0.0617802255

$$$$
[H]C([H])=C([H])C(=O)N([H])c1c([H])c([H])c([H])c(N([H])c2nc(N([H])c3c([H])c([H])c([H])c(OC([H])([H])[H])c3[H])nc([H])c2OC([H])([H])[H])c1[H]


 32 34  0  0  0  0  0  0  0  0999 V2000
   -1.0659  -53.8818  -21.2869 C   0  0  0  0  0  0  0  0  0  0  0  0
   -1.4584  -55.0099  -21.9655 N   0  0  0  0  0  0  0  0  0  0  0  0
   -1.3809  -55.1398  -23.2878 C   0  0  0  0  0  0  0  0  0  0  0  0
   -0.8826  -54.0920  -24.0180 C   0  0  0  0  0  0  0  0  0  0  0  0
   -0.4608  -52.8993  -23.3764 C   0  0  0  0  0  0  0  0  0  0  0  0
   -0.5906  -52.8978  -22.0496 N   0  0  0  0  0  0  0  0  0  0  0  0
   -1.2057  -53.8394  -19.8761 N   0  0  0  0  0  0  0  0  0  0  0  0
   -1.7528  -54.6667  -19.4675 H   0  0  0  0  0  0  0  0  0  0  0  0
    0.6879  -51.0354  -18.2460 C   0  0  0  0  0  0  0  0  0  0  0  0
    0.1031  -51.0844  -17.0067 C   0  0  0  0  0  0  0  0  0  0  0  0
   -0.8802  -51.9947  -16.7154 C   0  0  0  0  0  0  0  0  0  0  0  0
   -1.2676  -52.8623  -17.7030 C   0  0  0  0  0  0  0  0  0  0  0  0
   -0.7218  -52.8750  -18.9870 C   0  0  0  0  0  0  0  0  0  0  0  0
    0.2571  -51.9431  -19.2202 C   0  0  0  0  0  0  0  0  0  0  0  0
    2.8863  -50.0485  -17.8800 C   0  0  0  0  0  0  0  0  0  0  0  0
    1.6811  -50.1370  -18.5852 O   0  0  0  0  0  0  0  0  0  0  0  0
   -0.7755  -54.1641  -25.3990 O   0  0  0  0  0  0  0  0  0  0  0  0
    0.0631  -55.1303  -25.9665 C   0  0  0  0  0  0  0  0  0  0  0  0
    0.0686  -51.8746  -24.1744 N   0  0  0  0  0  0  0  0  0  0  0  0
   -0.5759  -51.1414  -24.5707 H   0  0  0  0  0  0  0  0  0  0  0  0
    1.4286  -51.7320  -24.5055 C   0  0  0  0  0  0  0  0  0  0  0  0
    2.4014  -52.4140  -23.7829 C   0  0  0  0  0  0  0  0  0  0  0  0
    3.7171  -52.3173  -24.1206 C   0  0  0  0  0  0  0  0  0  0  0  0
    4.1045  -51.5457  -25.1795 C   0  0  0  0  0  0  0  0  0  0  0  0
    3.1608  -50.8493  -25.9267 C   0  0  0  0  0  0  0  0  0  0  0  0
    1.8580  -50.9559  -25.5782 C   0  0  0  0  0  0  0  0  0  0  0  0
    3.6256  -50.0657  -26.9955 N   0  0  0  0  0  0  0  0  0  0  0  0
    3.8050  -48.6769  -27.0687 C   0  0  0  0  0  0  0  0  0  0  0  0
    3.5355  -47.9265  -26.0868 O   0  0  0  0  0  0  0  0  0  0  0  0
    3.8966  -50.5816  -27.9123 H   0  0  0  0  0  0  0  0  0  0  0  0
    4.3032  -47.9909  -28.2474 C   0  0  0  0  0  0  0  0  0  0  0  0
    3.6080  -47.0758  -28.8608 C   0  0  0  0  0  0  0  0  0  0  0  0
 15 16  1  0  0  0
 16  9  1  0  0  0
  9 10  2  0  0  0
 10 11  1  0  0  0
 11 12  2  0  0  0
 12 13  1  0  0  0
 13  7  1  0  0  0
  7  1  1  0  0  0
  1  2  2  0  0  0
  2  3  1  0  0  0
  3  4  2  0  0  0
  4 17  1  0  0  0
 17 18  1  0  0  0
  4  5  1  0  0  0
  5 19  1  0  0  0
 19 21  1  0  0  0
 21 22  2  0  0  0
 22 23  1  0  0  0
 23 24  2  0  0  0
 24 25  1  0  0  0
 25 27  1  0  0  0
 27 28  1  0  0  0
 28 29  2  0  0  0
 28 31  1  0  0  0
 31 32  2  0  0  0
 25 26  2  0  0  0
  5  6  2  0  0  0
 13 14  2  0  0  0
 14  9  1  0  0  0
  6  1  1  0  0  0
 26 21  1  0  0  0
  7  8  1  0  0  0
 19 20  1  0  0  0
 27 30  1  0  0  0
M  END
> <minimizedAffinity>
-7.54597

> <CNNscore>
0.7627778053

> <CNNaffinity>
6.7927498817

> <CNN_VS>
5.1813588142

> <CNNaffinity_variance>
0.0843210146

$$$$
[H]C([H])=C([H])C(=O)N([H])c1c([H])c([H])c([H])c(N([H])c2nc(N([H])c3c([H])c([H])c([H])c(OC([H])([H])[H])c3[H])nc([H])c2OC([H])([H])[H])c1[H]


 32 34  0  0  0  0  0  0  0  0999 V2000
   -0.6564  -53.8105  -22.2420 C   0  0  0  0  0  0  0  0  0  0  0  0
   -1.4721  -54.2235  -21.2166 N   0  0  0  0  0  0  0  0  0  0  0  0
   -1.3853  -53.7592  -19.9723 C   0  0  0  0  0  0  0  0  0  0  0  0
   -0.4301  -52.8164  -19.6930 C   0  0  0  0  0  0  0  0  0  0  0  0
    0.4435  -52.3493  -20.7081 C   0  0  0  0  0  0  0  0  0  0  0  0
    0.2520  -52.8937  -21.9099 N   0  0  0  0  0  0  0  0  0  0  0  0
   -0.8213  -54.3814  -23.5298 N   0  0  0  0  0  0  0  0  0  0  0  0
   -1.2276  -55.3741  -23.5175 H   0  0  0  0  0  0  0  0  0  0  0  0
    0.4236  -53.7139  -27.0097 C   0  0  0  0  0  0  0  0  0  0  0  0
   -0.0301  -52.4273  -27.1481 C   0  0  0  0  0  0  0  0  0  0  0  0
   -0.7250  -51.8022  -26.1447 C   0  0  0  0  0  0  0  0  0  0  0  0
   -0.9569  -52.5020  -24.9893 C   0  0  0  0  0  0  0  0  0  0  0  0
   -0.5286  -53.8121  -24.7727 C   0  0  0  0  0  0  0  0  0  0  0  0
    0.1611  -54.3855  -25.8104 C   0  0  0  0  0  0  0  0  0  0  0  0
    2.1796  -53.7912  -28.6983 C   0  0  0  0  0  0  0  0  0  0  0  0
    1.1272  -54.3838  -27.9920 O   0  0  0  0  0  0  0  0  0  0  0  0
   -0.2881  -52.2922  -18.4166 O   0  0  0  0  0  0  0  0  0  0  0  0
   -1.1496  -52.7272  -17.4031 C   0  0  0  0  0  0  0  0  0  0  0  0
    1.3796  -51.3618  -20.3679 N   0  0  0  0  0  0  0  0  0  0  0  0
    1.2481  -50.8069  -19.4819 H   0  0  0  0  0  0  0  0  0  0  0  0
    2.5168  -51.0331  -21.1283 C   0  0  0  0  0  0  0  0  0  0  0  0
    3.7580  -51.5671  -20.8001 C   0  0  0  0  0  0  0  0  0  0  0  0
    4.8579  -51.2900  -21.5538 C   0  0  0  0  0  0  0  0  0  0  0  0
    4.7594  -50.4799  -22.6495 C   0  0  0  0  0  0  0  0  0  0  0  0
    3.5350  -49.9277  -23.0101 C   0  0  0  0  0  0  0  0  0  0  0  0
    2.4522  -50.2127  -22.2510 C   0  0  0  0  0  0  0  0  0  0  0  0
    3.5037  -49.0950  -24.1405 N   0  0  0  0  0  0  0  0  0  0  0  0
    3.2397  -49.4204  -25.4786 C   0  0  0  0  0  0  0  0  0  0  0  0
    2.9844  -50.6090  -25.8281 O   0  0  0  0  0  0  0  0  0  0  0  0
    3.7067  -48.0386  -23.9886 H   0  0  0  0  0  0  0  0  0  0  0  0
    3.2354  -48.4487  -26.5574 C   0  0  0  0  0  0  0  0  0  0  0  0
    4.0301  -48.5517  -27.5844 C   0  0  0  0  0  0  0  0  0  0  0  0
 15 16  1  0  0  0
 16  9  1  0  0  0
  9 10  2  0  0  0
 10 11  1  0  0  0
 11 12  2  0  0  0
 12 13  1  0  0  0
 13  7  1  0  0  0
  7  1  1  0  0  0
  1  2  2  0  0  0
  2  3  1  0  0  0
  3  4  2  0  0  0
  4 17  1  0  0  0
 17 18  1  0  0  0
  4  5  1  0  0  0
  5 19  1  0  0  0
 19 21  1  0  0  0
 21 22  2  0  0  0
 22 23  1  0  0  0
 23 24  2  0  0  0
 24 25  1  0  0  0
 25 27  1  0  0  0
 27 28  1  0  0  0
 28 29  2  0  0  0
 28 31  1  0  0  0
 31 32  2  0  0  0
 25 26  2  0  0  0
  5  6  2  0  0  0
 13 14  2  0  0  0
 14  9  1  0  0  0
  6  1  1  0  0  0
 26 21  1  0  0  0
  7  8  1  0  0  0
 19 20  1  0  0  0
 27 30  1  0  0  0
M  END
> <minimizedAffinity>
-7.26164

> <CNNscore>
0.6816373467

> <CNNaffinity>
6.9029793739

> <CNN_VS>
4.7053284645

> <CNNaffinity_variance>
0.0748920813

$$$$
[H]C([H])=C([H])C(=O)N([H])c1c([H])c([H])c([H])c(N([H])c2nc(N([H])c3c([H])c([H])c([H])c(OC([H])([H])[H])c3[H])nc([H])c2OC([H])([H])[H])c1[H]


 32 34  0  0  0  0  0  0  0  0999 V2000
   -0.6159  -53.4068  -19.9652 C   0  0  0  0  0  0  0  0  0  0  0  0
   -1.3277  -54.2037  -20.8287 N   0  0  0  0  0  0  0  0  0  0  0  0
   -1.0930  -54.2672  -22.1372 C   0  0  0  0  0  0  0  0  0  0  0  0
   -0.0859  -53.4962  -22.6574 C   0  0  0  0  0  0  0  0  0  0  0  0
    0.6854  -52.6517  -21.8184 C   0  0  0  0  0  0  0  0  0  0  0  0
    0.3492  -52.6809  -20.5286 N   0  0  0  0  0  0  0  0  0  0  0  0
   -0.9579  -53.4004  -18.5888 N   0  0  0  0  0  0  0  0  0  0  0  0
   -1.2627  -54.3570  -18.2111 H   0  0  0  0  0  0  0  0  0  0  0  0
   -0.0923  -50.2708  -16.7015 C   0  0  0  0  0  0  0  0  0  0  0  0
   -1.0917  -50.3123  -15.7635 C   0  0  0  0  0  0  0  0  0  0  0  0
   -2.0203  -51.3213  -15.7520 C   0  0  0  0  0  0  0  0  0  0  0  0
   -1.9238  -52.2962  -16.7104 C   0  0  0  0  0  0  0  0  0  0  0  0
   -0.9377  -52.3238  -17.6971 C   0  0  0  0  0  0  0  0  0  0  0  0
   -0.0370  -51.2901  -17.6588 C   0  0  0  0  0  0  0  0  0  0  0  0
    1.7676  -49.1559  -17.8142 C   0  0  0  0  0  0  0  0  0  0  0  0
    0.8645  -49.2756  -16.7523 O   0  0  0  0  0  0  0  0  0  0  0  0
    0.2094  -53.5169  -24.0125 O   0  0  0  0  0  0  0  0  0  0  0  0
   -0.6699  -52.9000  -24.9097 C   0  0  0  0  0  0  0  0  0  0  0  0
    1.7218  -51.9104  -22.4044 N   0  0  0  0  0  0  0  0  0  0  0  0
    2.4647  -52.4091  -22.9607 H   0  0  0  0  0  0  0  0  0  0  0  0
    1.8649  -50.5137  -22.3134 C   0  0  0  0  0  0  0  0  0  0  0  0
    1.0385  -49.7777  -21.4715 C   0  0  0  0  0  0  0  0  0  0  0  0
    1.1952  -48.4310  -21.3429 C   0  0  0  0  0  0  0  0  0  0  0  0
    2.1713  -47.7785  -22.0416 C   0  0  0  0  0  0  0  0  0  0  0  0
    3.0178  -48.4804  -22.8929 C   0  0  0  0  0  0  0  0  0  0  0  0
    2.8489  -49.8175  -23.0095 C   0  0  0  0  0  0  0  0  0  0  0  0
    3.9929  -47.7489  -23.5903 N   0  0  0  0  0  0  0  0  0  0  0  0
    4.0527  -47.4175  -24.9515 C   0  0  0  0  0  0  0  0  0  0  0  0
    3.1498  -47.7846  -25.7577 O   0  0  0  0  0  0  0  0  0  0  0  0
    4.8352  -47.3682  -23.0193 H   0  0  0  0  0  0  0  0  0  0  0  0
    5.1280  -46.6432  -25.5447 C   0  0  0  0  0  0  0  0  0  0  0  0
    5.8887  -47.1240  -26.4866 C   0  0  0  0  0  0  0  0  0  0  0  0
 15 16  1  0  0  0
 16  9  1  0  0  0
  9 10  2  0  0  0
 10 11  1  0  0  0
 11 12  2  0  0  0
 12 13  1  0  0  0
 13  7  1  0  0  0
  7  1  1  0  0  0
  1  2  2  0  0  0
  2  3  1  0  0  0
  3  4  2  0  0  0
  4 17  1  0  0  0
 17 18  1  0  0  0
  4  5  1  0  0  0
  5 19  1  0  0  0
 19 21  1  0  0  0
 21 22  2  0  0  0
 22 23  1  0  0  0
 23 24  2  0  0  0
 24 25  1  0  0  0
 25 27  1  0  0  0
 27 28  1  0  0  0
 28 29  2  0  0  0
 28 31  1  0  0  0
 31 32  2  0  0  0
 25 26  2  0  0  0
  5  6  2  0  0  0
 13 14  2  0  0  0
 14  9  1  0  0  0
  6  1  1  0  0  0
 26 21  1  0  0  0
  7  8  1  0  0  0
 19 20  1  0  0  0
 27 30  1  0  0  0
M  END
> <minimizedAffinity>
-6.67396

> <CNNscore>
0.6722190380

> <CNNaffinity>
6.7065925598

> <CNN_VS>
4.5082993507

> <CNNaffinity_variance>
0.2567172050

$$$$
[H]C([H])=C([H])C(=O)N([H])c1c([H])c([H])c([H])c(N([H])c2nc(N([H])c3c([H])c([H])c([H])c(OC([H])([H])[H])c3[H])nc([H])c2OC([H])([H])[H])c1[H]


 32 34  0  0  0  0  0  0  0  0999 V2000
   -0.6680  -53.9443  -22.1775 C   0  0  0  0  0  0  0  0  0  0  0  0
   -1.6313  -54.1549  -21.2210 N   0  0  0  0  0  0  0  0  0  0  0  0
   -1.5583  -53.6740  -19.9821 C   0  0  0  0  0  0  0  0  0  0  0  0
   -0.4626  -52.9263  -19.6362 C   0  0  0  0  0  0  0  0  0  0  0  0
    0.5671  -52.6734  -20.5784 C   0  0  0  0  0  0  0  0  0  0  0  0
    0.3724  -53.2111  -21.7827 N   0  0  0  0  0  0  0  0  0  0  0  0
   -0.8347  -54.5160  -23.4647 N   0  0  0  0  0  0  0  0  0  0  0  0
   -1.2388  -55.5095  -23.4512 H   0  0  0  0  0  0  0  0  0  0  0  0
    0.3802  -53.8560  -26.9567 C   0  0  0  0  0  0  0  0  0  0  0  0
   -0.0499  -52.5602  -27.0835 C   0  0  0  0  0  0  0  0  0  0  0  0
   -0.7200  -51.9265  -26.0687 C   0  0  0  0  0  0  0  0  0  0  0  0
   -0.9514  -52.6272  -24.9138 C   0  0  0  0  0  0  0  0  0  0  0  0
   -0.5462  -53.9465  -24.7086 C   0  0  0  0  0  0  0  0  0  0  0  0
    0.1193  -54.5282  -25.7573 C   0  0  0  0  0  0  0  0  0  0  0  0
    1.9752  -53.9043  -28.7991 C   0  0  0  0  0  0  0  0  0  0  0  0
    1.0585  -54.5347  -27.9507 O   0  0  0  0  0  0  0  0  0  0  0  0
   -0.3266  -52.3963  -18.3616 O   0  0  0  0  0  0  0  0  0  0  0  0
   -1.2408  -52.7682  -17.3693 C   0  0  0  0  0  0  0  0  0  0  0  0
    1.6478  -51.8761  -20.1742 N   0  0  0  0  0  0  0  0  0  0  0  0
    2.3632  -52.2717  -19.5096 H   0  0  0  0  0  0  0  0  0  0  0  0
    1.8707  -50.5503  -20.5893 C   0  0  0  0  0  0  0  0  0  0  0  0
    1.8012  -49.5074  -19.6722 C   0  0  0  0  0  0  0  0  0  0  0  0
    2.0566  -48.2252  -20.0534 C   0  0  0  0  0  0  0  0  0  0  0  0
    2.3872  -47.9414  -21.3483 C   0  0  0  0  0  0  0  0  0  0  0  0
    2.4676  -48.9577  -22.2942 C   0  0  0  0  0  0  0  0  0  0  0  0
    2.2108  -50.2258  -21.8995 C   0  0  0  0  0  0  0  0  0  0  0  0
    2.8015  -48.5978  -23.6100 N   0  0  0  0  0  0  0  0  0  0  0  0
    4.0036  -48.7871  -24.3066 C   0  0  0  0  0  0  0  0  0  0  0  0
    4.9971  -49.3499  -23.7625 O   0  0  0  0  0  0  0  0  0  0  0  0
    2.0373  -48.1011  -24.2013 H   0  0  0  0  0  0  0  0  0  0  0  0
    4.2128  -48.3654  -25.6801 C   0  0  0  0  0  0  0  0  0  0  0  0
    3.6569  -48.9804  -26.6849 C   0  0  0  0  0  0  0  0  0  0  0  0
 15 16  1  0  0  0
 16  9  1  0  0  0
  9 10  2  0  0  0
 10 11  1  0  0  0
 11 12  2  0  0  0
 12 13  1  0  0  0
 13  7  1  0  0  0
  7  1  1  0  0  0
  1  2  2  0  0  0
  2  3  1  0  0  0
  3  4  2  0  0  0
  4 17  1  0  0  0
 17 18  1  0  0  0
  4  5  1  0  0  0
  5 19  1  0  0  0
 19 21  1  0  0  0
 21 22  2  0  0  0
 22 23  1  0  0  0
 23 24  2  0  0  0
 24 25  1  0  0  0
 25 27  1  0  0  0
 27 28  1  0  0  0
 28 29  2  0  0  0
 28 31  1  0  0  0
 31 32  2  0  0  0
 25 26  2  0  0  0
  5  6  2  0  0  0
 13 14  2  0  0  0
 14  9  1  0  0  0
  6  1  1  0  0  0
 26 21  1  0  0  0
  7  8  1  0  0  0
 19 20  1  0  0  0
 27 30  1  0  0  0
M  END
> <minimizedAffinity>
-7.15128

> <CNNscore>
0.6614972353

> <CNNaffinity>
6.9589323997

> <CNN_VS>
4.6033143997

> <CNNaffinity_variance>
0.1197377667

$$$$
[H]C([H])=C([H])C(=O)N([H])c1c([H])c([H])c([H])c(N([H])c2nc(N([H])c3c([H])c([H])c([H])c(OC([H])([H])[H])c3[H])nc([H])c2OC([H])([H])[H])c1[H]


 32 34  0  0  0  0  0  0  0  0999 V2000
   -0.6806  -53.9273  -22.3434 C   0  0  0  0  0  0  0  0  0  0  0  0
   -1.7030  -54.1498  -21.4532 N   0  0  0  0  0  0  0  0  0  0  0  0
   -1.6552  -53.7953  -20.1713 C   0  0  0  0  0  0  0  0  0  0  0  0
   -0.5247  -53.1734  -19.7082 C   0  0  0  0  0  0  0  0  0  0  0  0
    0.5663  -52.9156  -20.5772 C   0  0  0  0  0  0  0  0  0  0  0  0
    0.3913  -53.3199  -21.8355 N   0  0  0  0  0  0  0  0  0  0  0  0
   -0.8262  -54.3598  -23.6863 N   0  0  0  0  0  0  0  0  0  0  0  0
   -1.3144  -55.3096  -23.7876 H   0  0  0  0  0  0  0  0  0  0  0  0
    0.9697  -53.2852  -26.8049 C   0  0  0  0  0  0  0  0  0  0  0  0
    0.2033  -52.1921  -27.1182 C   0  0  0  0  0  0  0  0  0  0  0  0
   -0.8667  -51.8232  -26.3439 C   0  0  0  0  0  0  0  0  0  0  0  0
   -1.1538  -52.5814  -25.2390 C   0  0  0  0  0  0  0  0  0  0  0  0
   -0.4231  -53.7061  -24.8546 C   0  0  0  0  0  0  0  0  0  0  0  0
    0.6352  -54.0267  -25.6661 C   0  0  0  0  0  0  0  0  0  0  0  0
    1.9269  -54.1827  -28.8589 C   0  0  0  0  0  0  0  0  0  0  0  0
    2.0558  -53.6946  -27.5540 O   0  0  0  0  0  0  0  0  0  0  0  0
   -0.4122  -52.7785  -18.3833 O   0  0  0  0  0  0  0  0  0  0  0  0
   -1.5275  -52.8857  -17.5447 C   0  0  0  0  0  0  0  0  0  0  0  0
    1.6827  -52.2486  -20.0520 N   0  0  0  0  0  0  0  0  0  0  0  0
    2.4761  -52.8090  -19.6439 H   0  0  0  0  0  0  0  0  0  0  0  0
    1.8449  -50.8514  -20.0190 C   0  0  0  0  0  0  0  0  0  0  0  0
    1.4027  -50.0689  -21.0799 C   0  0  0  0  0  0  0  0  0  0  0  0
    1.5158  -48.7123  -21.0407 C   0  0  0  0  0  0  0  0  0  0  0  0
    2.0675  -48.0954  -19.9537 C   0  0  0  0  0  0  0  0  0  0  0  0
    2.5205  -48.8440  -18.8728 C   0  0  0  0  0  0  0  0  0  0  0  0
    2.4010  -50.1904  -18.9274 C   0  0  0  0  0  0  0  0  0  0  0  0
    3.0871  -48.1497  -17.7916 N   0  0  0  0  0  0  0  0  0  0  0  0
    2.5669  -47.9216  -16.5095 C   0  0  0  0  0  0  0  0  0  0  0  0
    1.4276  -48.3576  -16.1752 O   0  0  0  0  0  0  0  0  0  0  0  0
    4.0729  -47.7169  -17.9371 H   0  0  0  0  0  0  0  0  0  0  0  0
    3.2696  -47.1832  -15.4756 C   0  0  0  0  0  0  0  0  0  0  0  0
    4.2604  -47.7015  -14.8074 C   0  0  0  0  0  0  0  0  0  0  0  0
 15 16  1  0  0  0
 16  9  1  0  0  0
  9 10  2  0  0  0
 10 11  1  0  0  0
 11 12  2  0  0  0
 12 13  1  0  0  0
 13  7  1  0  0  0
  7  1  1  0  0  0
  1  2  2  0  0  0
  2  3  1  0  0  0
  3  4  2  0  0  0
  4 17  1  0  0  0
 17 18  1  0  0  0
  4  5  1  0  0  0
  5 19  1  0  0  0
 19 21  1  0  0  0
 21 22  2  0  0  0
 22 23  1  0  0  0
 23 24  2  0  0  0
 24 25  1  0  0  0
 25 27  1  0  0  0
 27 28  1  0  0  0
 28 29  2  0  0  0
 28 31  1  0  0  0
 31 32  2  0  0  0
 25 26  2  0  0  0
  5  6  2  0  0  0
 13 14  2  0  0  0
 14  9  1  0  0  0
  6  1  1  0  0  0
 26 21  1  0  0  0
  7  8  1  0  0  0
 19 20  1  0  0  0
 27 30  1  0  0  0
M  END
> <minimizedAffinity>
-6.56820

> <CNNscore>
0.6176474094

> <CNNaffinity>
6.6901078224

> <CNN_VS>
4.1321277618

> <CNNaffinity_variance>
0.1763381213

$$$$
[H]C([H])=C([H])C(=O)N([H])c1c([H])c([H])c([H])c(N([H])c2nc(N([H])c3c([H])c([H])c([H])c(OC([H])([H])[H])c3[H])nc([H])c2OC([H])([H])[H])c1[H]


 32 34  0  0  0  0  0  0  0  0999 V2000
   -0.2093  -53.4368  -22.9891 C   0  0  0  0  0  0  0  0  0  0  0  0
   -0.2706  -54.3551  -21.9691 N   0  0  0  0  0  0  0  0  0  0  0  0
   -0.2314  -54.0288  -20.6794 C   0  0  0  0  0  0  0  0  0  0  0  0
   -0.1236  -52.7038  -20.3448 C   0  0  0  0  0  0  0  0  0  0  0  0
   -0.0554  -51.7069  -21.3516 C   0  0  0  0  0  0  0  0  0  0  0  0
   -0.1049  -52.1658  -22.6023 N   0  0  0  0  0  0  0  0  0  0  0  0
   -0.2424  -53.8915  -24.3321 N   0  0  0  0  0  0  0  0  0  0  0  0
   -0.9727  -54.6554  -24.5156 H   0  0  0  0  0  0  0  0  0  0  0  0
    1.0316  -52.9245  -27.7303 C   0  0  0  0  0  0  0  0  0  0  0  0
    2.3296  -52.6410  -27.3911 C   0  0  0  0  0  0  0  0  0  0  0  0
    2.7718  -52.7534  -26.0980 C   0  0  0  0  0  0  0  0  0  0  0  0
    1.8757  -53.1598  -25.1440 C   0  0  0  0  0  0  0  0  0  0  0  0
    0.5406  -53.4659  -25.4094 C   0  0  0  0  0  0  0  0  0  0  0  0
    0.1555  -53.3358  -26.7194 C   0  0  0  0  0  0  0  0  0  0  0  0
   -0.8067  -52.5692  -29.2907 C   0  0  0  0  0  0  0  0  0  0  0  0
    0.5413  -52.8260  -29.0181 O   0  0  0  0  0  0  0  0  0  0  0  0
   -0.0782  -52.2978  -19.0192 O   0  0  0  0  0  0  0  0  0  0  0  0
   -1.0149  -52.8150  -18.1171 C   0  0  0  0  0  0  0  0  0  0  0  0
    0.0231  -50.3665  -20.9464 N   0  0  0  0  0  0  0  0  0  0  0  0
   -0.8266  -49.8994  -20.5342 H   0  0  0  0  0  0  0  0  0  0  0  0
    1.1726  -49.5610  -21.0440 C   0  0  0  0  0  0  0  0  0  0  0  0
    1.4957  -48.6735  -20.0235 C   0  0  0  0  0  0  0  0  0  0  0  0
    2.6280  -47.9195  -20.0872 C   0  0  0  0  0  0  0  0  0  0  0  0
    3.4688  -48.0235  -21.1590 C   0  0  0  0  0  0  0  0  0  0  0  0
    3.1800  -48.9006  -22.1989 C   0  0  0  0  0  0  0  0  0  0  0  0
    2.0514  -49.6423  -22.1205 C   0  0  0  0  0  0  0  0  0  0  0  0
    4.0793  -48.9519  -23.2763 N   0  0  0  0  0  0  0  0  0  0  0  0
    4.0864  -48.2094  -24.4659 C   0  0  0  0  0  0  0  0  0  0  0  0
    3.1961  -47.3435  -24.7056 O   0  0  0  0  0  0  0  0  0  0  0  0
    4.9023  -49.6578  -23.2071 H   0  0  0  0  0  0  0  0  0  0  0  0
    5.0897  -48.3625  -25.5041 C   0  0  0  0  0  0  0  0  0  0  0  0
    4.7727  -48.4553  -26.7642 C   0  0  0  0  0  0  0  0  0  0  0  0
 15 16  1  0  0  0
 16  9  1  0  0  0
  9 10  2  0  0  0
 10 11  1  0  0  0
 11 12  2  0  0  0
 12 13  1  0  0  0
 13  7  1  0  0  0
  7  1  1  0  0  0
  1  2  2  0  0  0
  2  3  1  0  0  0
  3  4  2  0  0  0
  4 17  1  0  0  0
 17 18  1  0  0  0
  4  5  1  0  0  0
  5 19  1  0  0  0
 19 21  1  0  0  0
 21 22  2  0  0  0
 22 23  1  0  0  0
 23 24  2  0  0  0
 24 25  1  0  0  0
 25 27  1  0  0  0
 27 28  1  0  0  0
 28 29  2  0  0  0
 28 31  1  0  0  0
 31 32  2  0  0  0
 25 26  2  0  0  0
  5  6  2  0  0  0
 13 14  2  0  0  0
 14  9  1  0  0  0
  6  1  1  0  0  0
 26 21  1  0  0  0
  7  8  1  0  0  0
 19 20  1  0  0  0
 27 30  1  0  0  0
M  END
> <minimizedAffinity>
-6.87246

> <CNNscore>
0.4009178877

> <CNNaffinity>
6.5938234329

> <CNN_VS>
2.6435818672

> <CNNaffinity_variance>
0.0782382190

$$$$
[H]C([H])=C([H])C(=O)N1C([H])([H])C([H])([H])C([H])(N([H])c2c(OC([H])([H])[H])c([H])c3nc([H])nc(N([H])c4c([H])c([H])c(F)c(Cl)c4[H])c3c2[H])C([H])([H])C1([H])[H]


 34 37  0  0  0  0  0  0  0  0999 V2000
   -0.0267  -51.9728  -19.7110 C   0  0  0  0  0  0  0  0  0  0  0  0
   -0.8104  -53.0540  -20.0634 C   0  0  0  0  0  0  0  0  0  0  0  0
   -0.8233  -53.5689  -21.3251 C   0  0  0  0  0  0  0  0  0  0  0  0
   -1.6066  -54.6487  -21.6261 N   0  0  0  0  0  0  0  0  0  0  0  0
   -1.5879  -55.1398  -22.8755 C   0  0  0  0  0  0  0  0  0  0  0  0
   -0.8424  -54.6288  -23.8470 N   0  0  0  0  0  0  0  0  0  0  0  0
   -0.0501  -53.5492  -23.5737 C   0  0  0  0  0  0  0  0  0  0  0  0
   -0.0275  -52.9972  -22.3016 C   0  0  0  0  0  0  0  0  0  0  0  0
    0.7704  -51.9066  -21.9716 C   0  0  0  0  0  0  0  0  0  0  0  0
    0.7764  -51.3966  -20.6969 C   0  0  0  0  0  0  0  0  0  0  0  0
   -0.2118  -51.5687  -17.1962 C   0  0  0  0  0  0  0  0  0  0  0  0
    0.0183  -51.4484  -18.5095 O   0  0  0  0  0  0  0  0  0  0  0  0
    0.7785  -53.0041  -24.5778 N   0  0  0  0  0  0  0  0  0  0  0  0
    1.6980  -52.5421  -24.3049 H   0  0  0  0  0  0  0  0  0  0  0  0
    0.5028  -53.0031  -25.9912 C   0  0  0  0  0  0  0  0  0  0  0  0
    1.4170  -53.1692  -26.9832 C   0  0  0  0  0  0  0  0  0  0  0  0
    1.0420  -53.1132  -28.3408 C   0  0  0  0  0  0  0  0  0  0  0  0
   -0.2649  -52.8890  -28.6953 C   0  0  0  0  0  0  0  0  0  0  0  0
   -0.6670  -52.8236  -29.9956 F   0  0  0  0  0  0  0  0  0  0  0  0
   -1.2063  -52.7190  -27.7086 C   0  0  0  0  0  0  0  0  0  0  0  0
   -2.8960  -52.4289  -28.1474 Cl  0  0  0  0  0  0  0  0  0  0  0  0
   -0.8299  -52.7756  -26.3956 C   0  0  0  0  0  0  0  0  0  0  0  0
    1.6101  -50.3024  -20.3805 N   0  0  0  0  0  0  0  0  0  0  0  0
    1.6130  -49.9426  -19.4097 H   0  0  0  0  0  0  0  0  0  0  0  0
    2.4607  -49.6550  -21.3555 C   0  0  0  0  0  0  0  0  0  0  0  0
    3.8456  -49.4093  -20.7748 C   0  0  0  0  0  0  0  0  0  0  0  0
    4.6911  -48.9399  -21.9766 C   0  0  0  0  0  0  0  0  0  0  0  0
    4.1090  -47.6926  -22.4567 N   0  0  0  0  0  0  0  0  0  0  0  0
    2.8666  -47.2614  -21.8035 C   0  0  0  0  0  0  0  0  0  0  0  0
    1.8401  -48.3326  -21.7345 C   0  0  0  0  0  0  0  0  0  0  0  0
    4.6658  -46.9341  -23.4658 C   0  0  0  0  0  0  0  0  0  0  0  0
    4.0066  -45.8217  -23.7268 O   0  0  0  0  0  0  0  0  0  0  0  0
    5.8257  -47.1215  -24.2888 C   0  0  0  0  0  0  0  0  0  0  0  0
    5.9317  -47.6116  -25.4902 C   0  0  0  0  0  0  0  0  0  0  0  0
 11 12  1  0  0  0
 12  1  1  0  0  0
  1  2  2  0  0  0
  2  3  1  0  0  0
  3  4  2  0  0  0
  4  5  1  0  0  0
  5  6  2  0  0  0
  6  7  1  0  0  0
  7 13  1  0  0  0
 13 15  1  0  0  0
 15 16  2  0  0  0
 16 17  1  0  0  0
 17 18  2  0  0  0
 18 19  1  0  0  0
 18 20  1  0  0  0
 20 21  1  0  0  0
 20 22  2  0  0  0
  7  8  2  0  0  0
  8  9  1  0  0  0
  9 10  2  0  0  0
 10 23  1  0  0  0
 23 25  1  0  0  0
 25 26  1  0  0  0
 26 27  1  0  0  0
 27 28  1  0  0  0
 28 29  1  0  0  0
 29 30  1  0  0  0
 28 31  1  0  0  0
 31 32  2  0  0  0
 31 33  1  0  0  0
 33 34  2  0  0  0
 10  1  1  0  0  0
 30 25  1  0  0  0
  8  3  1  0  0  0
 22 15  1  0  0  0
 13 14  1  0  0  0
 23 24  1  0  0  0
M  END
> <minimizedAffinity>
-8.55583

> <CNNscore>
0.9283405542

> <CNNaffinity>
7.9803323746

> <CNN_VS>
7.4084663391

> <CNNaffinity_variance>
0.1652210653

$$$$
[H]C([H])=C([H])C(=O)N1C([H])([H])C([H])([H])C([H])(N([H])c2c(OC([H])([H])[H])c([H])c3nc([H])nc(N([H])c4c([H])c([H])c(F)c(Cl)c4[H])c3c2[H])C([H])([H])C1([H])[H]


 34 37  0  0  0  0  0  0  0  0999 V2000
   -0.4331  -52.6717  -19.4567 C   0  0  0  0  0  0  0  0  0  0  0  0
   -1.0969  -53.7391  -20.0290 C   0  0  0  0  0  0  0  0  0  0  0  0
   -1.0670  -53.9870  -21.3687 C   0  0  0  0  0  0  0  0  0  0  0  0
   -1.7300  -55.0634  -21.8903 N   0  0  0  0  0  0  0  0  0  0  0  0
   -1.6712  -55.2871  -23.2128 C   0  0  0  0  0  0  0  0  0  0  0  0
   -0.9972  -54.5118  -24.0526 N   0  0  0  0  0  0  0  0  0  0  0  0
   -0.3255  -53.4292  -23.5580 C   0  0  0  0  0  0  0  0  0  0  0  0
   -0.3498  -53.1461  -22.2005 C   0  0  0  0  0  0  0  0  0  0  0  0
    0.3269  -52.0635  -21.6482 C   0  0  0  0  0  0  0  0  0  0  0  0
    0.2908  -51.8237  -20.2968 C   0  0  0  0  0  0  0  0  0  0  0  0
   -1.1032  -52.3209  -17.0175 C   0  0  0  0  0  0  0  0  0  0  0  0
   -0.4329  -52.3989  -18.1736 O   0  0  0  0  0  0  0  0  0  0  0  0
    0.4269  -52.6049  -24.4219 N   0  0  0  0  0  0  0  0  0  0  0  0
    1.0459  -51.8421  -24.0113 H   0  0  0  0  0  0  0  0  0  0  0  0
    0.4480  -52.6855  -25.8595 C   0  0  0  0  0  0  0  0  0  0  0  0
    1.5575  -52.7947  -26.6370 C   0  0  0  0  0  0  0  0  0  0  0  0
    1.4652  -52.8286  -28.0432 C   0  0  0  0  0  0  0  0  0  0  0  0
    0.2437  -52.7527  -28.6646 C   0  0  0  0  0  0  0  0  0  0  0  0
    0.1124  -52.7780  -30.0206 F   0  0  0  0  0  0  0  0  0  0  0  0
   -0.8915  -52.6427  -27.8979 C   0  0  0  0  0  0  0  0  0  0  0  0
   -2.4748  -52.5437  -28.6822 Cl  0  0  0  0  0  0  0  0  0  0  0  0
   -0.7887  -52.6109  -26.5351 C   0  0  0  0  0  0  0  0  0  0  0  0
    1.0025  -50.7309  -19.7566 N   0  0  0  0  0  0  0  0  0  0  0  0
    1.3477  -49.9952  -20.3979 H   0  0  0  0  0  0  0  0  0  0  0  0
    1.2771  -50.5938  -18.3427 C   0  0  0  0  0  0  0  0  0  0  0  0
    1.0918  -49.1493  -17.9015 C   0  0  0  0  0  0  0  0  0  0  0  0
    1.1864  -49.1997  -16.3627 C   0  0  0  0  0  0  0  0  0  0  0  0
    2.5242  -49.6703  -16.0248 N   0  0  0  0  0  0  0  0  0  0  0  0
    3.3757  -50.0722  -17.1516 C   0  0  0  0  0  0  0  0  0  0  0  0
    2.7042  -51.0117  -18.0857 C   0  0  0  0  0  0  0  0  0  0  0  0
    2.9973  -49.7475  -14.7311 C   0  0  0  0  0  0  0  0  0  0  0  0
    4.2461  -50.1628  -14.6405 O   0  0  0  0  0  0  0  0  0  0  0  0
    2.3925  -49.4634  -13.4617 C   0  0  0  0  0  0  0  0  0  0  0  0
    1.7407  -48.4106  -13.0597 C   0  0  0  0  0  0  0  0  0  0  0  0
 11 12  1  0  0  0
 12  1  1  0  0  0
  1  2  2  0  0  0
  2  3  1  0  0  0
  3  4  2  0  0  0
  4  5  1  0  0  0
  5  6  2  0  0  0
  6  7  1  0  0  0
  7 13  1  0  0  0
 13 15  1  0  0  0
 15 16  2  0  0  0
 16 17  1  0  0  0
 17 18  2  0  0  0
 18 19  1  0  0  0
 18 20  1  0  0  0
 20 21  1  0  0  0
 20 22  2  0  0  0
  7  8  2  0  0  0
  8  9  1  0  0  0
  9 10  2  0  0  0
 10 23  1  0  0  0
 23 25  1  0  0  0
 25 26  1  0  0  0
 26 27  1  0  0  0
 27 28  1  0  0  0
 28 29  1  0  0  0
 29 30  1  0  0  0
 28 31  1  0  0  0
 31 32  2  0  0  0
 31 33  1  0  0  0
 33 34  2  0  0  0
 10  1  1  0  0  0
 30 25  1  0  0  0
  8  3  1  0  0  0
 22 15  1  0  0  0
 13 14  1  0  0  0
 23 24  1  0  0  0
M  END
> <minimizedAffinity>
-8.48003

> <CNNscore>
0.9153299332

> <CNNaffinity>
7.4508008957

> <CNN_VS>
6.8199410439

> <CNNaffinity_variance>
0.0427299142

$$$$
[H]C([H])=C([H])C(=O)N1C([H])([H])C([H])([H])C([H])(N([H])c2c(OC([H])([H])[H])c([H])c3nc([H])nc(N([H])c4c([H])c([H])c(F)c(Cl)c4[H])c3c2[H])C([H])([H])C1([H])[H]


 34 37  0  0  0  0  0  0  0  0999 V2000
   -0.1954  -51.9648  -19.4542 C   0  0  0  0  0  0  0  0  0  0  0  0
   -0.7273  -53.1692  -19.8711 C   0  0  0  0  0  0  0  0  0  0  0  0
   -0.7436  -53.5487  -21.1799 C   0  0  0  0  0  0  0  0  0  0  0  0
   -1.2702  -54.7566  -21.5458 N   0  0  0  0  0  0  0  0  0  0  0  0
   -1.2606  -55.1063  -22.8420 C   0  0  0  0  0  0  0  0  0  0  0  0
   -0.7625  -54.3351  -23.8000 N   0  0  0  0  0  0  0  0  0  0  0  0
   -0.2300  -53.1225  -23.4622 C   0  0  0  0  0  0  0  0  0  0  0  0
   -0.2122  -52.7059  -22.1395 C   0  0  0  0  0  0  0  0  0  0  0  0
    0.3289  -51.4867  -21.7447 C   0  0  0  0  0  0  0  0  0  0  0  0
    0.3410  -51.1149  -20.4231 C   0  0  0  0  0  0  0  0  0  0  0  0
   -0.7339  -51.5097  -16.9996 C   0  0  0  0  0  0  0  0  0  0  0  0
   -0.1565  -51.5625  -18.2062 O   0  0  0  0  0  0  0  0  0  0  0  0
    0.3368  -52.2944  -24.4547 N   0  0  0  0  0  0  0  0  0  0  0  0
    0.8818  -51.4269  -24.1650 H   0  0  0  0  0  0  0  0  0  0  0  0
    0.2529  -52.5031  -25.8771 C   0  0  0  0  0  0  0  0  0  0  0  0
    1.3019  -52.7011  -26.7183 C   0  0  0  0  0  0  0  0  0  0  0  0
    1.1078  -52.8584  -28.1057 C   0  0  0  0  0  0  0  0  0  0  0  0
   -0.1545  -52.8161  -28.6431 C   0  0  0  0  0  0  0  0  0  0  0  0
   -0.3837  -52.9597  -29.9786 F   0  0  0  0  0  0  0  0  0  0  0  0
   -1.2299  -52.6178  -27.8108 C   0  0  0  0  0  0  0  0  0  0  0  0
   -2.8645  -52.5605  -28.4865 Cl  0  0  0  0  0  0  0  0  0  0  0  0
   -1.0285  -52.4666  -26.4671 C   0  0  0  0  0  0  0  0  0  0  0  0
    0.9144  -49.8820  -20.0440 N   0  0  0  0  0  0  0  0  0  0  0  0
    0.4152  -49.2910  -19.3559 H   0  0  0  0  0  0  0  0  0  0  0  0
    2.1702  -49.4021  -20.5785 C   0  0  0  0  0  0  0  0  0  0  0  0
    1.9365  -48.6015  -21.8512 C   0  0  0  0  0  0  0  0  0  0  0  0
    3.3079  -47.9708  -22.1688 C   0  0  0  0  0  0  0  0  0  0  0  0
    4.2416  -49.0628  -22.4156 N   0  0  0  0  0  0  0  0  0  0  0  0
    3.7243  -50.4207  -22.2041 C   0  0  0  0  0  0  0  0  0  0  0  0
    3.0457  -50.5902  -20.8937 C   0  0  0  0  0  0  0  0  0  0  0  0
    5.5449  -48.8692  -22.8250 C   0  0  0  0  0  0  0  0  0  0  0  0
    6.2146  -49.9871  -23.0296 O   0  0  0  0  0  0  0  0  0  0  0  0
    6.3151  -47.6844  -23.0716 C   0  0  0  0  0  0  0  0  0  0  0  0
    6.1638  -46.7579  -23.9735 C   0  0  0  0  0  0  0  0  0  0  0  0
 11 12  1  0  0  0
 12  1  1  0  0  0
  1  2  2  0  0  0
  2  3  1  0  0  0
  3  4  2  0  0  0
  4  5  1  0  0  0
  5  6  2  0  0  0
  6  7  1  0  0  0
  7 13  1  0  0  0
 13 15  1  0  0  0
 15 16  2  0  0  0
 16 17  1  0  0  0
 17 18  2  0  0  0
 18 19  1  0  0  0
 18 20  1  0  0  0
 20 21  1  0  0  0
 20 22  2  0  0  0
  7  8  2  0  0  0
  8  9  1  0  0  0
  9 10  2  0  0  0
 10 23  1  0  0  0
 23 25  1  0  0  0
 25 26  1  0  0  0
 26 27  1  0  0  0
 27 28  1  0  0  0
 28 29  1  0  0  0
 29 30  1  0  0  0
 28 31  1  0  0  0
 31 32  2  0  0  0
 31 33  1  0  0  0
 33 34  2  0  0  0
 10  1  1  0  0  0
 30 25  1  0  0  0
  8  3  1  0  0  0
 22 15  1  0  0  0
 13 14  1  0  0  0
 23 24  1  0  0  0
M  END
> <minimizedAffinity>
-8.72505

> <CNNscore>
0.8721341491

> <CNNaffinity>
7.8338050842

> <CNN_VS>
6.8321290016

> <CNNaffinity_variance>
0.1363422573

$$$$
[H]C([H])=C([H])C(=O)N1C([H])([H])C([H])([H])C([H])(N([H])c2c(OC([H])([H])[H])c([H])c3nc([H])nc(N([H])c4c([H])c([H])c(F)c(Cl)c4[H])c3c2[H])C([H])([H])C1([H])[H]


 34 37  0  0  0  0  0  0  0  0999 V2000
   -0.4495  -52.5426  -19.9480 C   0  0  0  0  0  0  0  0  0  0  0  0
   -0.9836  -53.7164  -20.4422 C   0  0  0  0  0  0  0  0  0  0  0  0
   -0.9766  -54.0221  -21.7703 C   0  0  0  0  0  0  0  0  0  0  0  0
   -1.5065  -55.2023  -22.2136 N   0  0  0  0  0  0  0  0  0  0  0  0
   -1.4735  -55.4793  -23.5269 C   0  0  0  0  0  0  0  0  0  0  0  0
   -0.9491  -54.6609  -24.4301 N   0  0  0  0  0  0  0  0  0  0  0  0
   -0.4127  -53.4745  -24.0145 C   0  0  0  0  0  0  0  0  0  0  0  0
   -0.4182  -53.1325  -22.6704 C   0  0  0  0  0  0  0  0  0  0  0  0
    0.1257  -51.9428  -22.1973 C   0  0  0  0  0  0  0  0  0  0  0  0
    0.1142  -51.6454  -20.8570 C   0  0  0  0  0  0  0  0  0  0  0  0
   -0.9433  -52.3520  -17.4496 C   0  0  0  0  0  0  0  0  0  0  0  0
   -0.4325  -52.2109  -18.6790 O   0  0  0  0  0  0  0  0  0  0  0  0
    0.1816  -52.5981  -24.9476 N   0  0  0  0  0  0  0  0  0  0  0  0
   -0.4091  -52.1914  -25.7346 H   0  0  0  0  0  0  0  0  0  0  0  0
    1.5589  -52.1778  -24.9524 C   0  0  0  0  0  0  0  0  0  0  0  0
    2.6282  -52.9421  -24.6066 C   0  0  0  0  0  0  0  0  0  0  0  0
    3.9360  -52.4160  -24.6116 C   0  0  0  0  0  0  0  0  0  0  0  0
    4.1618  -51.1103  -24.9696 C   0  0  0  0  0  0  0  0  0  0  0  0
    5.4096  -50.5631  -24.9833 F   0  0  0  0  0  0  0  0  0  0  0  0
    3.0951  -50.3194  -25.3237 C   0  0  0  0  0  0  0  0  0  0  0  0
    3.3676  -48.6336  -25.7880 Cl  0  0  0  0  0  0  0  0  0  0  0  0
    1.8316  -50.8414  -25.3148 C   0  0  0  0  0  0  0  0  0  0  0  0
    0.6908  -50.4415  -20.3981 N   0  0  0  0  0  0  0  0  0  0  0  0
    0.4394  -50.0964  -19.4549 H   0  0  0  0  0  0  0  0  0  0  0  0
    1.6169  -49.6618  -21.1904 C   0  0  0  0  0  0  0  0  0  0  0  0
    3.0463  -50.1236  -20.9470 C   0  0  0  0  0  0  0  0  0  0  0  0
    3.8796  -49.3788  -22.0101 C   0  0  0  0  0  0  0  0  0  0  0  0
    3.7504  -47.9517  -21.7420 N   0  0  0  0  0  0  0  0  0  0  0  0
    2.8251  -47.5737  -20.6663 C   0  0  0  0  0  0  0  0  0  0  0  0
    1.4898  -48.2116  -20.7927 C   0  0  0  0  0  0  0  0  0  0  0  0
    4.4421  -46.9827  -22.4394 C   0  0  0  0  0  0  0  0  0  0  0  0
    4.2141  -45.7534  -22.0187 O   0  0  0  0  0  0  0  0  0  0  0  0
    5.3634  -47.0532  -23.5366 C   0  0  0  0  0  0  0  0  0  0  0  0
    6.3076  -47.9142  -23.7854 C   0  0  0  0  0  0  0  0  0  0  0  0
 11 12  1  0  0  0
 12  1  1  0  0  0
  1  2  2  0  0  0
  2  3  1  0  0  0
  3  4  2  0  0  0
  4  5  1  0  0  0
  5  6  2  0  0  0
  6  7  1  0  0  0
  7 13  1  0  0  0
 13 15  1  0  0  0
 15 16  2  0  0  0
 16 17  1  0  0  0
 17 18  2  0  0  0
 18 19  1  0  0  0
 18 20  1  0  0  0
 20 21  1  0  0  0
 20 22  2  0  0  0
  7  8  2  0  0  0
  8  9  1  0  0  0
  9 10  2  0  0  0
 10 23  1  0  0  0
 23 25  1  0  0  0
 25 26  1  0  0  0
 26 27  1  0  0  0
 27 28  1  0  0  0
 28 29  1  0  0  0
 29 30  1  0  0  0
 28 31  1  0  0  0
 31 32  2  0  0  0
 31 33  1  0  0  0
 33 34  2  0  0  0
 10  1  1  0  0  0
 30 25  1  0  0  0
  8  3  1  0  0  0
 22 15  1  0  0  0
 13 14  1  0  0  0
 23 24  1  0  0  0
M  END
> <minimizedAffinity>
-7.65349

> <CNNscore>
0.6079522967

> <CNNaffinity>
7.2731223106

> <CNN_VS>
4.4217114449

> <CNNaffinity_variance>
0.1121563166

$$$$
[H]C([H])=C([H])C(=O)N1C([H])([H])C([H])([H])C([H])(N([H])c2c(OC([H])([H])[H])c([H])c3nc([H])nc(N([H])c4c([H])c([H])c(F)c(Cl)c4[H])c3c2[H])C([H])([H])C1([H])[H]


 34 37  0  0  0  0  0  0  0  0999 V2000
   -1.1465  -52.6359  -18.6930 C   0  0  0  0  0  0  0  0  0  0  0  0
   -1.6147  -53.6424  -19.5147 C   0  0  0  0  0  0  0  0  0  0  0  0
   -1.1927  -53.7927  -20.8018 C   0  0  0  0  0  0  0  0  0  0  0  0
   -1.6750  -54.8119  -21.5757 N   0  0  0  0  0  0  0  0  0  0  0  0
   -1.2305  -54.9400  -22.8361 C   0  0  0  0  0  0  0  0  0  0  0  0
   -0.3382  -54.1221  -23.3796 N   0  0  0  0  0  0  0  0  0  0  0  0
    0.1603  -53.0949  -22.6284 C   0  0  0  0  0  0  0  0  0  0  0  0
   -0.2614  -52.9109  -21.3200 C   0  0  0  0  0  0  0  0  0  0  0  0
    0.2249  -51.8881  -20.5124 C   0  0  0  0  0  0  0  0  0  0  0  0
   -0.2064  -51.7466  -19.2165 C   0  0  0  0  0  0  0  0  0  0  0  0
   -2.4793  -52.5444  -16.5165 C   0  0  0  0  0  0  0  0  0  0  0  0
   -1.5229  -52.4573  -17.4492 O   0  0  0  0  0  0  0  0  0  0  0  0
    1.1348  -52.2282  -23.1682 N   0  0  0  0  0  0  0  0  0  0  0  0
    1.4323  -51.3666  -22.6180 H   0  0  0  0  0  0  0  0  0  0  0  0
    1.7972  -52.3884  -24.4367 C   0  0  0  0  0  0  0  0  0  0  0  0
    3.1387  -52.4903  -24.6298 C   0  0  0  0  0  0  0  0  0  0  0  0
    3.6849  -52.6073  -25.9240 C   0  0  0  0  0  0  0  0  0  0  0  0
    2.8687  -52.6222  -27.0275 C   0  0  0  0  0  0  0  0  0  0  0  0
    3.3575  -52.7295  -28.2948 F   0  0  0  0  0  0  0  0  0  0  0  0
    1.5090  -52.5211  -26.8555 C   0  0  0  0  0  0  0  0  0  0  0  0
    0.4416  -52.5386  -28.2669 Cl  0  0  0  0  0  0  0  0  0  0  0  0
    0.9915  -52.4082  -25.5952 C   0  0  0  0  0  0  0  0  0  0  0  0
    0.3170  -50.7136  -18.4094 N   0  0  0  0  0  0  0  0  0  0  0  0
    0.0666  -49.7336  -18.6300 H   0  0  0  0  0  0  0  0  0  0  0  0
    1.1946  -50.9621  -17.2863 C   0  0  0  0  0  0  0  0  0  0  0  0
    0.4304  -50.8416  -15.9760 C   0  0  0  0  0  0  0  0  0  0  0  0
    1.4161  -51.3524  -14.9050 C   0  0  0  0  0  0  0  0  0  0  0  0
    2.5662  -50.4567  -14.9107 N   0  0  0  0  0  0  0  0  0  0  0  0
    2.5734  -49.4146  -15.9451 C   0  0  0  0  0  0  0  0  0  0  0  0
    2.3062  -49.9416  -17.3078 C   0  0  0  0  0  0  0  0  0  0  0  0
    3.6078  -50.5532  -14.0109 C   0  0  0  0  0  0  0  0  0  0  0  0
    4.5333  -49.6252  -14.1602 O   0  0  0  0  0  0  0  0  0  0  0  0
    3.8801  -51.4699  -12.9417 C   0  0  0  0  0  0  0  0  0  0  0  0
    4.1702  -52.7385  -12.9775 C   0  0  0  0  0  0  0  0  0  0  0  0
 11 12  1  0  0  0
 12  1  1  0  0  0
  1  2  2  0  0  0
  2  3  1  0  0  0
  3  4  2  0  0  0
  4  5  1  0  0  0
  5  6  2  0  0  0
  6  7  1  0  0  0
  7 13  1  0  0  0
 13 15  1  0  0  0
 15 16  2  0  0  0
 16 17  1  0  0  0
 17 18  2  0  0  0
 18 19  1  0  0  0
 18 20  1  0  0  0
 20 21  1  0  0  0
 20 22  2  0  0  0
  7  8  2  0  0  0
  8  9  1  0  0  0
  9 10  2  0  0  0
 10 23  1  0  0  0
 23 25  1  0  0  0
 25 26  1  0  0  0
 26 27  1  0  0  0
 27 28  1  0  0  0
 28 29  1  0  0  0
 29 30  1  0  0  0
 28 31  1  0  0  0
 31 32  2  0  0  0
 31 33  1  0  0  0
 33 34  2  0  0  0
 10  1  1  0  0  0
 30 25  1  0  0  0
  8  3  1  0  0  0
 22 15  1  0  0  0
 13 14  1  0  0  0
 23 24  1  0  0  0
M  END
> <minimizedAffinity>
-7.63441

> <CNNscore>
0.5811157227

> <CNNaffinity>
6.9465866089

> <CNN_VS>
4.0367708206

> <CNNaffinity_variance>
0.1078448892

$$$$
[H]C([H])=C([H])C(=O)N1C([H])([H])C([H])([H])C([H])(N([H])c2c(OC([H])([H])[H])c([H])c3nc([H])nc(N([H])c4c([H])c([H])c(F)c(Cl)c4[H])c3c2[H])C([H])([H])C1([H])[H]


 34 37  0  0  0  0  0  0  0  0999 V2000
    1.3721  -52.6948  -25.1238 C   0  0  0  0  0  0  0  0  0  0  0  0
    0.1719  -53.3565  -24.9541 C   0  0  0  0  0  0  0  0  0  0  0  0
   -0.2790  -53.7534  -23.7309 C   0  0  0  0  0  0  0  0  0  0  0  0
   -1.4801  -54.3957  -23.6088 N   0  0  0  0  0  0  0  0  0  0  0  0
   -1.9019  -54.7633  -22.3883 C   0  0  0  0  0  0  0  0  0  0  0  0
   -1.2090  -54.5354  -21.2799 N   0  0  0  0  0  0  0  0  0  0  0  0
   -0.0051  -53.8951  -21.3731 C   0  0  0  0  0  0  0  0  0  0  0  0
    0.4836  -53.4919  -22.6068 C   0  0  0  0  0  0  0  0  0  0  0  0
    1.6969  -52.8271  -22.7517 C   0  0  0  0  0  0  0  0  0  0  0  0
    2.1411  -52.4308  -23.9890 C   0  0  0  0  0  0  0  0  0  0  0  0
    1.8648  -52.4144  -27.6139 C   0  0  0  0  0  0  0  0  0  0  0  0
    1.8414  -52.2929  -26.2810 O   0  0  0  0  0  0  0  0  0  0  0  0
    0.7394  -53.6095  -20.2085 N   0  0  0  0  0  0  0  0  0  0  0  0
    1.5934  -54.2006  -19.9743 H   0  0  0  0  0  0  0  0  0  0  0  0
    0.4564  -52.5623  -19.2615 C   0  0  0  0  0  0  0  0  0  0  0  0
    1.1582  -51.4076  -19.1145 C   0  0  0  0  0  0  0  0  0  0  0  0
    0.8148  -50.4634  -18.1257 C   0  0  0  0  0  0  0  0  0  0  0  0
   -0.2446  -50.6893  -17.2827 C   0  0  0  0  0  0  0  0  0  0  0  0
   -0.6059  -49.8041  -16.3120 F   0  0  0  0  0  0  0  0  0  0  0  0
   -0.9686  -51.8500  -17.4140 C   0  0  0  0  0  0  0  0  0  0  0  0
   -2.3378  -52.1578  -16.3359 Cl  0  0  0  0  0  0  0  0  0  0  0  0
   -0.6257  -52.7578  -18.3770 C   0  0  0  0  0  0  0  0  0  0  0  0
    3.3657  -51.7392  -24.1089 N   0  0  0  0  0  0  0  0  0  0  0  0
    4.0026  -51.9850  -24.8873 H   0  0  0  0  0  0  0  0  0  0  0  0
    3.7756  -50.7017  -23.1875 C   0  0  0  0  0  0  0  0  0  0  0  0
    4.1035  -51.2972  -21.8261 C   0  0  0  0  0  0  0  0  0  0  0  0
    4.7360  -50.1326  -21.0368 C   0  0  0  0  0  0  0  0  0  0  0  0
    3.7223  -49.0927  -20.9097 N   0  0  0  0  0  0  0  0  0  0  0  0
    2.4567  -49.3290  -21.6156 C   0  0  0  0  0  0  0  0  0  0  0  0
    2.6437  -49.7150  -23.0377 C   0  0  0  0  0  0  0  0  0  0  0  0
    3.9068  -47.9386  -20.1764 C   0  0  0  0  0  0  0  0  0  0  0  0
    2.8553  -47.1422  -20.1560 O   0  0  0  0  0  0  0  0  0  0  0  0
    5.0237  -47.4352  -19.4301 C   0  0  0  0  0  0  0  0  0  0  0  0
    5.0931  -47.0286  -18.1954 C   0  0  0  0  0  0  0  0  0  0  0  0
 11 12  1  0  0  0
 12  1  1  0  0  0
  1  2  2  0  0  0
  2  3  1  0  0  0
  3  4  2  0  0  0
  4  5  1  0  0  0
  5  6  2  0  0  0
  6  7  1  0  0  0
  7 13  1  0  0  0
 13 15  1  0  0  0
 15 16  2  0  0  0
 16 17  1  0  0  0
 17 18  2  0  0  0
 18 19  1  0  0  0
 18 20  1  0  0  0
 20 21  1  0  0  0
 20 22  2  0  0  0
  7  8  2  0  0  0
  8  9  1  0  0  0
  9 10  2  0  0  0
 10 23  1  0  0  0
 23 25  1  0  0  0
 25 26  1  0  0  0
 26 27  1  0  0  0
 27 28  1  0  0  0
 28 29  1  0  0  0
 29 30  1  0  0  0
 28 31  1  0  0  0
 31 32  2  0  0  0
 31 33  1  0  0  0
 33 34  2  0  0  0
 10  1  1  0  0  0
 30 25  1  0  0  0
  8  3  1  0  0  0
 22 15  1  0  0  0
 13 14  1  0  0  0
 23 24  1  0  0  0
M  END
> <minimizedAffinity>
-6.70590

> <CNNscore>
0.5715362430

> <CNNaffinity>
7.3175177574

> <CNN_VS>
4.1822266579

> <CNNaffinity_variance>
0.1975408792

$$$$
[H]C([H])=C([H])C(=O)N1C([H])([H])C([H])([H])C([H])(N([H])c2c(OC([H])([H])[H])c([H])c3nc([H])nc(N([H])c4c([H])c([H])c(F)c(Cl)c4[H])c3c2[H])C([H])([H])C1([H])[H]


 34 37  0  0  0  0  0  0  0  0999 V2000
   -0.6564  -52.8624  -19.6347 C   0  0  0  0  0  0  0  0  0  0  0  0
   -1.1278  -53.9466  -20.3483 C   0  0  0  0  0  0  0  0  0  0  0  0
   -1.0245  -54.0317  -21.7045 C   0  0  0  0  0  0  0  0  0  0  0  0
   -1.4950  -55.1305  -22.3689 N   0  0  0  0  0  0  0  0  0  0  0  0
   -1.3675  -55.1894  -23.7041 C   0  0  0  0  0  0  0  0  0  0  0  0
   -0.8033  -54.2282  -24.4241 N   0  0  0  0  0  0  0  0  0  0  0  0
   -0.3245  -53.1187  -23.7856 C   0  0  0  0  0  0  0  0  0  0  0  0
   -0.4283  -53.0004  -22.4076 C   0  0  0  0  0  0  0  0  0  0  0  0
    0.0541  -51.8968  -21.7115 C   0  0  0  0  0  0  0  0  0  0  0  0
   -0.0544  -51.8220  -20.3448 C   0  0  0  0  0  0  0  0  0  0  0  0
   -1.4774  -52.5190  -17.2410 C   0  0  0  0  0  0  0  0  0  0  0  0
   -0.7324  -52.7417  -18.3307 O   0  0  0  0  0  0  0  0  0  0  0  0
    0.3100  -52.0946  -24.5208 N   0  0  0  0  0  0  0  0  0  0  0  0
   -0.2791  -51.4233  -25.1003 H   0  0  0  0  0  0  0  0  0  0  0  0
    1.7280  -51.8495  -24.5761 C   0  0  0  0  0  0  0  0  0  0  0  0
    2.7048  -52.7912  -24.4968 C   0  0  0  0  0  0  0  0  0  0  0  0
    4.0685  -52.4352  -24.5244 C   0  0  0  0  0  0  0  0  0  0  0  0
    4.4444  -51.1197  -24.6340 C   0  0  0  0  0  0  0  0  0  0  0  0
    5.7511  -50.7343  -24.6600 F   0  0  0  0  0  0  0  0  0  0  0  0
    3.4732  -50.1508  -24.7163 C   0  0  0  0  0  0  0  0  0  0  0  0
    3.9397  -48.4496  -24.8581 Cl  0  0  0  0  0  0  0  0  0  0  0  0
    2.1542  -50.5089  -24.6885 C   0  0  0  0  0  0  0  0  0  0  0  0
    0.4611  -50.7017  -19.6581 N   0  0  0  0  0  0  0  0  0  0  0  0
   -0.1321  -50.2356  -18.9491 H   0  0  0  0  0  0  0  0  0  0  0  0
    1.7840  -50.1699  -19.9039 C   0  0  0  0  0  0  0  0  0  0  0  0
    1.8188  -49.4182  -21.2264 C   0  0  0  0  0  0  0  0  0  0  0  0
    3.1961  -48.7237  -21.2404 C   0  0  0  0  0  0  0  0  0  0  0  0
    4.2107  -49.7703  -21.2199 N   0  0  0  0  0  0  0  0  0  0  0  0
    3.7209  -51.1477  -21.0816 C   0  0  0  0  0  0  0  0  0  0  0  0
    2.7625  -51.3175  -19.9597 C   0  0  0  0  0  0  0  0  0  0  0  0
    5.5634  -49.5182  -21.3219 C   0  0  0  0  0  0  0  0  0  0  0  0
    6.3129  -50.6037  -21.3209 O   0  0  0  0  0  0  0  0  0  0  0  0
    6.3147  -48.3009  -21.4286 C   0  0  0  0  0  0  0  0  0  0  0  0
    6.3147  -47.3940  -22.3626 C   0  0  0  0  0  0  0  0  0  0  0  0
 11 12  1  0  0  0
 12  1  1  0  0  0
  1  2  2  0  0  0
  2  3  1  0  0  0
  3  4  2  0  0  0
  4  5  1  0  0  0
  5  6  2  0  0  0
  6  7  1  0  0  0
  7 13  1  0  0  0
 13 15  1  0  0  0
 15 16  2  0  0  0
 16 17  1  0  0  0
 17 18  2  0  0  0
 18 19  1  0  0  0
 18 20  1  0  0  0
 20 21  1  0  0  0
 20 22  2  0  0  0
  7  8  2  0  0  0
  8  9  1  0  0  0
  9 10  2  0  0  0
 10 23  1  0  0  0
 23 25  1  0  0  0
 25 26  1  0  0  0
 26 27  1  0  0  0
 27 28  1  0  0  0
 28 29  1  0  0  0
 29 30  1  0  0  0
 28 31  1  0  0  0
 31 32  2  0  0  0
 31 33  1  0  0  0
 33 34  2  0  0  0
 10  1  1  0  0  0
 30 25  1  0  0  0
  8  3  1  0  0  0
 22 15  1  0  0  0
 13 14  1  0  0  0
 23 24  1  0  0  0
M  END
> <minimizedAffinity>
-7.93849

> <CNNscore>
0.4630723000

> <CNNaffinity>
7.1159906387

> <CNN_VS>
3.2952182293

> <CNNaffinity_variance>
0.1003720984

$$$$
[H]C([H])=C([H])C(=O)N1C([H])([H])C([H])([H])C([H])(N([H])c2c(OC([H])([H])[H])c([H])c3nc([H])nc(N([H])c4c([H])c([H])c(F)c(Cl)c4[H])c3c2[H])C([H])([H])C1([H])[H]


 34 37  0  0  0  0  0  0  0  0999 V2000
   -0.8962  -52.9527  -19.6316 C   0  0  0  0  0  0  0  0  0  0  0  0
   -1.3685  -53.9899  -20.4116 C   0  0  0  0  0  0  0  0  0  0  0  0
   -1.1121  -54.0774  -21.7472 C   0  0  0  0  0  0  0  0  0  0  0  0
   -1.5905  -55.1294  -22.4783 N   0  0  0  0  0  0  0  0  0  0  0  0
   -1.3104  -55.1929  -23.7898 C   0  0  0  0  0  0  0  0  0  0  0  0
   -0.5863  -54.2797  -24.4242 N   0  0  0  0  0  0  0  0  0  0  0  0
   -0.0957  -53.2177  -23.7175 C   0  0  0  0  0  0  0  0  0  0  0  0
   -0.3524  -53.0971  -22.3599 C   0  0  0  0  0  0  0  0  0  0  0  0
    0.1343  -52.0415  -21.5957 C   0  0  0  0  0  0  0  0  0  0  0  0
   -0.1293  -51.9639  -20.2505 C   0  0  0  0  0  0  0  0  0  0  0  0
   -1.9674  -52.9109  -17.3136 C   0  0  0  0  0  0  0  0  0  0  0  0
   -1.1165  -52.8318  -18.3441 O   0  0  0  0  0  0  0  0  0  0  0  0
    0.7051  -52.2476  -24.3577 N   0  0  0  0  0  0  0  0  0  0  0  0
    0.2415  -51.4111  -24.8255 H   0  0  0  0  0  0  0  0  0  0  0  0
    2.1418  -52.2682  -24.4526 C   0  0  0  0  0  0  0  0  0  0  0  0
    2.8653  -52.6853  -25.5249 C   0  0  0  0  0  0  0  0  0  0  0  0
    4.2746  -52.6982  -25.4965 C   0  0  0  0  0  0  0  0  0  0  0  0
    4.9541  -52.2858  -24.3774 C   0  0  0  0  0  0  0  0  0  0  0  0
    6.3149  -52.2870  -24.3086 F   0  0  0  0  0  0  0  0  0  0  0  0
    4.2426  -51.8592  -23.2818 C   0  0  0  0  0  0  0  0  0  0  0  0
    5.1021  -51.3239  -21.8304 Cl  0  0  0  0  0  0  0  0  0  0  0  0
    2.8761  -51.8514  -23.3218 C   0  0  0  0  0  0  0  0  0  0  0  0
    0.3928  -50.8944  -19.4915 N   0  0  0  0  0  0  0  0  0  0  0  0
    0.4654  -49.9601  -19.9315 H   0  0  0  0  0  0  0  0  0  0  0  0
    0.8373  -51.0456  -18.1230 C   0  0  0  0  0  0  0  0  0  0  0  0
    0.3124  -49.9052  -17.2631 C   0  0  0  0  0  0  0  0  0  0  0  0
    0.6618  -50.3177  -15.8184 C   0  0  0  0  0  0  0  0  0  0  0  0
    2.1145  -50.3990  -15.7290 N   0  0  0  0  0  0  0  0  0  0  0  0
    2.8550  -50.1976  -16.9809 C   0  0  0  0  0  0  0  0  0  0  0  0
    2.3462  -51.0292  -18.1014 C   0  0  0  0  0  0  0  0  0  0  0  0
    2.7897  -50.6499  -14.5522 C   0  0  0  0  0  0  0  0  0  0  0  0
    4.1030  -50.6459  -14.6759 O   0  0  0  0  0  0  0  0  0  0  0  0
    2.3389  -50.9153  -13.2165 C   0  0  0  0  0  0  0  0  0  0  0  0
    1.7061  -51.9454  -12.7336 C   0  0  0  0  0  0  0  0  0  0  0  0
 11 12  1  0  0  0
 12  1  1  0  0  0
  1  2  2  0  0  0
  2  3  1  0  0  0
  3  4  2  0  0  0
  4  5  1  0  0  0
  5  6  2  0  0  0
  6  7  1  0  0  0
  7 13  1  0  0  0
 13 15  1  0  0  0
 15 16  2  0  0  0
 16 17  1  0  0  0
 17 18  2  0  0  0
 18 19  1  0  0  0
 18 20  1  0  0  0
 20 21  1  0  0  0
 20 22  2  0  0  0
  7  8  2  0  0  0
  8  9  1  0  0  0
  9 10  2  0  0  0
 10 23  1  0  0  0
 23 25  1  0  0  0
 25 26  1  0  0  0
 26 27  1  0  0  0
 27 28  1  0  0  0
 28 29  1  0  0  0
 29 30  1  0  0  0
 28 31  1  0  0  0
 31 32  2  0  0  0
 31 33  1  0  0  0
 33 34  2  0  0  0
 10  1  1  0  0  0
 30 25  1  0  0  0
  8  3  1  0  0  0
 22 15  1  0  0  0
 13 14  1  0  0  0
 23 24  1  0  0  0
M  END
> <minimizedAffinity>
-7.82596

> <CNNscore>
0.4254775047

> <CNNaffinity>
7.0108094215

> <CNN_VS>
2.9829416275

> <CNNaffinity_variance>
0.0293199066

$$$$
[H]C([H])=C([H])C(=O)N1C([H])([H])C([H])([H])C([H])(N([H])c2c(OC([H])([H])[H])c([H])c3nc([H])nc(N([H])c4c([H])c([H])c(F)c(Cl)c4[H])c3c2[H])C([H])([H])C1([H])[H]


 34 37  0  0  0  0  0  0  0  0999 V2000
    0.0388  -53.5677  -24.6717 C   0  0  0  0  0  0  0  0  0  0  0  0
   -0.8771  -54.0103  -23.7377 C   0  0  0  0  0  0  0  0  0  0  0  0
   -0.7320  -53.7784  -22.4026 C   0  0  0  0  0  0  0  0  0  0  0  0
   -1.6709  -54.2254  -21.5144 N   0  0  0  0  0  0  0  0  0  0  0  0
   -1.5049  -53.9704  -20.2067 C   0  0  0  0  0  0  0  0  0  0  0  0
   -0.4671  -53.3006  -19.7221 N   0  0  0  0  0  0  0  0  0  0  0  0
    0.4862  -52.8424  -20.5876 C   0  0  0  0  0  0  0  0  0  0  0  0
    0.3701  -53.0755  -21.9499 C   0  0  0  0  0  0  0  0  0  0  0  0
    1.3074  -52.6197  -22.8711 C   0  0  0  0  0  0  0  0  0  0  0  0
    1.1506  -52.8581  -24.2141 C   0  0  0  0  0  0  0  0  0  0  0  0
    0.1714  -54.5446  -27.0276 C   0  0  0  0  0  0  0  0  0  0  0  0
   -0.0638  -53.7659  -25.9643 O   0  0  0  0  0  0  0  0  0  0  0  0
    1.5846  -52.0986  -20.1055 N   0  0  0  0  0  0  0  0  0  0  0  0
    2.3043  -52.5723  -19.4800 H   0  0  0  0  0  0  0  0  0  0  0  0
    1.8479  -50.7093  -20.3777 C   0  0  0  0  0  0  0  0  0  0  0  0
    0.9130  -49.7469  -20.5944 C   0  0  0  0  0  0  0  0  0  0  0  0
    1.2841  -48.4196  -20.8904 C   0  0  0  0  0  0  0  0  0  0  0  0
    2.6080  -48.0653  -20.9660 C   0  0  0  0  0  0  0  0  0  0  0  0
    3.0077  -46.7947  -21.2534 F   0  0  0  0  0  0  0  0  0  0  0  0
    3.5703  -49.0222  -20.7496 C   0  0  0  0  0  0  0  0  0  0  0  0
    5.2821  -48.5832  -20.8432 Cl  0  0  0  0  0  0  0  0  0  0  0  0
    3.1976  -50.3060  -20.4634 C   0  0  0  0  0  0  0  0  0  0  0  0
    2.1042  -52.3677  -25.1321 N   0  0  0  0  0  0  0  0  0  0  0  0
    2.7624  -53.0354  -25.5712 H   0  0  0  0  0  0  0  0  0  0  0  0
    2.2076  -50.9685  -25.4853 C   0  0  0  0  0  0  0  0  0  0  0  0
    3.3904  -50.7396  -26.4148 C   0  0  0  0  0  0  0  0  0  0  0  0
    3.2369  -49.2779  -26.8832 C   0  0  0  0  0  0  0  0  0  0  0  0
    3.3427  -48.4298  -25.7023 N   0  0  0  0  0  0  0  0  0  0  0  0
    3.4465  -49.1226  -24.4118 C   0  0  0  0  0  0  0  0  0  0  0  0
    2.4062  -50.1658  -24.2229 C   0  0  0  0  0  0  0  0  0  0  0  0
    3.3477  -47.0511  -25.7559 C   0  0  0  0  0  0  0  0  0  0  0  0
    3.4898  -46.4691  -24.5807 O   0  0  0  0  0  0  0  0  0  0  0  0
    3.2277  -46.1254  -26.8451 C   0  0  0  0  0  0  0  0  0  0  0  0
    2.1915  -45.8082  -27.5664 C   0  0  0  0  0  0  0  0  0  0  0  0
 11 12  1  0  0  0
 12  1  1  0  0  0
  1  2  2  0  0  0
  2  3  1  0  0  0
  3  4  2  0  0  0
  4  5  1  0  0  0
  5  6  2  0  0  0
  6  7  1  0  0  0
  7 13  1  0  0  0
 13 15  1  0  0  0
 15 16  2  0  0  0
 16 17  1  0  0  0
 17 18  2  0  0  0
 18 19  1  0  0  0
 18 20  1  0  0  0
 20 21  1  0  0  0
 20 22  2  0  0  0
  7  8  2  0  0  0
  8  9  1  0  0  0
  9 10  2  0  0  0
 10 23  1  0  0  0
 23 25  1  0  0  0
 25 26  1  0  0  0
 26 27  1  0  0  0
 27 28  1  0  0  0
 28 29  1  0  0  0
 29 30  1  0  0  0
 28 31  1  0  0  0
 31 32  2  0  0  0
 31 33  1  0  0  0
 33 34  2  0  0  0
 10  1  1  0  0  0
 30 25  1  0  0  0
  8  3  1  0  0  0
 22 15  1  0  0  0
 13 14  1  0  0  0
 23 24  1  0  0  0
M  END
> <minimizedAffinity>
-7.52307

> <CNNscore>
0.4215340018

> <CNNaffinity>
7.1004667282

> <CNN_VS>
2.9930882454

> <CNNaffinity_variance>
0.0445190184

$$$$
[H]c1nc2c(c(Oc3c([H])c([H])c4c(c3[H])[C@]3([H])[C@]([H])(O4)[C@@]3([H])N([H])C(=O)c3c([H])c([H])c(F)c(F)c3[H])c1[H])C([H])([H])C([H])([H])C(=O)N2[H]


 35 40  0  0  0  0  0  0  0  0999 V2000
    3.2606  -47.1453  -24.0006 C   0  0  0  0  0  0  0  0  0  0  0  0
    4.2619  -46.4323  -23.2089 C   0  0  0  0  0  0  0  0  0  0  0  0
    4.0681  -46.0335  -21.8883 O   0  0  0  0  0  0  0  0  0  0  0  0
    3.6364  -47.1088  -21.1041 C   0  0  0  0  0  0  0  0  0  0  0  0
    3.1730  -47.1931  -19.8070 C   0  0  0  0  0  0  0  0  0  0  0  0
    2.8039  -48.4034  -19.2603 C   0  0  0  0  0  0  0  0  0  0  0  0
    2.8681  -49.5957  -19.9522 C   0  0  0  0  0  0  0  0  0  0  0  0
    3.3398  -49.4881  -21.2626 C   0  0  0  0  0  0  0  0  0  0  0  0
    3.7117  -48.2837  -21.8201 C   0  0  0  0  0  0  0  0  0  0  0  0
    4.2342  -47.8946  -23.1578 C   0  0  0  0  0  0  0  0  0  0  0  0
    2.8002  -46.4320  -26.3661 C   0  0  0  0  0  0  0  0  0  0  0  0
    1.9681  -45.5996  -25.9082 O   0  0  0  0  0  0  0  0  0  0  0  0
    3.4753  -47.2336  -25.4303 N   0  0  0  0  0  0  0  0  0  0  0  0
    4.1677  -47.9325  -25.7460 H   0  0  0  0  0  0  0  0  0  0  0  0
    3.5495  -46.7706  -31.8716 F   0  0  0  0  0  0  0  0  0  0  0  0
    3.4016  -46.7110  -30.5367 C   0  0  0  0  0  0  0  0  0  0  0  0
    4.2891  -47.3254  -29.6847 C   0  0  0  0  0  0  0  0  0  0  0  0
    4.0928  -47.2342  -28.3227 C   0  0  0  0  0  0  0  0  0  0  0  0
    3.0470  -46.5549  -27.7866 C   0  0  0  0  0  0  0  0  0  0  0  0
    2.1476  -45.9323  -28.6524 C   0  0  0  0  0  0  0  0  0  0  0  0
    2.3368  -46.0188  -30.0087 C   0  0  0  0  0  0  0  0  0  0  0  0
    1.4385  -45.3984  -30.8165 F   0  0  0  0  0  0  0  0  0  0  0  0
    2.5257  -50.8306  -19.4932 O   0  0  0  0  0  0  0  0  0  0  0  0
    1.4305  -51.3211  -18.9151 C   0  0  0  0  0  0  0  0  0  0  0  0
    1.1136  -50.9827  -17.6201 C   0  0  0  0  0  0  0  0  0  0  0  0
   -0.0282  -51.4831  -16.9938 C   0  0  0  0  0  0  0  0  0  0  0  0
   -0.8290  -52.2992  -17.6511 N   0  0  0  0  0  0  0  0  0  0  0  0
   -0.5655  -52.6620  -18.9200 C   0  0  0  0  0  0  0  0  0  0  0  0
   -1.5086  -53.4882  -19.6018 N   0  0  0  0  0  0  0  0  0  0  0  0
   -1.2581  -53.7978  -20.9593 C   0  0  0  0  0  0  0  0  0  0  0  0
   -1.6742  -54.8159  -21.5101 O   0  0  0  0  0  0  0  0  0  0  0  0
   -0.4436  -52.7933  -21.6912 C   0  0  0  0  0  0  0  0  0  0  0  0
    0.8555  -52.7091  -20.9199 C   0  0  0  0  0  0  0  0  0  0  0  0
    0.5724  -52.1801  -19.5721 C   0  0  0  0  0  0  0  0  0  0  0  0
   -2.3585  -53.8561  -19.1081 H   0  0  0  0  0  0  0  0  0  0  0  0
 15 16  1  0  0  0
 16 17  2  0  0  0
 17 18  1  0  0  0
 18 19  2  0  0  0
 19 20  1  0  0  0
 20 21  2  0  0  0
 21 22  1  0  0  0
 19 11  1  0  0  0
 11 12  2  0  0  0
 11 13  1  0  0  0
 13  1  1  0  0  0
  1  2  1  0  0  0
  2  3  1  0  0  0
  3  4  1  0  0  0
  4  5  2  0  0  0
  5  6  1  0  0  0
  6  7  2  0  0  0
  7 23  1  0  0  0
 23 24  1  0  0  0
 24 25  2  0  0  0
 25 26  1  0  0  0
 26 27  2  0  0  0
 27 28  1  0  0  0
 28 29  1  0  0  0
 29 30  1  0  0  0
 30 31  2  0  0  0
 30 32  1  0  0  0
 32 33  1  0  0  0
 33 34  1  0  0  0
  7  8  1  0  0  0
  8  9  2  0  0  0
  9 10  1  0  0  0
 21 16  1  0  0  0
 10  1  1  0  0  0
 10  2  1  0  0  0
  9  4  1  0  0  0
 34 24  1  0  0  0
 34 28  2  0  0  0
 13 14  1  0  0  0
 29 35  1  0  0  0
M  END
> <minimizedAffinity>
-7.85835

> <CNNscore>
0.6137615442

> <CNNaffinity>
6.4413232803

> <CNN_VS>
3.9534366131

> <CNNaffinity_variance>
0.3652802706

$$$$
[H]c1nc2c(c(Oc3c([H])c([H])c4c(c3[H])[C@]3([H])[C@]([H])(O4)[C@@]3([H])N([H])C(=O)c3c([H])c([H])c(F)c(F)c3[H])c1[H])C([H])([H])C([H])([H])C(=O)N2[H]


 35 40  0  0  0  0  0  0  0  0999 V2000
    2.8758  -50.4838  -24.8392 C   0  0  0  0  0  0  0  0  0  0  0  0
    4.3361  -50.4645  -24.9099 C   0  0  0  0  0  0  0  0  0  0  0  0
    5.1463  -49.7349  -24.0427 O   0  0  0  0  0  0  0  0  0  0  0  0
    4.8185  -50.0083  -22.7103 C   0  0  0  0  0  0  0  0  0  0  0  0
    5.2132  -49.4419  -21.5154 C   0  0  0  0  0  0  0  0  0  0  0  0
    4.7300  -49.9093  -20.3121 C   0  0  0  0  0  0  0  0  0  0  0  0
    3.8354  -50.9555  -20.2126 C   0  0  0  0  0  0  0  0  0  0  0  0
    3.4492  -51.5143  -21.4332 C   0  0  0  0  0  0  0  0  0  0  0  0
    3.9254  -51.0555  -22.6424 C   0  0  0  0  0  0  0  0  0  0  0  0
    3.6854  -51.4579  -24.0546 C   0  0  0  0  0  0  0  0  0  0  0  0
    0.8555  -51.5571  -25.8798 C   0  0  0  0  0  0  0  0  0  0  0  0
    0.3074  -51.5289  -24.7423 O   0  0  0  0  0  0  0  0  0  0  0  0
    2.1575  -51.0364  -25.9690 N   0  0  0  0  0  0  0  0  0  0  0  0
    2.6563  -51.0327  -26.8737 H   0  0  0  0  0  0  0  0  0  0  0  0
   -1.9723  -53.5952  -30.2198 F   0  0  0  0  0  0  0  0  0  0  0  0
   -1.2551  -53.1116  -29.1906 C   0  0  0  0  0  0  0  0  0  0  0  0
    0.1200  -53.1090  -29.2082 C   0  0  0  0  0  0  0  0  0  0  0  0
    0.8093  -52.6013  -28.1270 C   0  0  0  0  0  0  0  0  0  0  0  0
    0.1759  -52.0997  -27.0362 C   0  0  0  0  0  0  0  0  0  0  0  0
   -1.2190  -52.1032  -27.0201 C   0  0  0  0  0  0  0  0  0  0  0  0
   -1.9114  -52.6067  -28.0925 C   0  0  0  0  0  0  0  0  0  0  0  0
   -3.2682  -52.5914  -28.0368 F   0  0  0  0  0  0  0  0  0  0  0  0
    3.3087  -51.4794  -19.0720 O   0  0  0  0  0  0  0  0  0  0  0  0
    2.0928  -51.4527  -18.5287 C   0  0  0  0  0  0  0  0  0  0  0  0
    1.8485  -50.7042  -17.4009 C   0  0  0  0  0  0  0  0  0  0  0  0
    0.5836  -50.6599  -16.8143 C   0  0  0  0  0  0  0  0  0  0  0  0
   -0.4077  -51.3476  -17.3472 N   0  0  0  0  0  0  0  0  0  0  0  0
   -0.2228  -52.0959  -18.4504 C   0  0  0  0  0  0  0  0  0  0  0  0
   -1.3512  -52.7573  -19.0214 N   0  0  0  0  0  0  0  0  0  0  0  0
   -1.1584  -53.4765  -20.2244 C   0  0  0  0  0  0  0  0  0  0  0  0
   -1.8530  -54.4346  -20.5598 O   0  0  0  0  0  0  0  0  0  0  0  0
   -0.0402  -52.9896  -21.0733 C   0  0  0  0  0  0  0  0  0  0  0  0
    1.1877  -53.0903  -20.1947 C   0  0  0  0  0  0  0  0  0  0  0  0
    1.0337  -52.1627  -19.0578 C   0  0  0  0  0  0  0  0  0  0  0  0
   -2.2924  -52.7129  -18.5595 H   0  0  0  0  0  0  0  0  0  0  0  0
 15 16  1  0  0  0
 16 17  2  0  0  0
 17 18  1  0  0  0
 18 19  2  0  0  0
 19 20  1  0  0  0
 20 21  2  0  0  0
 21 22  1  0  0  0
 19 11  1  0  0  0
 11 12  2  0  0  0
 11 13  1  0  0  0
 13  1  1  0  0  0
  1  2  1  0  0  0
  2  3  1  0  0  0
  3  4  1  0  0  0
  4  5  2  0  0  0
  5  6  1  0  0  0
  6  7  2  0  0  0
  7 23  1  0  0  0
 23 24  1  0  0  0
 24 25  2  0  0  0
 25 26  1  0  0  0
 26 27  2  0  0  0
 27 28  1  0  0  0
 28 29  1  0  0  0
 29 30  1  0  0  0
 30 31  2  0  0  0
 30 32  1  0  0  0
 32 33  1  0  0  0
 33 34  1  0  0  0
  7  8  1  0  0  0
  8  9  2  0  0  0
  9 10  1  0  0  0
 21 16  1  0  0  0
 10  1  1  0  0  0
 10  2  1  0  0  0
  9  4  1  0  0  0
 34 24  1  0  0  0
 34 28  2  0  0  0
 13 14  1  0  0  0
 29 35  1  0  0  0
M  END
> <minimizedAffinity>
-9.32571

> <CNNscore>
0.5361039639

> <CNNaffinity>
7.0173807144

> <CNN_VS>
3.7620456219

> <CNNaffinity_variance>
0.2650703490

$$$$
[H]c1nc2c(c(Oc3c([H])c([H])c4c(c3[H])[C@]3([H])[C@]([H])(O4)[C@@]3([H])N([H])C(=O)c3c([H])c([H])c(F)c(F)c3[H])c1[H])C([H])([H])C([H])([H])C(=O)N2[H]


 35 40  0  0  0  0  0  0  0  0999 V2000
    3.1523  -48.1067  -24.7881 C   0  0  0  0  0  0  0  0  0  0  0  0
    3.7985  -47.2321  -23.8107 C   0  0  0  0  0  0  0  0  0  0  0  0
    3.2097  -46.8394  -22.6108 O   0  0  0  0  0  0  0  0  0  0  0  0
    2.7444  -47.9509  -21.8999 C   0  0  0  0  0  0  0  0  0  0  0  0
    1.9732  -48.0773  -20.7625 C   0  0  0  0  0  0  0  0  0  0  0  0
    1.6492  -49.3177  -20.2564 C   0  0  0  0  0  0  0  0  0  0  0  0
    2.0618  -50.5008  -20.8349 C   0  0  0  0  0  0  0  0  0  0  0  0
    2.8410  -50.3504  -21.9844 C   0  0  0  0  0  0  0  0  0  0  0  0
    3.1714  -49.1156  -22.4999 C   0  0  0  0  0  0  0  0  0  0  0  0
    3.9664  -48.6800  -23.6798 C   0  0  0  0  0  0  0  0  0  0  0  0
    3.2995  -47.4405  -27.2069 C   0  0  0  0  0  0  0  0  0  0  0  0
    2.3286  -46.6580  -27.0064 O   0  0  0  0  0  0  0  0  0  0  0  0
    3.7455  -48.1918  -26.1066 N   0  0  0  0  0  0  0  0  0  0  0  0
    4.5363  -48.8487  -26.2104 H   0  0  0  0  0  0  0  0  0  0  0  0
    5.5498  -47.7169  -32.2908 F   0  0  0  0  0  0  0  0  0  0  0  0
    5.0313  -47.6791  -31.0510 C   0  0  0  0  0  0  0  0  0  0  0  0
    5.4908  -48.5047  -30.0518 C   0  0  0  0  0  0  0  0  0  0  0  0
    4.9253  -48.4268  -28.7964 C   0  0  0  0  0  0  0  0  0  0  0  0
    3.9231  -47.5581  -28.5073 C   0  0  0  0  0  0  0  0  0  0  0  0
    3.4582  -46.7214  -29.5222 C   0  0  0  0  0  0  0  0  0  0  0  0
    4.0163  -46.7934  -30.7736 C   0  0  0  0  0  0  0  0  0  0  0  0
    3.5349  -45.9615  -31.7330 F   0  0  0  0  0  0  0  0  0  0  0  0
    1.7898  -51.7634  -20.4050 O   0  0  0  0  0  0  0  0  0  0  0  0
    0.6938  -52.5201  -20.4223 C   0  0  0  0  0  0  0  0  0  0  0  0
    0.4173  -53.3237  -21.5039 C   0  0  0  0  0  0  0  0  0  0  0  0
   -0.7236  -54.1254  -21.5446 C   0  0  0  0  0  0  0  0  0  0  0  0
   -1.5621  -54.1202  -20.5265 N   0  0  0  0  0  0  0  0  0  0  0  0
   -1.3389  -53.3527  -19.4438 C   0  0  0  0  0  0  0  0  0  0  0  0
   -2.2437  -53.4469  -18.3442 N   0  0  0  0  0  0  0  0  0  0  0  0
   -1.9545  -52.6935  -17.1822 C   0  0  0  0  0  0  0  0  0  0  0  0
   -2.8157  -52.3056  -16.3944 O   0  0  0  0  0  0  0  0  0  0  0  0
   -0.5141  -52.3956  -16.9709 C   0  0  0  0  0  0  0  0  0  0  0  0
   -0.0872  -51.6400  -18.2105 C   0  0  0  0  0  0  0  0  0  0  0  0
   -0.2067  -52.5366  -19.3760 C   0  0  0  0  0  0  0  0  0  0  0  0
   -3.0979  -54.0540  -18.3999 H   0  0  0  0  0  0  0  0  0  0  0  0
 15 16  1  0  0  0
 16 17  2  0  0  0
 17 18  1  0  0  0
 18 19  2  0  0  0
 19 20  1  0  0  0
 20 21  2  0  0  0
 21 22  1  0  0  0
 19 11  1  0  0  0
 11 12  2  0  0  0
 11 13  1  0  0  0
 13  1  1  0  0  0
  1  2  1  0  0  0
  2  3  1  0  0  0
  3  4  1  0  0  0
  4  5  2  0  0  0
  5  6  1  0  0  0
  6  7  2  0  0  0
  7 23  1  0  0  0
 23 24  1  0  0  0
 24 25  2  0  0  0
 25 26  1  0  0  0
 26 27  2  0  0  0
 27 28  1  0  0  0
 28 29  1  0  0  0
 29 30  1  0  0  0
 30 31  2  0  0  0
 30 32  1  0  0  0
 32 33  1  0  0  0
 33 34  1  0  0  0
  7  8  1  0  0  0
  8  9  2  0  0  0
  9 10  1  0  0  0
 21 16  1  0  0  0
 10  1  1  0  0  0
 10  2  1  0  0  0
  9  4  1  0  0  0
 34 24  1  0  0  0
 34 28  2  0  0  0
 13 14  1  0  0  0
 29 35  1  0  0  0
M  END
> <minimizedAffinity>
-7.69472

> <CNNscore>
0.4662013650

> <CNNaffinity>
6.2397346497

> <CNN_VS>
2.9089727402

> <CNNaffinity_variance>
0.3006635606

$$$$
[H]c1nc2c(c(Oc3c([H])c([H])c4c(c3[H])[C@]3([H])[C@]([H])(O4)[C@@]3([H])N([H])C(=O)c3c([H])c([H])c(F)c(F)c3[H])c1[H])C([H])([H])C([H])([H])C(=O)N2[H]


 35 40  0  0  0  0  0  0  0  0999 V2000
    3.5919  -47.8647  -24.8670 C   0  0  0  0  0  0  0  0  0  0  0  0
    3.7673  -46.9688  -23.7249 C   0  0  0  0  0  0  0  0  0  0  0  0
    2.7858  -46.7329  -22.7648 O   0  0  0  0  0  0  0  0  0  0  0  0
    2.2959  -47.9382  -22.2503 C   0  0  0  0  0  0  0  0  0  0  0  0
    1.2399  -48.2369  -21.4136 C   0  0  0  0  0  0  0  0  0  0  0  0
    0.9650  -49.5380  -21.0511 C   0  0  0  0  0  0  0  0  0  0  0  0
    1.7077  -50.6165  -21.4868 C   0  0  0  0  0  0  0  0  0  0  0  0
    2.7714  -50.2922  -22.3321 C   0  0  0  0  0  0  0  0  0  0  0  0
    3.0560  -48.9953  -22.7017 C   0  0  0  0  0  0  0  0  0  0  0  0
    4.1011  -48.3850  -23.5671 C   0  0  0  0  0  0  0  0  0  0  0  0
    4.4621  -48.5121  -27.1342 C   0  0  0  0  0  0  0  0  0  0  0  0
    3.4522  -49.2598  -27.2613 O   0  0  0  0  0  0  0  0  0  0  0  0
    4.5681  -47.7888  -25.9343 N   0  0  0  0  0  0  0  0  0  0  0  0
    5.3728  -47.1609  -25.7737 H   0  0  0  0  0  0  0  0  0  0  0  0
    8.1362  -48.1436  -31.2997 F   0  0  0  0  0  0  0  0  0  0  0  0
    7.2785  -48.2254  -30.2676 C   0  0  0  0  0  0  0  0  0  0  0  0
    7.6960  -48.0577  -28.9681 C   0  0  0  0  0  0  0  0  0  0  0  0
    6.7762  -48.1512  -27.9448 C   0  0  0  0  0  0  0  0  0  0  0  0
    5.4626  -48.4051  -28.1740 C   0  0  0  0  0  0  0  0  0  0  0  0
    5.0409  -48.5750  -29.4929 C   0  0  0  0  0  0  0  0  0  0  0  0
    5.9506  -48.4831  -30.5161 C   0  0  0  0  0  0  0  0  0  0  0  0
    5.4989  -48.6549  -31.7852 F   0  0  0  0  0  0  0  0  0  0  0  0
    1.5085  -51.9277  -21.1806 O   0  0  0  0  0  0  0  0  0  0  0  0
    0.5085  -52.7785  -21.4049 C   0  0  0  0  0  0  0  0  0  0  0  0
   -0.3244  -53.1627  -20.3798 C   0  0  0  0  0  0  0  0  0  0  0  0
   -1.3786  -54.0517  -20.5904 C   0  0  0  0  0  0  0  0  0  0  0  0
   -1.5903  -54.5395  -21.7974 N   0  0  0  0  0  0  0  0  0  0  0  0
   -0.8054  -54.1963  -22.8353 C   0  0  0  0  0  0  0  0  0  0  0  0
   -1.1306  -54.6996  -24.1305 N   0  0  0  0  0  0  0  0  0  0  0  0
   -0.3445  -54.2688  -25.2250 C   0  0  0  0  0  0  0  0  0  0  0  0
   -0.1874  -54.9318  -26.2490 O   0  0  0  0  0  0  0  0  0  0  0  0
    0.2918  -52.9369  -25.0538 C   0  0  0  0  0  0  0  0  0  0  0  0
    1.1441  -53.0698  -23.8107 C   0  0  0  0  0  0  0  0  0  0  0  0
    0.2603  -53.3110  -22.6542 C   0  0  0  0  0  0  0  0  0  0  0  0
   -1.9263  -55.3709  -24.2635 H   0  0  0  0  0  0  0  0  0  0  0  0
 15 16  1  0  0  0
 16 17  2  0  0  0
 17 18  1  0  0  0
 18 19  2  0  0  0
 19 20  1  0  0  0
 20 21  2  0  0  0
 21 22  1  0  0  0
 19 11  1  0  0  0
 11 12  2  0  0  0
 11 13  1  0  0  0
 13  1  1  0  0  0
  1  2  1  0  0  0
  2  3  1  0  0  0
  3  4  1  0  0  0
  4  5  2  0  0  0
  5  6  1  0  0  0
  6  7  2  0  0  0
  7 23  1  0  0  0
 23 24  1  0  0  0
 24 25  2  0  0  0
 25 26  1  0  0  0
 26 27  2  0  0  0
 27 28  1  0  0  0
 28 29  1  0  0  0
 29 30  1  0  0  0
 30 31  2  0  0  0
 30 32  1  0  0  0
 32 33  1  0  0  0
 33 34  1  0  0  0
  7  8  1  0  0  0
  8  9  2  0  0  0
  9 10  1  0  0  0
 21 16  1  0  0  0
 10  1  1  0  0  0
 10  2  1  0  0  0
  9  4  1  0  0  0
 34 24  1  0  0  0
 34 28  2  0  0  0
 13 14  1  0  0  0
 29 35  1  0  0  0
M  END
> <minimizedAffinity>
-8.66702

> <CNNscore>
0.4448714554

> <CNNaffinity>
6.5329604149

> <CNN_VS>
2.9063277245

> <CNNaffinity_variance>
0.3848755062

$$$$
[H]c1nc2c(c(Oc3c([H])c([H])c4c(c3[H])[C@]3([H])[C@]([H])(O4)[C@@]3([H])N([H])C(=O)c3c([H])c([H])c(F)c(F)c3[H])c1[H])C([H])([H])C([H])([H])C(=O)N2[H]


 35 40  0  0  0  0  0  0  0  0999 V2000
    4.6053  -48.0607  -25.5797 C   0  0  0  0  0  0  0  0  0  0  0  0
    5.5821  -49.1198  -25.3304 C   0  0  0  0  0  0  0  0  0  0  0  0
    5.7753  -49.7218  -24.0890 O   0  0  0  0  0  0  0  0  0  0  0  0
    4.5601  -50.1727  -23.5624 C   0  0  0  0  0  0  0  0  0  0  0  0
    4.2073  -50.6825  -22.3295 C   0  0  0  0  0  0  0  0  0  0  0  0
    2.9096  -51.0610  -22.0605 C   0  0  0  0  0  0  0  0  0  0  0  0
    1.8874  -50.9616  -22.9824 C   0  0  0  0  0  0  0  0  0  0  0  0
    2.2658  -50.4436  -24.2232 C   0  0  0  0  0  0  0  0  0  0  0  0
    3.5600  -50.0617  -24.5038 C   0  0  0  0  0  0  0  0  0  0  0  0
    4.2192  -49.4937  -25.7107 C   0  0  0  0  0  0  0  0  0  0  0  0
    3.6557  -46.5967  -27.3884 C   0  0  0  0  0  0  0  0  0  0  0  0
    2.5628  -46.5966  -26.7556 O   0  0  0  0  0  0  0  0  0  0  0  0
    4.7147  -47.3277  -26.8241 N   0  0  0  0  0  0  0  0  0  0  0  0
    5.6327  -47.3643  -27.2968 H   0  0  0  0  0  0  0  0  0  0  0  0
    4.1069  -43.9997  -32.2913 F   0  0  0  0  0  0  0  0  0  0  0  0
    4.0219  -44.5991  -31.0909 C   0  0  0  0  0  0  0  0  0  0  0  0
    4.6742  -44.1001  -29.9879 C   0  0  0  0  0  0  0  0  0  0  0  0
    4.5546  -44.7524  -28.7788 C   0  0  0  0  0  0  0  0  0  0  0  0
    3.8106  -45.8787  -28.6351 C   0  0  0  0  0  0  0  0  0  0  0  0
    3.1496  -46.3835  -29.7550 C   0  0  0  0  0  0  0  0  0  0  0  0
    3.2641  -45.7395  -30.9613 C   0  0  0  0  0  0  0  0  0  0  0  0
    2.6046  -46.2637  -32.0265 F   0  0  0  0  0  0  0  0  0  0  0  0
    0.5837  -51.3098  -22.8033 O   0  0  0  0  0  0  0  0  0  0  0  0
   -0.0156  -52.3266  -22.1858 C   0  0  0  0  0  0  0  0  0  0  0  0
   -0.4027  -53.4417  -22.8920 C   0  0  0  0  0  0  0  0  0  0  0  0
   -1.0312  -54.5192  -22.2674 C   0  0  0  0  0  0  0  0  0  0  0  0
   -1.2629  -54.4773  -20.9697 N   0  0  0  0  0  0  0  0  0  0  0  0
   -0.9043  -53.4103  -20.2319 C   0  0  0  0  0  0  0  0  0  0  0  0
   -1.1150  -53.4563  -18.8211 N   0  0  0  0  0  0  0  0  0  0  0  0
   -0.6626  -52.3613  -18.0480 C   0  0  0  0  0  0  0  0  0  0  0  0
   -1.1633  -52.0388  -16.9717 O   0  0  0  0  0  0  0  0  0  0  0  0
    0.4794  -51.6111  -18.6320 C   0  0  0  0  0  0  0  0  0  0  0  0
   -0.0157  -51.1369  -19.9810 C   0  0  0  0  0  0  0  0  0  0  0  0
   -0.2766  -52.3148  -20.8302 C   0  0  0  0  0  0  0  0  0  0  0  0
   -1.5940  -54.2762  -18.3744 H   0  0  0  0  0  0  0  0  0  0  0  0
 15 16  1  0  0  0
 16 17  2  0  0  0
 17 18  1  0  0  0
 18 19  2  0  0  0
 19 20  1  0  0  0
 20 21  2  0  0  0
 21 22  1  0  0  0
 19 11  1  0  0  0
 11 12  2  0  0  0
 11 13  1  0  0  0
 13  1  1  0  0  0
  1  2  1  0  0  0
  2  3  1  0  0  0
  3  4  1  0  0  0
  4  5  2  0  0  0
  5  6  1  0  0  0
  6  7  2  0  0  0
  7 23  1  0  0  0
 23 24  1  0  0  0
 24 25  2  0  0  0
 25 26  1  0  0  0
 26 27  2  0  0  0
 27 28  1  0  0  0
 28 29  1  0  0  0
 29 30  1  0  0  0
 30 31  2  0  0  0
 30 32  1  0  0  0
 32 33  1  0  0  0
 33 34  1  0  0  0
  7  8  1  0  0  0
  8  9  2  0  0  0
  9 10  1  0  0  0
 21 16  1  0  0  0
 10  1  1  0  0  0
 10  2  1  0  0  0
  9  4  1  0  0  0
 34 24  1  0  0  0
 34 28  2  0  0  0
 13 14  1  0  0  0
 29 35  1  0  0  0
M  END
> <minimizedAffinity>
-8.20066

> <CNNscore>
0.4416638315

> <CNNaffinity>
6.3778738976

> <CNN_VS>
2.8168761730

> <CNNaffinity_variance>
0.5166530609

$$$$
[H]c1nc2c(c(Oc3c([H])c([H])c4c(c3[H])[C@]3([H])[C@]([H])(O4)[C@@]3([H])N([H])C(=O)c3c([H])c([H])c(F)c(F)c3[H])c1[H])C([H])([H])C([H])([H])C(=O)N2[H]


 35 40  0  0  0  0  0  0  0  0999 V2000
    5.2868  -49.1117  -24.9213 C   0  0  0  0  0  0  0  0  0  0  0  0
    6.1269  -50.1468  -24.3207 C   0  0  0  0  0  0  0  0  0  0  0  0
    6.1352  -50.4480  -22.9606 O   0  0  0  0  0  0  0  0  0  0  0  0
    4.8354  -50.6742  -22.4950 C   0  0  0  0  0  0  0  0  0  0  0  0
    4.3130  -50.8498  -21.2299 C   0  0  0  0  0  0  0  0  0  0  0  0
    2.9643  -51.0614  -21.0398 C   0  0  0  0  0  0  0  0  0  0  0  0
    2.0544  -51.1128  -22.0762 C   0  0  0  0  0  0  0  0  0  0  0  0
    2.6039  -50.9330  -23.3477 C   0  0  0  0  0  0  0  0  0  0  0  0
    3.9505  -50.7206  -23.5503 C   0  0  0  0  0  0  0  0  0  0  0  0
    4.7795  -50.5040  -24.7667 C   0  0  0  0  0  0  0  0  0  0  0  0
    4.7762  -47.8419  -27.0293 C   0  0  0  0  0  0  0  0  0  0  0  0
    3.7300  -47.4128  -26.4668 O   0  0  0  0  0  0  0  0  0  0  0  0
    5.5909  -48.7055  -26.2779 N   0  0  0  0  0  0  0  0  0  0  0  0
    6.4597  -49.0883  -26.6856 H   0  0  0  0  0  0  0  0  0  0  0  0
    5.8614  -46.3969  -32.2943 F   0  0  0  0  0  0  0  0  0  0  0  0
    5.6385  -46.7433  -31.0145 C   0  0  0  0  0  0  0  0  0  0  0  0
    6.6660  -46.8489  -30.1067 C   0  0  0  0  0  0  0  0  0  0  0  0
    6.3844  -47.2077  -28.8052 C   0  0  0  0  0  0  0  0  0  0  0  0
    5.1198  -47.4629  -28.3828 C   0  0  0  0  0  0  0  0  0  0  0  0
    4.0788  -47.3552  -29.3051 C   0  0  0  0  0  0  0  0  0  0  0  0
    4.3516  -46.9986  -30.6018 C   0  0  0  0  0  0  0  0  0  0  0  0
    3.3097  -46.9051  -31.4677 F   0  0  0  0  0  0  0  0  0  0  0  0
    0.7119  -51.3161  -21.9804 O   0  0  0  0  0  0  0  0  0  0  0  0
   -0.0419  -52.4066  -21.8511 C   0  0  0  0  0  0  0  0  0  0  0  0
   -0.6888  -52.6716  -20.6664 C   0  0  0  0  0  0  0  0  0  0  0  0
   -1.4841  -53.8066  -20.5073 C   0  0  0  0  0  0  0  0  0  0  0  0
   -1.6261  -54.6504  -21.5110 N   0  0  0  0  0  0  0  0  0  0  0  0
   -1.0155  -54.4384  -22.6914 C   0  0  0  0  0  0  0  0  0  0  0  0
   -1.2676  -55.3484  -23.7615 N   0  0  0  0  0  0  0  0  0  0  0  0
   -0.6817  -55.0707  -25.0189 C   0  0  0  0  0  0  0  0  0  0  0  0
   -0.4126  -55.9388  -25.8477 O   0  0  0  0  0  0  0  0  0  0  0  0
   -0.4070  -53.6336  -25.2786 C   0  0  0  0  0  0  0  0  0  0  0  0
    0.5165  -53.2055  -24.1590 C   0  0  0  0  0  0  0  0  0  0  0  0
   -0.2097  -53.3125  -22.8792 C   0  0  0  0  0  0  0  0  0  0  0  0
   -1.8664  -56.1980  -23.6165 H   0  0  0  0  0  0  0  0  0  0  0  0
 15 16  1  0  0  0
 16 17  2  0  0  0
 17 18  1  0  0  0
 18 19  2  0  0  0
 19 20  1  0  0  0
 20 21  2  0  0  0
 21 22  1  0  0  0
 19 11  1  0  0  0
 11 12  2  0  0  0
 11 13  1  0  0  0
 13  1  1  0  0  0
  1  2  1  0  0  0
  2  3  1  0  0  0
  3  4  1  0  0  0
  4  5  2  0  0  0
  5  6  1  0  0  0
  6  7  2  0  0  0
  7 23  1  0  0  0
 23 24  1  0  0  0
 24 25  2  0  0  0
 25 26  1  0  0  0
 26 27  2  0  0  0
 27 28  1  0  0  0
 28 29  1  0  0  0
 29 30  1  0  0  0
 30 31  2  0  0  0
 30 32  1  0  0  0
 32 33  1  0  0  0
 33 34  1  0  0  0
  7  8  1  0  0  0
  8  9  2  0  0  0
  9 10  1  0  0  0
 21 16  1  0  0  0
 10  1  1  0  0  0
 10  2  1  0  0  0
  9  4  1  0  0  0
 34 24  1  0  0  0
 34 28  2  0  0  0
 13 14  1  0  0  0
 29 35  1  0  0  0
M  END
> <minimizedAffinity>
-8.46808

> <CNNscore>
0.4175536633

> <CNNaffinity>
6.7101659775

> <CNN_VS>
2.8018543720

> <CNNaffinity_variance>
0.5641472340

$$$$
[H]c1nc2c(c(Oc3c([H])c([H])c4c(c3[H])[C@]3([H])[C@]([H])(O4)[C@@]3([H])N([H])C(=O)c3c([H])c([H])c(F)c(F)c3[H])c1[H])C([H])([H])C([H])([H])C(=O)N2[H]


 35 40  0  0  0  0  0  0  0  0999 V2000
    2.8927  -46.7716  -25.6395 C   0  0  0  0  0  0  0  0  0  0  0  0
    3.5389  -46.1010  -24.5123 C   0  0  0  0  0  0  0  0  0  0  0  0
    3.0193  -46.0789  -23.2200 O   0  0  0  0  0  0  0  0  0  0  0  0
    2.7126  -47.3735  -22.7869 C   0  0  0  0  0  0  0  0  0  0  0  0
    2.0518  -47.8553  -21.6753 C   0  0  0  0  0  0  0  0  0  0  0  0
    1.8796  -49.2090  -21.4808 C   0  0  0  0  0  0  0  0  0  0  0  0
    2.3443  -50.1638  -22.3623 C   0  0  0  0  0  0  0  0  0  0  0  0
    3.0100  -49.6550  -23.4799 C   0  0  0  0  0  0  0  0  0  0  0  0
    3.1882  -48.3038  -23.6853 C   0  0  0  0  0  0  0  0  0  0  0  0
    3.8422  -47.5110  -24.7611 C   0  0  0  0  0  0  0  0  0  0  0  0
    2.5802  -45.9054  -27.9780 C   0  0  0  0  0  0  0  0  0  0  0  0
    1.3767  -45.6627  -27.6817 O   0  0  0  0  0  0  0  0  0  0  0  0
    3.3803  -46.4677  -26.9691 N   0  0  0  0  0  0  0  0  0  0  0  0
    4.3728  -46.6878  -27.1532 H   0  0  0  0  0  0  0  0  0  0  0  0
    4.4620  -44.9623  -33.1312 F   0  0  0  0  0  0  0  0  0  0  0  0
    4.0340  -45.1633  -31.8727 C   0  0  0  0  0  0  0  0  0  0  0  0
    4.5819  -44.4870  -30.8081 C   0  0  0  0  0  0  0  0  0  0  0  0
    4.1071  -44.7293  -29.5361 C   0  0  0  0  0  0  0  0  0  0  0  0
    3.1105  -45.6183  -29.2933 C   0  0  0  0  0  0  0  0  0  0  0  0
    2.5558  -46.3034  -30.3745 C   0  0  0  0  0  0  0  0  0  0  0  0
    3.0232  -46.0673  -31.6429 C   0  0  0  0  0  0  0  0  0  0  0  0
    2.4562  -46.7551  -32.6674 F   0  0  0  0  0  0  0  0  0  0  0  0
    2.2194  -51.5146  -22.2499 O   0  0  0  0  0  0  0  0  0  0  0  0
    1.1789  -52.3448  -22.2971 C   0  0  0  0  0  0  0  0  0  0  0  0
    0.4747  -52.6470  -21.1547 C   0  0  0  0  0  0  0  0  0  0  0  0
   -0.6188  -53.5129  -21.1792 C   0  0  0  0  0  0  0  0  0  0  0  0
   -0.9944  -54.0585  -22.3197 N   0  0  0  0  0  0  0  0  0  0  0  0
   -0.3403  -53.7964  -23.4663 C   0  0  0  0  0  0  0  0  0  0  0  0
   -0.8401  -54.3587  -24.6791 N   0  0  0  0  0  0  0  0  0  0  0  0
   -0.1900  -54.0124  -25.8869 C   0  0  0  0  0  0  0  0  0  0  0  0
   -0.1808  -54.7343  -26.8827 O   0  0  0  0  0  0  0  0  0  0  0  0
    0.4946  -52.6935  -25.8743 C   0  0  0  0  0  0  0  0  0  0  0  0
    1.4952  -52.7854  -24.7429 C   0  0  0  0  0  0  0  0  0  0  0  0
    0.7606  -52.9361  -23.4723 C   0  0  0  0  0  0  0  0  0  0  0  0
   -1.6621  -55.0112  -24.6718 H   0  0  0  0  0  0  0  0  0  0  0  0
 15 16  1  0  0  0
 16 17  2  0  0  0
 17 18  1  0  0  0
 18 19  2  0  0  0
 19 20  1  0  0  0
 20 21  2  0  0  0
 21 22  1  0  0  0
 19 11  1  0  0  0
 11 12  2  0  0  0
 11 13  1  0  0  0
 13  1  1  0  0  0
  1  2  1  0  0  0
  2  3  1  0  0  0
  3  4  1  0  0  0
  4  5  2  0  0  0
  5  6  1  0  0  0
  6  7  2  0  0  0
  7 23  1  0  0  0
 23 24  1  0  0  0
 24 25  2  0  0  0
 25 26  1  0  0  0
 26 27  2  0  0  0
 27 28  1  0  0  0
 28 29  1  0  0  0
 29 30  1  0  0  0
 30 31  2  0  0  0
 30 32  1  0  0  0
 32 33  1  0  0  0
 33 34  1  0  0  0
  7  8  1  0  0  0
  8  9  2  0  0  0
  9 10  1  0  0  0
 21 16  1  0  0  0
 10  1  1  0  0  0
 10  2  1  0  0  0
  9  4  1  0  0  0
 34 24  1  0  0  0
 34 28  2  0  0  0
 13 14  1  0  0  0
 29 35  1  0  0  0
M  END
> <minimizedAffinity>
-8.68032

> <CNNscore>
0.3851637244

> <CNNaffinity>
6.5860967636

> <CNN_VS>
2.5367255211

> <CNNaffinity_variance>
0.3993959725

$$$$
[H]c1nc2c(c(Oc3c([H])c([H])c4c(c3[H])[C@]3([H])[C@]([H])(O4)[C@@]3([H])N([H])C(=O)c3c([H])c([H])c(F)c(F)c3[H])c1[H])C([H])([H])C([H])([H])C(=O)N2[H]


 35 40  0  0  0  0  0  0  0  0999 V2000
    3.3724  -47.1483  -26.4575 C   0  0  0  0  0  0  0  0  0  0  0  0
    4.1346  -46.6975  -25.2939 C   0  0  0  0  0  0  0  0  0  0  0  0
    3.6900  -46.8196  -23.9793 O   0  0  0  0  0  0  0  0  0  0  0  0
    3.2969  -48.1349  -23.7092 C   0  0  0  0  0  0  0  0  0  0  0  0
    2.6585  -48.7175  -22.6333 C   0  0  0  0  0  0  0  0  0  0  0  0
    2.3811  -50.0675  -22.6160 C   0  0  0  0  0  0  0  0  0  0  0  0
    2.7130  -50.9201  -23.6492 C   0  0  0  0  0  0  0  0  0  0  0  0
    3.3582  -50.3104  -24.7277 C   0  0  0  0  0  0  0  0  0  0  0  0
    3.6408  -48.9618  -24.7565 C   0  0  0  0  0  0  0  0  0  0  0  0
    4.3011  -48.0769  -25.7539 C   0  0  0  0  0  0  0  0  0  0  0  0
    2.9981  -45.9624  -28.6415 C   0  0  0  0  0  0  0  0  0  0  0  0
    1.8278  -45.6967  -28.2479 O   0  0  0  0  0  0  0  0  0  0  0  0
    3.8112  -46.6966  -27.7618 N   0  0  0  0  0  0  0  0  0  0  0  0
    4.7781  -46.9436  -28.0295 H   0  0  0  0  0  0  0  0  0  0  0  0
    4.7014  -44.4708  -33.7268 F   0  0  0  0  0  0  0  0  0  0  0  0
    4.3146  -44.8035  -32.4829 C   0  0  0  0  0  0  0  0  0  0  0  0
    4.8295  -44.1727  -31.3748 C   0  0  0  0  0  0  0  0  0  0  0  0
    4.3995  -44.5511  -30.1202 C   0  0  0  0  0  0  0  0  0  0  0  0
    3.4790  -45.5317  -29.9365 C   0  0  0  0  0  0  0  0  0  0  0  0
    2.9579  -46.1705  -31.0618 C   0  0  0  0  0  0  0  0  0  0  0  0
    3.3810  -45.7990  -32.3131 C   0  0  0  0  0  0  0  0  0  0  0  0
    2.8487  -46.4459  -33.3820 F   0  0  0  0  0  0  0  0  0  0  0  0
    2.4784  -52.2593  -23.7158 O   0  0  0  0  0  0  0  0  0  0  0  0
    1.4100  -52.9866  -24.0381 C   0  0  0  0  0  0  0  0  0  0  0  0
    1.1888  -53.3618  -25.3428 C   0  0  0  0  0  0  0  0  0  0  0  0
    0.0777  -54.1239  -25.7045 C   0  0  0  0  0  0  0  0  0  0  0  0
   -0.7856  -54.4991  -24.7807 N   0  0  0  0  0  0  0  0  0  0  0  0
   -0.6163  -54.1593  -23.4896 C   0  0  0  0  0  0  0  0  0  0  0  0
   -1.5445  -54.6578  -22.5269 N   0  0  0  0  0  0  0  0  0  0  0  0
   -1.3108  -54.3577  -21.1643 C   0  0  0  0  0  0  0  0  0  0  0  0
   -2.2044  -54.2940  -20.3215 O   0  0  0  0  0  0  0  0  0  0  0  0
    0.1127  -54.1198  -20.8102 C   0  0  0  0  0  0  0  0  0  0  0  0
    0.5440  -52.9647  -21.6874 C   0  0  0  0  0  0  0  0  0  0  0  0
    0.4848  -53.3935  -23.0978 C   0  0  0  0  0  0  0  0  0  0  0  0
   -2.3756  -55.2258  -22.8237 H   0  0  0  0  0  0  0  0  0  0  0  0
 15 16  1  0  0  0
 16 17  2  0  0  0
 17 18  1  0  0  0
 18 19  2  0  0  0
 19 20  1  0  0  0
 20 21  2  0  0  0
 21 22  1  0  0  0
 19 11  1  0  0  0
 11 12  2  0  0  0
 11 13  1  0  0  0
 13  1  1  0  0  0
  1  2  1  0  0  0
  2  3  1  0  0  0
  3  4  1  0  0  0
  4  5  2  0  0  0
  5  6  1  0  0  0
  6  7  2  0  0  0
  7 23  1  0  0  0
 23 24  1  0  0  0
 24 25  2  0  0  0
 25 26  1  0  0  0
 26 27  2  0  0  0
 27 28  1  0  0  0
 28 29  1  0  0  0
 29 30  1  0  0  0
 30 31  2  0  0  0
 30 32  1  0  0  0
 32 33  1  0  0  0
 33 34  1  0  0  0
  7  8  1  0  0  0
  8  9  2  0  0  0
  9 10  1  0  0  0
 21 16  1  0  0  0
 10  1  1  0  0  0
 10  2  1  0  0  0
  9  4  1  0  0  0
 34 24  1  0  0  0
 34 28  2  0  0  0
 13 14  1  0  0  0
 29 35  1  0  0  0
M  END
> <minimizedAffinity>
-8.45272

> <CNNscore>
0.3501615822

> <CNNaffinity>
6.3349595070

> <CNN_VS>
2.2182593346

> <CNNaffinity_variance>
0.6564439535

$$$$
[H]c1nc2c(c(Oc3c([H])c([H])c4c(c3[H])[C@]3([H])[C@]([H])(O4)[C@@]3([H])N([H])C(=O)c3c([H])c([H])c(F)c(F)c3[H])c1[H])C([H])([H])C([H])([H])C(=O)N2[H]


 35 40  0  0  0  0  0  0  0  0999 V2000
    0.0988  -52.9304  -22.3255 C   0  0  0  0  0  0  0  0  0  0  0  0
   -1.2311  -53.2400  -21.8028 C   0  0  0  0  0  0  0  0  0  0  0  0
   -1.4694  -53.7031  -20.5107 O   0  0  0  0  0  0  0  0  0  0  0  0
   -0.8565  -52.8732  -19.5657 C   0  0  0  0  0  0  0  0  0  0  0  0
   -0.6727  -52.9852  -18.2027 C   0  0  0  0  0  0  0  0  0  0  0  0
   -0.0196  -52.0030  -17.4894 C   0  0  0  0  0  0  0  0  0  0  0  0
    0.4885  -50.8589  -18.0705 C   0  0  0  0  0  0  0  0  0  0  0  0
    0.2916  -50.7655  -19.4502 C   0  0  0  0  0  0  0  0  0  0  0  0
   -0.3597  -51.7409  -20.1740 C   0  0  0  0  0  0  0  0  0  0  0  0
   -0.6971  -51.8903  -21.6154 C   0  0  0  0  0  0  0  0  0  0  0  0
   -0.3303  -53.6191  -24.7042 C   0  0  0  0  0  0  0  0  0  0  0  0
   -0.9777  -54.6068  -24.2566 O   0  0  0  0  0  0  0  0  0  0  0  0
    0.2304  -52.7468  -23.7562 N   0  0  0  0  0  0  0  0  0  0  0  0
    0.7709  -51.9214  -24.0631 H   0  0  0  0  0  0  0  0  0  0  0  0
    0.0415  -52.6887  -30.1798 F   0  0  0  0  0  0  0  0  0  0  0  0
   -0.0099  -52.9250  -28.8573 C   0  0  0  0  0  0  0  0  0  0  0  0
    1.0847  -53.3859  -28.1641 C   0  0  0  0  0  0  0  0  0  0  0  0
    0.9801  -53.6125  -26.8078 C   0  0  0  0  0  0  0  0  0  0  0  0
   -0.1730  -53.3960  -26.1251 C   0  0  0  0  0  0  0  0  0  0  0  0
   -1.2824  -52.9285  -26.8300 C   0  0  0  0  0  0  0  0  0  0  0  0
   -1.1855  -52.7007  -28.1796 C   0  0  0  0  0  0  0  0  0  0  0  0
   -2.2886  -52.2458  -28.8281 F   0  0  0  0  0  0  0  0  0  0  0  0
    1.1440  -49.8427  -17.4458 O   0  0  0  0  0  0  0  0  0  0  0  0
    0.8128  -49.0073  -16.4626 C   0  0  0  0  0  0  0  0  0  0  0  0
   -0.5030  -48.8505  -16.0934 C   0  0  0  0  0  0  0  0  0  0  0  0
   -0.8742  -47.9823  -15.0665 C   0  0  0  0  0  0  0  0  0  0  0  0
    0.0510  -47.2924  -14.4281 N   0  0  0  0  0  0  0  0  0  0  0  0
    1.3527  -47.4086  -14.7494 C   0  0  0  0  0  0  0  0  0  0  0  0
    2.3122  -46.6921  -13.9731 N   0  0  0  0  0  0  0  0  0  0  0  0
    3.6818  -46.8839  -14.2713 C   0  0  0  0  0  0  0  0  0  0  0  0
    4.5484  -46.0399  -14.0489 O   0  0  0  0  0  0  0  0  0  0  0  0
    4.0120  -48.1973  -14.8829 C   0  0  0  0  0  0  0  0  0  0  0  0
    3.1823  -48.2576  -16.1469 C   0  0  0  0  0  0  0  0  0  0  0  0
    1.7544  -48.2673  -15.7758 C   0  0  0  0  0  0  0  0  0  0  0  0
    2.0084  -46.0412  -13.2079 H   0  0  0  0  0  0  0  0  0  0  0  0
 15 16  1  0  0  0
 16 17  2  0  0  0
 17 18  1  0  0  0
 18 19  2  0  0  0
 19 20  1  0  0  0
 20 21  2  0  0  0
 21 22  1  0  0  0
 19 11  1  0  0  0
 11 12  2  0  0  0
 11 13  1  0  0  0
 13  1  1  0  0  0
  1  2  1  0  0  0
  2  3  1  0  0  0
  3  4  1  0  0  0
  4  5  2  0  0  0
  5  6  1  0  0  0
  6  7  2  0  0  0
  7 23  1  0  0  0
 23 24  1  0  0  0
 24 25  2  0  0  0
 25 26  1  0  0  0
 26 27  2  0  0  0
 27 28  1  0  0  0
 28 29  1  0  0  0
 29 30  1  0  0  0
 30 31  2  0  0  0
 30 32  1  0  0  0
 32 33  1  0  0  0
 33 34  1  0  0  0
  7  8  1  0  0  0
  8  9  2  0  0  0
  9 10  1  0  0  0
 21 16  1  0  0  0
 10  1  1  0  0  0
 10  2  1  0  0  0
  9  4  1  0  0  0
 34 24  1  0  0  0
 34 28  2  0  0  0
 13 14  1  0  0  0
 29 35  1  0  0  0
M  END
> <minimizedAffinity>
-8.47466

> <CNNscore>
0.3088477254

> <CNNaffinity>
6.5408849716

> <CNN_VS>
2.0201375484

> <CNNaffinity_variance>
0.4818560481

$$$$
[H]C([H])=C([H])C(=O)N([H])c1c([H])c([H])c([H])c(N([H])c2nc(N([H])c3c([H])c([H])c4c(c3[H])N(C([H])([H])[H])C([H])([H])C([H])([H])O4)nc([H])c2F)c1[H]


 34 37  0  0  0  0  0  0  0  0999 V2000
   -0.6647  -54.1675  -21.3289 C   0  0  0  0  0  0  0  0  0  0  0  0
   -1.4049  -55.0413  -22.0380 N   0  0  0  0  0  0  0  0  0  0  0  0
   -1.3695  -55.1059  -23.3719 C   0  0  0  0  0  0  0  0  0  0  0  0
   -0.5592  -54.2649  -24.0780 C   0  0  0  0  0  0  0  0  0  0  0  0
   -0.4694  -54.2710  -25.4264 F   0  0  0  0  0  0  0  0  0  0  0  0
    0.2345  -53.3313  -23.3613 C   0  0  0  0  0  0  0  0  0  0  0  0
    0.1446  -53.3276  -22.0343 N   0  0  0  0  0  0  0  0  0  0  0  0
   -0.6498  -54.0339  -19.9365 N   0  0  0  0  0  0  0  0  0  0  0  0
   -0.9421  -54.8723  -19.3510 H   0  0  0  0  0  0  0  0  0  0  0  0
   -2.1920  -51.5412  -15.7610 C   0  0  0  0  0  0  0  0  0  0  0  0
   -0.9669  -50.8807  -16.1644 N   0  0  0  0  0  0  0  0  0  0  0  0
   -0.3924  -49.8712  -15.3119 C   0  0  0  0  0  0  0  0  0  0  0  0
    0.7590  -49.1330  -15.8979 C   0  0  0  0  0  0  0  0  0  0  0  0
    0.9235  -49.3196  -17.2854 O   0  0  0  0  0  0  0  0  0  0  0  0
    0.5693  -50.4651  -17.9569 C   0  0  0  0  0  0  0  0  0  0  0  0
    1.1088  -50.8699  -19.1562 C   0  0  0  0  0  0  0  0  0  0  0  0
    0.7060  -52.0289  -19.7713 C   0  0  0  0  0  0  0  0  0  0  0  0
   -0.2760  -52.8765  -19.2255 C   0  0  0  0  0  0  0  0  0  0  0  0
   -0.8130  -52.4699  -18.0290 C   0  0  0  0  0  0  0  0  0  0  0  0
   -0.3902  -51.2765  -17.4071 C   0  0  0  0  0  0  0  0  0  0  0  0
    1.0834  -52.4731  -24.0718 N   0  0  0  0  0  0  0  0  0  0  0  0
    0.9062  -52.3966  -25.1167 H   0  0  0  0  0  0  0  0  0  0  0  0
    2.1342  -51.7048  -23.5251 C   0  0  0  0  0  0  0  0  0  0  0  0
    3.3486  -52.1970  -23.1183 C   0  0  0  0  0  0  0  0  0  0  0  0
    4.3610  -51.3835  -22.5994 C   0  0  0  0  0  0  0  0  0  0  0  0
    4.0769  -50.0504  -22.5139 C   0  0  0  0  0  0  0  0  0  0  0  0
    2.8612  -49.4785  -22.9079 C   0  0  0  0  0  0  0  0  0  0  0  0
    1.9051  -50.3147  -23.4097 C   0  0  0  0  0  0  0  0  0  0  0  0
    2.7021  -48.0742  -22.7721 N   0  0  0  0  0  0  0  0  0  0  0  0
    3.0351  -47.1104  -23.7220 C   0  0  0  0  0  0  0  0  0  0  0  0
    3.5208  -47.3820  -24.8336 O   0  0  0  0  0  0  0  0  0  0  0  0
    2.2917  -47.7153  -21.8565 H   0  0  0  0  0  0  0  0  0  0  0  0
    2.8243  -45.6751  -23.4554 C   0  0  0  0  0  0  0  0  0  0  0  0
    2.1395  -44.9681  -24.3227 C   0  0  0  0  0  0  0  0  0  0  0  0
 10 11  1  0  0  0
 11 12  1  0  0  0
 12 13  1  0  0  0
 13 14  1  0  0  0
 14 15  1  0  0  0
 15 16  2  0  0  0
 16 17  1  0  0  0
 17 18  2  0  0  0
 18  8  1  0  0  0
  8  1  1  0  0  0
  1  2  2  0  0  0
  2  3  1  0  0  0
  3  4  2  0  0  0
  4  5  1  0  0  0
  4  6  1  0  0  0
  6 21  1  0  0  0
 21 23  1  0  0  0
 23 24  2  0  0  0
 24 25  1  0  0  0
 25 26  2  0  0  0
 26 27  1  0  0  0
 27 29  1  0  0  0
 29 30  1  0  0  0
 30 31  2  0  0  0
 30 33  1  0  0  0
 33 34  2  0  0  0
 27 28  2  0  0  0
  6  7  2  0  0  0
 18 19  1  0  0  0
 19 20  2  0  0  0
 20 11  1  0  0  0
 20 15  1  0  0  0
  7  1  1  0  0  0
 28 23  1  0  0  0
  8  9  1  0  0  0
 21 22  1  0  0  0
 29 32  1  0  0  0
M  END
> <minimizedAffinity>
-7.83457

> <CNNscore>
0.8138860464

> <CNNaffinity>
7.3028755188

> <CNN_VS>
5.9437084198

> <CNNaffinity_variance>
0.1179985851

$$$$
[H]C([H])=C([H])C(=O)N([H])c1c([H])c([H])c([H])c(N([H])c2nc(N([H])c3c([H])c([H])c4c(c3[H])N(C([H])([H])[H])C([H])([H])C([H])([H])O4)nc([H])c2F)c1[H]


 34 37  0  0  0  0  0  0  0  0999 V2000
   -0.9982  -54.0753  -21.2621 C   0  0  0  0  0  0  0  0  0  0  0  0
   -1.5820  -55.0300  -22.0117 N   0  0  0  0  0  0  0  0  0  0  0  0
   -1.4045  -55.1240  -23.3324 C   0  0  0  0  0  0  0  0  0  0  0  0
   -0.6032  -54.2305  -23.9820 C   0  0  0  0  0  0  0  0  0  0  0  0
   -0.3753  -54.2616  -25.3137 F   0  0  0  0  0  0  0  0  0  0  0  0
    0.0277  -53.2112  -23.2216 C   0  0  0  0  0  0  0  0  0  0  0  0
   -0.1978  -53.1830  -21.9110 N   0  0  0  0  0  0  0  0  0  0  0  0
   -1.1379  -53.9067  -19.8805 N   0  0  0  0  0  0  0  0  0  0  0  0
   -1.7778  -54.5762  -19.3576 H   0  0  0  0  0  0  0  0  0  0  0  0
   -2.0822  -51.3343  -15.5772 C   0  0  0  0  0  0  0  0  0  0  0  0
   -0.7237  -50.9815  -15.9379 N   0  0  0  0  0  0  0  0  0  0  0  0
    0.0696  -50.1956  -15.0275 C   0  0  0  0  0  0  0  0  0  0  0  0
    1.3795  -49.7396  -15.5663 C   0  0  0  0  0  0  0  0  0  0  0  0
    1.5170  -49.8868  -16.9615 O   0  0  0  0  0  0  0  0  0  0  0  0
    0.8996  -50.8692  -17.6979 C   0  0  0  0  0  0  0  0  0  0  0  0
    1.3422  -51.3315  -18.9160 C   0  0  0  0  0  0  0  0  0  0  0  0
    0.6733  -52.3177  -19.5971 C   0  0  0  0  0  0  0  0  0  0  0  0
   -0.4993  -52.9199  -19.1039 C   0  0  0  0  0  0  0  0  0  0  0  0
   -0.9389  -52.4563  -17.8885 C   0  0  0  0  0  0  0  0  0  0  0  0
   -0.2422  -51.4422  -17.1986 C   0  0  0  0  0  0  0  0  0  0  0  0
    0.8663  -52.2972  -23.8722 N   0  0  0  0  0  0  0  0  0  0  0  0
    0.3945  -51.6248  -24.5463 H   0  0  0  0  0  0  0  0  0  0  0  0
    2.2639  -52.1881  -23.7050 C   0  0  0  0  0  0  0  0  0  0  0  0
    3.2044  -52.5284  -24.6441 C   0  0  0  0  0  0  0  0  0  0  0  0
    4.5785  -52.3816  -24.4289 C   0  0  0  0  0  0  0  0  0  0  0  0
    4.9464  -51.8749  -23.2151 C   0  0  0  0  0  0  0  0  0  0  0  0
    4.0437  -51.5077  -22.2098 C   0  0  0  0  0  0  0  0  0  0  0  0
    2.7125  -51.6687  -22.4692 C   0  0  0  0  0  0  0  0  0  0  0  0
    4.5631  -50.9851  -20.9962 N   0  0  0  0  0  0  0  0  0  0  0  0
    4.6598  -49.6380  -20.6524 C   0  0  0  0  0  0  0  0  0  0  0  0
    4.2852  -48.7125  -21.3930 O   0  0  0  0  0  0  0  0  0  0  0  0
    4.9180  -51.6849  -20.2752 H   0  0  0  0  0  0  0  0  0  0  0  0
    5.2269  -49.2229  -19.3556 C   0  0  0  0  0  0  0  0  0  0  0  0
    4.4913  -48.4917  -18.5524 C   0  0  0  0  0  0  0  0  0  0  0  0
 10 11  1  0  0  0
 11 12  1  0  0  0
 12 13  1  0  0  0
 13 14  1  0  0  0
 14 15  1  0  0  0
 15 16  2  0  0  0
 16 17  1  0  0  0
 17 18  2  0  0  0
 18  8  1  0  0  0
  8  1  1  0  0  0
  1  2  2  0  0  0
  2  3  1  0  0  0
  3  4  2  0  0  0
  4  5  1  0  0  0
  4  6  1  0  0  0
  6 21  1  0  0  0
 21 23  1  0  0  0
 23 24  2  0  0  0
 24 25  1  0  0  0
 25 26  2  0  0  0
 26 27  1  0  0  0
 27 29  1  0  0  0
 29 30  1  0  0  0
 30 31  2  0  0  0
 30 33  1  0  0  0
 33 34  2  0  0  0
 27 28  2  0  0  0
  6  7  2  0  0  0
 18 19  1  0  0  0
 19 20  2  0  0  0
 20 11  1  0  0  0
 20 15  1  0  0  0
  7  1  1  0  0  0
 28 23  1  0  0  0
  8  9  1  0  0  0
 21 22  1  0  0  0
 29 32  1  0  0  0
M  END
> <minimizedAffinity>
-7.86559

> <CNNscore>
0.7505744696

> <CNNaffinity>
7.1155481339

> <CNN_VS>
5.3407487869

> <CNNaffinity_variance>
0.0340453163

$$$$
[H]C([H])=C([H])C(=O)N([H])c1c([H])c([H])c([H])c(N([H])c2nc(N([H])c3c([H])c([H])c4c(c3[H])N(C([H])([H])[H])C([H])([H])C([H])([H])O4)nc([H])c2F)c1[H]


 34 37  0  0  0  0  0  0  0  0999 V2000
   -0.7724  -53.7116  -21.2946 C   0  0  0  0  0  0  0  0  0  0  0  0
   -1.6478  -53.9174  -20.2919 N   0  0  0  0  0  0  0  0  0  0  0  0
   -1.5181  -53.3509  -19.0890 C   0  0  0  0  0  0  0  0  0  0  0  0
   -0.4649  -52.5223  -18.8311 C   0  0  0  0  0  0  0  0  0  0  0  0
   -0.2671  -51.9134  -17.6410 F   0  0  0  0  0  0  0  0  0  0  0  0
    0.4766  -52.2838  -19.8664 C   0  0  0  0  0  0  0  0  0  0  0  0
    0.2795  -52.8839  -21.0369 N   0  0  0  0  0  0  0  0  0  0  0  0
   -0.8347  -54.2701  -22.5756 N   0  0  0  0  0  0  0  0  0  0  0  0
   -1.3773  -55.1764  -22.6998 H   0  0  0  0  0  0  0  0  0  0  0  0
    3.8165  -52.7840  -24.0540 C   0  0  0  0  0  0  0  0  0  0  0  0
    3.0030  -52.7266  -25.2518 N   0  0  0  0  0  0  0  0  0  0  0  0
    3.6290  -52.4557  -26.5210 C   0  0  0  0  0  0  0  0  0  0  0  0
    2.6884  -52.2421  -27.6540 C   0  0  0  0  0  0  0  0  0  0  0  0
    1.3477  -52.0430  -27.2667 O   0  0  0  0  0  0  0  0  0  0  0  0
    0.7810  -52.5895  -26.1403 C   0  0  0  0  0  0  0  0  0  0  0  0
   -0.5661  -52.8113  -25.9687 C   0  0  0  0  0  0  0  0  0  0  0  0
   -1.0628  -53.3624  -24.8139 C   0  0  0  0  0  0  0  0  0  0  0  0
   -0.2393  -53.7359  -23.7354 C   0  0  0  0  0  0  0  0  0  0  0  0
    1.1043  -53.5129  -23.9092 C   0  0  0  0  0  0  0  0  0  0  0  0
    1.6021  -52.9460  -25.1011 C   0  0  0  0  0  0  0  0  0  0  0  0
    1.5536  -51.4223  -19.6215 N   0  0  0  0  0  0  0  0  0  0  0  0
    2.0247  -51.5174  -18.6738 H   0  0  0  0  0  0  0  0  0  0  0  0
    2.0656  -50.4579  -20.5165 C   0  0  0  0  0  0  0  0  0  0  0  0
    1.3885  -49.3514  -20.9633 C   0  0  0  0  0  0  0  0  0  0  0  0
    1.9543  -48.4183  -21.8380 C   0  0  0  0  0  0  0  0  0  0  0  0
    3.2372  -48.6669  -22.2351 C   0  0  0  0  0  0  0  0  0  0  0  0
    3.9877  -49.7743  -21.8219 C   0  0  0  0  0  0  0  0  0  0  0  0
    3.3910  -50.6557  -20.9662 C   0  0  0  0  0  0  0  0  0  0  0  0
    5.3159  -49.9064  -22.3059 N   0  0  0  0  0  0  0  0  0  0  0  0
    6.4838  -49.6345  -21.5958 C   0  0  0  0  0  0  0  0  0  0  0  0
    6.4936  -49.2371  -20.4180 O   0  0  0  0  0  0  0  0  0  0  0  0
    5.4389  -50.2424  -23.3097 H   0  0  0  0  0  0  0  0  0  0  0  0
    7.8099  -49.8079  -22.2178 C   0  0  0  0  0  0  0  0  0  0  0  0
    7.8741  -50.2719  -23.4432 C   0  0  0  0  0  0  0  0  0  0  0  0
 10 11  1  0  0  0
 11 12  1  0  0  0
 12 13  1  0  0  0
 13 14  1  0  0  0
 14 15  1  0  0  0
 15 16  2  0  0  0
 16 17  1  0  0  0
 17 18  2  0  0  0
 18  8  1  0  0  0
  8  1  1  0  0  0
  1  2  2  0  0  0
  2  3  1  0  0  0
  3  4  2  0  0  0
  4  5  1  0  0  0
  4  6  1  0  0  0
  6 21  1  0  0  0
 21 23  1  0  0  0
 23 24  2  0  0  0
 24 25  1  0  0  0
 25 26  2  0  0  0
 26 27  1  0  0  0
 27 29  1  0  0  0
 29 30  1  0  0  0
 30 31  2  0  0  0
 30 33  1  0  0  0
 33 34  2  0  0  0
 27 28  2  0  0  0
  6  7  2  0  0  0
 18 19  1  0  0  0
 19 20  2  0  0  0
 20 11  1  0  0  0
 20 15  1  0  0  0
  7  1  1  0  0  0
 28 23  1  0  0  0
  8  9  1  0  0  0
 21 22  1  0  0  0
 29 32  1  0  0  0
M  END
> <minimizedAffinity>
-6.85274

> <CNNscore>
0.5115234852

> <CNNaffinity>
7.1106057167

> <CNN_VS>
3.6372418404

> <CNNaffinity_variance>
0.1784979403

$$$$
[H]C([H])=C([H])C(=O)N([H])c1c([H])c([H])c([H])c(N([H])c2nc(N([H])c3c([H])c([H])c4c(c3[H])N(C([H])([H])[H])C([H])([H])C([H])([H])O4)nc([H])c2F)c1[H]


 34 37  0  0  0  0  0  0  0  0999 V2000
    2.0121  -49.5943  -20.5136 C   0  0  0  0  0  0  0  0  0  0  0  0
    1.9133  -48.3057  -20.1341 N   0  0  0  0  0  0  0  0  0  0  0  0
    2.4924  -47.3062  -20.8052 C   0  0  0  0  0  0  0  0  0  0  0  0
    3.2227  -47.5666  -21.9282 C   0  0  0  0  0  0  0  0  0  0  0  0
    3.8365  -46.6098  -22.6590 F   0  0  0  0  0  0  0  0  0  0  0  0
    3.3471  -48.9144  -22.3560 C   0  0  0  0  0  0  0  0  0  0  0  0
    2.7417  -49.8542  -21.6353 N   0  0  0  0  0  0  0  0  0  0  0  0
    1.4426  -50.6945  -19.8642 N   0  0  0  0  0  0  0  0  0  0  0  0
    1.5224  -50.7460  -18.8049 H   0  0  0  0  0  0  0  0  0  0  0  0
   -0.1034  -51.8930  -24.5760 C   0  0  0  0  0  0  0  0  0  0  0  0
   -0.3632  -53.0762  -23.7808 N   0  0  0  0  0  0  0  0  0  0  0  0
   -0.8006  -54.2851  -24.4313 C   0  0  0  0  0  0  0  0  0  0  0  0
   -1.2091  -55.3820  -23.5127 C   0  0  0  0  0  0  0  0  0  0  0  0
   -1.3894  -54.9814  -22.1732 O   0  0  0  0  0  0  0  0  0  0  0  0
   -0.6991  -53.9542  -21.5758 C   0  0  0  0  0  0  0  0  0  0  0  0
   -0.4957  -53.8297  -20.2207 C   0  0  0  0  0  0  0  0  0  0  0  0
    0.2055  -52.7744  -19.6927 C   0  0  0  0  0  0  0  0  0  0  0  0
    0.7603  -51.7563  -20.4904 C   0  0  0  0  0  0  0  0  0  0  0  0
    0.5554  -51.8828  -21.8422 C   0  0  0  0  0  0  0  0  0  0  0  0
   -0.1670  -52.9724  -22.3721 C   0  0  0  0  0  0  0  0  0  0  0  0
    4.0798  -49.1952  -23.5163 N   0  0  0  0  0  0  0  0  0  0  0  0
    4.4145  -48.3555  -24.0748 H   0  0  0  0  0  0  0  0  0  0  0  0
    4.4147  -50.4800  -23.9963 C   0  0  0  0  0  0  0  0  0  0  0  0
    5.5803  -51.1501  -23.7232 C   0  0  0  0  0  0  0  0  0  0  0  0
    5.8506  -52.4318  -24.2132 C   0  0  0  0  0  0  0  0  0  0  0  0
    4.8806  -52.9947  -24.9927 C   0  0  0  0  0  0  0  0  0  0  0  0
    3.6691  -52.3705  -25.3138 C   0  0  0  0  0  0  0  0  0  0  0  0
    3.4519  -51.1200  -24.8097 C   0  0  0  0  0  0  0  0  0  0  0  0
    2.7440  -53.0746  -26.1288 N   0  0  0  0  0  0  0  0  0  0  0  0
    2.4535  -52.8092  -27.4657 C   0  0  0  0  0  0  0  0  0  0  0  0
    2.9935  -51.8987  -28.1173 O   0  0  0  0  0  0  0  0  0  0  0  0
    2.2148  -53.8835  -25.6803 H   0  0  0  0  0  0  0  0  0  0  0  0
    1.4626  -53.6154  -28.2032 C   0  0  0  0  0  0  0  0  0  0  0  0
    0.3960  -53.0190  -28.6803 C   0  0  0  0  0  0  0  0  0  0  0  0
 10 11  1  0  0  0
 11 12  1  0  0  0
 12 13  1  0  0  0
 13 14  1  0  0  0
 14 15  1  0  0  0
 15 16  2  0  0  0
 16 17  1  0  0  0
 17 18  2  0  0  0
 18  8  1  0  0  0
  8  1  1  0  0  0
  1  2  2  0  0  0
  2  3  1  0  0  0
  3  4  2  0  0  0
  4  5  1  0  0  0
  4  6  1  0  0  0
  6 21  1  0  0  0
 21 23  1  0  0  0
 23 24  2  0  0  0
 24 25  1  0  0  0
 25 26  2  0  0  0
 26 27  1  0  0  0
 27 29  1  0  0  0
 29 30  1  0  0  0
 30 31  2  0  0  0
 30 33  1  0  0  0
 33 34  2  0  0  0
 27 28  2  0  0  0
  6  7  2  0  0  0
 18 19  1  0  0  0
 19 20  2  0  0  0
 20 11  1  0  0  0
 20 15  1  0  0  0
  7  1  1  0  0  0
 28 23  1  0  0  0
  8  9  1  0  0  0
 21 22  1  0  0  0
 29 32  1  0  0  0
M  END
> <minimizedAffinity>
-7.40253

> <CNNscore>
0.3313385248

> <CNNaffinity>
7.0724358559

> <CNN_VS>
2.3433704376

> <CNNaffinity_variance>
0.0801736861

$$$$
[H]C([H])=C([H])C(=O)N([H])c1c([H])c([H])c([H])c(N([H])c2nc(N([H])c3c([H])c([H])c4c(c3[H])N(C([H])([H])[H])C([H])([H])C([H])([H])O4)nc([H])c2F)c1[H]


 34 37  0  0  0  0  0  0  0  0999 V2000
    0.0519  -53.3904  -23.8855 C   0  0  0  0  0  0  0  0  0  0  0  0
   -0.6537  -53.7938  -24.9596 N   0  0  0  0  0  0  0  0  0  0  0  0
   -0.1526  -53.7927  -26.1980 C   0  0  0  0  0  0  0  0  0  0  0  0
    1.1262  -53.3710  -26.4200 C   0  0  0  0  0  0  0  0  0  0  0  0
    1.7018  -53.3416  -27.6424 F   0  0  0  0  0  0  0  0  0  0  0  0
    1.8978  -52.9390  -25.3095 C   0  0  0  0  0  0  0  0  0  0  0  0
    1.3292  -52.9692  -24.1075 N   0  0  0  0  0  0  0  0  0  0  0  0
   -0.4012  -53.3561  -22.5626 N   0  0  0  0  0  0  0  0  0  0  0  0
   -1.0769  -54.1141  -22.2460 H   0  0  0  0  0  0  0  0  0  0  0  0
   -1.0205  -52.6872  -17.5430 C   0  0  0  0  0  0  0  0  0  0  0  0
   -0.1113  -51.6366  -17.9548 N   0  0  0  0  0  0  0  0  0  0  0  0
    0.5072  -50.8030  -16.9556 C   0  0  0  0  0  0  0  0  0  0  0  0
    1.2784  -49.6477  -17.4890 C   0  0  0  0  0  0  0  0  0  0  0  0
    1.0453  -49.3729  -18.8518 O   0  0  0  0  0  0  0  0  0  0  0  0
    0.7119  -50.3253  -19.7846 C   0  0  0  0  0  0  0  0  0  0  0  0
    0.9255  -50.2057  -21.1386 C   0  0  0  0  0  0  0  0  0  0  0  0
    0.5660  -51.1999  -22.0140 C   0  0  0  0  0  0  0  0  0  0  0  0
   -0.0395  -52.3990  -21.5941 C   0  0  0  0  0  0  0  0  0  0  0  0
   -0.2519  -52.5154  -20.2426 C   0  0  0  0  0  0  0  0  0  0  0  0
    0.1223  -51.4863  -19.3535 C   0  0  0  0  0  0  0  0  0  0  0  0
    3.2174  -52.5192  -25.5199 N   0  0  0  0  0  0  0  0  0  0  0  0
    3.7091  -52.9246  -26.3702 H   0  0  0  0  0  0  0  0  0  0  0  0
    3.9376  -51.6096  -24.7155 C   0  0  0  0  0  0  0  0  0  0  0  0
    5.2104  -51.8046  -24.2417 C   0  0  0  0  0  0  0  0  0  0  0  0
    5.8824  -50.8580  -23.4618 C   0  0  0  0  0  0  0  0  0  0  0  0
    5.1972  -49.7087  -23.1877 C   0  0  0  0  0  0  0  0  0  0  0  0
    3.8977  -49.4421  -23.6355 C   0  0  0  0  0  0  0  0  0  0  0  0
    3.2849  -50.3973  -24.3952 C   0  0  0  0  0  0  0  0  0  0  0  0
    3.3055  -48.2006  -23.2836 N   0  0  0  0  0  0  0  0  0  0  0  0
    3.3419  -47.0268  -24.0340 C   0  0  0  0  0  0  0  0  0  0  0  0
    3.9124  -46.9338  -25.1345 O   0  0  0  0  0  0  0  0  0  0  0  0
    2.7836  -48.1539  -22.3556 H   0  0  0  0  0  0  0  0  0  0  0  0
    2.6881  -45.7956  -23.5522 C   0  0  0  0  0  0  0  0  0  0  0  0
    2.0326  -45.0534  -24.4127 C   0  0  0  0  0  0  0  0  0  0  0  0
 10 11  1  0  0  0
 11 12  1  0  0  0
 12 13  1  0  0  0
 13 14  1  0  0  0
 14 15  1  0  0  0
 15 16  2  0  0  0
 16 17  1  0  0  0
 17 18  2  0  0  0
 18  8  1  0  0  0
  8  1  1  0  0  0
  1  2  2  0  0  0
  2  3  1  0  0  0
  3  4  2  0  0  0
  4  5  1  0  0  0
  4  6  1  0  0  0
  6 21  1  0  0  0
 21 23  1  0  0  0
 23 24  2  0  0  0
 24 25  1  0  0  0
 25 26  2  0  0  0
 26 27  1  0  0  0
 27 29  1  0  0  0
 29 30  1  0  0  0
 30 31  2  0  0  0
 30 33  1  0  0  0
 33 34  2  0  0  0
 27 28  2  0  0  0
  6  7  2  0  0  0
 18 19  1  0  0  0
 19 20  2  0  0  0
 20 11  1  0  0  0
 20 15  1  0  0  0
  7  1  1  0  0  0
 28 23  1  0  0  0
  8  9  1  0  0  0
 21 22  1  0  0  0
 29 32  1  0  0  0
M  END
> <minimizedAffinity>
-7.47628

> <CNNscore>
0.2809972763

> <CNNaffinity>
6.8465690613

> <CNN_VS>
1.9238672256

> <CNNaffinity_variance>
0.3540402055

$$$$
[H]C([H])=C([H])C(=O)N([H])c1c([H])c([H])c([H])c(N([H])c2nc(N([H])c3c([H])c([H])c4c(c3[H])N(C([H])([H])[H])C([H])([H])C([H])([H])O4)nc([H])c2F)c1[H]


 34 37  0  0  0  0  0  0  0  0999 V2000
   -0.0272  -52.9945  -19.1294 C   0  0  0  0  0  0  0  0  0  0  0  0
   -0.7389  -53.0277  -17.9863 N   0  0  0  0  0  0  0  0  0  0  0  0
   -0.8416  -51.9783  -17.1659 C   0  0  0  0  0  0  0  0  0  0  0  0
   -0.2109  -50.8066  -17.4689 C   0  0  0  0  0  0  0  0  0  0  0  0
   -0.2685  -49.7038  -16.6899 F   0  0  0  0  0  0  0  0  0  0  0  0
    0.5479  -50.7376  -18.6666 C   0  0  0  0  0  0  0  0  0  0  0  0
    0.6027  -51.8241  -19.4318 N   0  0  0  0  0  0  0  0  0  0  0  0
    0.1335  -54.0482  -20.0353 N   0  0  0  0  0  0  0  0  0  0  0  0
    0.4504  -54.9898  -19.6556 H   0  0  0  0  0  0  0  0  0  0  0  0
    1.4757  -51.0003  -23.9001 C   0  0  0  0  0  0  0  0  0  0  0  0
    0.8064  -52.1255  -24.5212 N   0  0  0  0  0  0  0  0  0  0  0  0
    0.7977  -52.2400  -25.9575 C   0  0  0  0  0  0  0  0  0  0  0  0
   -0.0632  -53.3270  -26.4972 C   0  0  0  0  0  0  0  0  0  0  0  0
   -0.9582  -53.8796  -25.5588 O   0  0  0  0  0  0  0  0  0  0  0  0
   -0.7115  -53.9542  -24.2089 C   0  0  0  0  0  0  0  0  0  0  0  0
   -1.2993  -54.8569  -23.3529 C   0  0  0  0  0  0  0  0  0  0  0  0
   -1.0046  -54.8737  -22.0124 C   0  0  0  0  0  0  0  0  0  0  0  0
   -0.0906  -53.9794  -21.4245 C   0  0  0  0  0  0  0  0  0  0  0  0
    0.4940  -53.0795  -22.2810 C   0  0  0  0  0  0  0  0  0  0  0  0
    0.1826  -53.0727  -23.6568 C   0  0  0  0  0  0  0  0  0  0  0  0
    1.1869  -49.5363  -18.9990 N   0  0  0  0  0  0  0  0  0  0  0  0
    0.7332  -48.6469  -18.6354 H   0  0  0  0  0  0  0  0  0  0  0  0
    2.3706  -49.4078  -19.7577 C   0  0  0  0  0  0  0  0  0  0  0  0
    3.6082  -49.8650  -19.3810 C   0  0  0  0  0  0  0  0  0  0  0  0
    4.7448  -49.7248  -20.1837 C   0  0  0  0  0  0  0  0  0  0  0  0
    4.5606  -49.0976  -21.3829 C   0  0  0  0  0  0  0  0  0  0  0  0
    3.3294  -48.6048  -21.8318 C   0  0  0  0  0  0  0  0  0  0  0  0
    2.2492  -48.7677  -21.0121 C   0  0  0  0  0  0  0  0  0  0  0  0
    3.2779  -47.9803  -23.1059 N   0  0  0  0  0  0  0  0  0  0  0  0
    3.1790  -46.6119  -23.3506 C   0  0  0  0  0  0  0  0  0  0  0  0
    3.1279  -45.7561  -22.4505 O   0  0  0  0  0  0  0  0  0  0  0  0
    3.3148  -48.6136  -23.9621 H   0  0  0  0  0  0  0  0  0  0  0  0
    3.1286  -46.0875  -24.7283 C   0  0  0  0  0  0  0  0  0  0  0  0
    2.9764  -44.7966  -24.9048 C   0  0  0  0  0  0  0  0  0  0  0  0
 10 11  1  0  0  0
 11 12  1  0  0  0
 12 13  1  0  0  0
 13 14  1  0  0  0
 14 15  1  0  0  0
 15 16  2  0  0  0
 16 17  1  0  0  0
 17 18  2  0  0  0
 18  8  1  0  0  0
  8  1  1  0  0  0
  1  2  2  0  0  0
  2  3  1  0  0  0
  3  4  2  0  0  0
  4  5  1  0  0  0
  4  6  1  0  0  0
  6 21  1  0  0  0
 21 23  1  0  0  0
 23 24  2  0  0  0
 24 25  1  0  0  0
 25 26  2  0  0  0
 26 27  1  0  0  0
 27 29  1  0  0  0
 29 30  1  0  0  0
 30 31  2  0  0  0
 30 33  1  0  0  0
 33 34  2  0  0  0
 27 28  2  0  0  0
  6  7  2  0  0  0
 18 19  1  0  0  0
 19 20  2  0  0  0
 20 11  1  0  0  0
 20 15  1  0  0  0
  7  1  1  0  0  0
 28 23  1  0  0  0
  8  9  1  0  0  0
 21 22  1  0  0  0
 29 32  1  0  0  0
M  END
> <minimizedAffinity>
-7.44086

> <CNNscore>
0.2329501957

> <CNNaffinity>
6.6464409828

> <CNN_VS>
1.5482897758

> <CNNaffinity_variance>
0.0361764356

$$$$
[H]C([H])=C([H])C(=O)N([H])c1c([H])c([H])c([H])c(N([H])c2nc(N([H])c3c([H])c([H])c4c(c3[H])N(C([H])([H])[H])C([H])([H])C([H])([H])O4)nc([H])c2F)c1[H]


 34 37  0  0  0  0  0  0  0  0999 V2000
    0.0204  -52.8702  -19.3123 C   0  0  0  0  0  0  0  0  0  0  0  0
   -0.6848  -52.7341  -18.1728 N   0  0  0  0  0  0  0  0  0  0  0  0
   -0.6320  -51.6354  -17.4147 C   0  0  0  0  0  0  0  0  0  0  0  0
    0.1604  -50.5866  -17.7815 C   0  0  0  0  0  0  0  0  0  0  0  0
    0.2654  -49.4440  -17.0675 F   0  0  0  0  0  0  0  0  0  0  0  0
    0.9172  -50.6971  -18.9774 C   0  0  0  0  0  0  0  0  0  0  0  0
    0.8118  -51.8225  -19.6785 N   0  0  0  0  0  0  0  0  0  0  0  0
    0.0240  -53.9865  -20.1553 N   0  0  0  0  0  0  0  0  0  0  0  0
    0.1573  -54.9452  -19.7144 H   0  0  0  0  0  0  0  0  0  0  0  0
    1.4885  -51.0220  -24.0405 C   0  0  0  0  0  0  0  0  0  0  0  0
    0.8685  -52.1765  -24.6590 N   0  0  0  0  0  0  0  0  0  0  0  0
    0.9280  -52.3309  -26.0903 C   0  0  0  0  0  0  0  0  0  0  0  0
    0.1122  -53.4486  -26.6374 C   0  0  0  0  0  0  0  0  0  0  0  0
   -0.8151  -53.9919  -25.7253 O   0  0  0  0  0  0  0  0  0  0  0  0
   -0.6295  -54.0243  -24.3640 C   0  0  0  0  0  0  0  0  0  0  0  0
   -1.2400  -54.9140  -23.5102 C   0  0  0  0  0  0  0  0  0  0  0  0
   -1.0071  -54.8880  -22.1577 C   0  0  0  0  0  0  0  0  0  0  0  0
   -0.1371  -53.9605  -21.5547 C   0  0  0  0  0  0  0  0  0  0  0  0
    0.4703  -53.0737  -22.4090 C   0  0  0  0  0  0  0  0  0  0  0  0
    0.2224  -53.1110  -23.7972 C   0  0  0  0  0  0  0  0  0  0  0  0
    1.7221  -49.6220  -19.3751 N   0  0  0  0  0  0  0  0  0  0  0  0
    1.2900  -48.6551  -19.2892 H   0  0  0  0  0  0  0  0  0  0  0  0
    3.0431  -49.7106  -19.8654 C   0  0  0  0  0  0  0  0  0  0  0  0
    3.4085  -50.2656  -21.0658 C   0  0  0  0  0  0  0  0  0  0  0  0
    4.7344  -50.3095  -21.5084 C   0  0  0  0  0  0  0  0  0  0  0  0
    5.6662  -49.7643  -20.6718 C   0  0  0  0  0  0  0  0  0  0  0  0
    5.3672  -49.1831  -19.4337 C   0  0  0  0  0  0  0  0  0  0  0  0
    4.0575  -49.1633  -19.0471 C   0  0  0  0  0  0  0  0  0  0  0  0
    6.4341  -48.6451  -18.6669 N   0  0  0  0  0  0  0  0  0  0  0  0
    6.8338  -47.3104  -18.6316 C   0  0  0  0  0  0  0  0  0  0  0  0
    6.2790  -46.4108  -19.2860 O   0  0  0  0  0  0  0  0  0  0  0  0
    6.9894  -49.3223  -18.0598 H   0  0  0  0  0  0  0  0  0  0  0  0
    7.9676  -46.8780  -17.7931 C   0  0  0  0  0  0  0  0  0  0  0  0
    8.4070  -45.6480  -17.9151 C   0  0  0  0  0  0  0  0  0  0  0  0
 10 11  1  0  0  0
 11 12  1  0  0  0
 12 13  1  0  0  0
 13 14  1  0  0  0
 14 15  1  0  0  0
 15 16  2  0  0  0
 16 17  1  0  0  0
 17 18  2  0  0  0
 18  8  1  0  0  0
  8  1  1  0  0  0
  1  2  2  0  0  0
  2  3  1  0  0  0
  3  4  2  0  0  0
  4  5  1  0  0  0
  4  6  1  0  0  0
  6 21  1  0  0  0
 21 23  1  0  0  0
 23 24  2  0  0  0
 24 25  1  0  0  0
 25 26  2  0  0  0
 26 27  1  0  0  0
 27 29  1  0  0  0
 29 30  1  0  0  0
 30 31  2  0  0  0
 30 33  1  0  0  0
 33 34  2  0  0  0
 27 28  2  0  0  0
  6  7  2  0  0  0
 18 19  1  0  0  0
 19 20  2  0  0  0
 20 11  1  0  0  0
 20 15  1  0  0  0
  7  1  1  0  0  0
 28 23  1  0  0  0
  8  9  1  0  0  0
 21 22  1  0  0  0
 29 32  1  0  0  0
M  END
> <minimizedAffinity>
-7.35138

> <CNNscore>
0.2297185510

> <CNNaffinity>
6.6470146179

> <CNN_VS>
1.5269426107

> <CNNaffinity_variance>
0.1599319130

$$$$
[H]C([H])=C([H])C(=O)N([H])c1c([H])c([H])c([H])c(N([H])c2nc(N([H])c3c([H])c([H])c4c(c3[H])N(C([H])([H])[H])C([H])([H])C([H])([H])O4)nc([H])c2F)c1[H]


 34 37  0  0  0  0  0  0  0  0999 V2000
   -0.4718  -52.2359  -18.0671 C   0  0  0  0  0  0  0  0  0  0  0  0
   -1.2888  -52.2608  -16.9965 N   0  0  0  0  0  0  0  0  0  0  0  0
   -1.3424  -51.2695  -16.1027 C   0  0  0  0  0  0  0  0  0  0  0  0
   -0.5488  -50.1691  -16.2504 C   0  0  0  0  0  0  0  0  0  0  0  0
   -0.5475  -49.1277  -15.3892 F   0  0  0  0  0  0  0  0  0  0  0  0
    0.3244  -50.1108  -17.3681 C   0  0  0  0  0  0  0  0  0  0  0  0
    0.3209  -51.1368  -18.2145 N   0  0  0  0  0  0  0  0  0  0  0  0
   -0.3531  -53.2327  -19.0413 N   0  0  0  0  0  0  0  0  0  0  0  0
   -0.6098  -54.2288  -18.7708 H   0  0  0  0  0  0  0  0  0  0  0  0
   -1.3361  -55.2310  -23.6313 C   0  0  0  0  0  0  0  0  0  0  0  0
   -0.4818  -54.0897  -23.8911 N   0  0  0  0  0  0  0  0  0  0  0  0
   -0.2386  -53.6820  -25.2515 C   0  0  0  0  0  0  0  0  0  0  0  0
    0.7881  -52.6176  -25.4157 C   0  0  0  0  0  0  0  0  0  0  0  0
    1.5702  -52.3824  -24.2668 O   0  0  0  0  0  0  0  0  0  0  0  0
    1.1229  -52.5602  -22.9796 C   0  0  0  0  0  0  0  0  0  0  0  0
    1.6464  -51.9313  -21.8734 C   0  0  0  0  0  0  0  0  0  0  0  0
    1.1483  -52.1575  -20.6146 C   0  0  0  0  0  0  0  0  0  0  0  0
    0.0787  -53.0384  -20.3681 C   0  0  0  0  0  0  0  0  0  0  0  0
   -0.4413  -53.6650  -21.4737 C   0  0  0  0  0  0  0  0  0  0  0  0
    0.0797  -53.4237  -22.7621 C   0  0  0  0  0  0  0  0  0  0  0  0
    1.1327  -48.9801  -17.5418 N   0  0  0  0  0  0  0  0  0  0  0  0
    0.8301  -48.1027  -17.0245 H   0  0  0  0  0  0  0  0  0  0  0  0
    2.3037  -48.9094  -18.3273 C   0  0  0  0  0  0  0  0  0  0  0  0
    3.4725  -49.5810  -18.0716 C   0  0  0  0  0  0  0  0  0  0  0  0
    4.5975  -49.4861  -18.8970 C   0  0  0  0  0  0  0  0  0  0  0  0
    4.4752  -48.6762  -19.9899 C   0  0  0  0  0  0  0  0  0  0  0  0
    3.3159  -47.9604  -20.3124 C   0  0  0  0  0  0  0  0  0  0  0  0
    2.2440  -48.0876  -19.4758 C   0  0  0  0  0  0  0  0  0  0  0  0
    3.3226  -47.1607  -21.4856 N   0  0  0  0  0  0  0  0  0  0  0  0
    3.0152  -47.5867  -22.7763 C   0  0  0  0  0  0  0  0  0  0  0  0
    2.6851  -48.7527  -23.0534 O   0  0  0  0  0  0  0  0  0  0  0  0
    3.5909  -46.1352  -21.3762 H   0  0  0  0  0  0  0  0  0  0  0  0
    3.0650  -46.6533  -23.9173 C   0  0  0  0  0  0  0  0  0  0  0  0
    2.6638  -45.4174  -23.7370 C   0  0  0  0  0  0  0  0  0  0  0  0
 10 11  1  0  0  0
 11 12  1  0  0  0
 12 13  1  0  0  0
 13 14  1  0  0  0
 14 15  1  0  0  0
 15 16  2  0  0  0
 16 17  1  0  0  0
 17 18  2  0  0  0
 18  8  1  0  0  0
  8  1  1  0  0  0
  1  2  2  0  0  0
  2  3  1  0  0  0
  3  4  2  0  0  0
  4  5  1  0  0  0
  4  6  1  0  0  0
  6 21  1  0  0  0
 21 23  1  0  0  0
 23 24  2  0  0  0
 24 25  1  0  0  0
 25 26  2  0  0  0
 26 27  1  0  0  0
 27 29  1  0  0  0
 29 30  1  0  0  0
 30 31  2  0  0  0
 30 33  1  0  0  0
 33 34  2  0  0  0
 27 28  2  0  0  0
  6  7  2  0  0  0
 18 19  1  0  0  0
 19 20  2  0  0  0
 20 11  1  0  0  0
 20 15  1  0  0  0
  7  1  1  0  0  0
 28 23  1  0  0  0
  8  9  1  0  0  0
 21 22  1  0  0  0
 29 32  1  0  0  0
M  END
> <minimizedAffinity>
-7.05062

> <CNNscore>
0.2158855796

> <CNNaffinity>
6.5647630692

> <CNN_VS>
1.4172376394

> <CNNaffinity_variance>
0.0112646362

$$$$
[H]C([H])=C([H])C(=O)N([H])c1c([H])c([H])c([H])c(N([H])c2nc(N([H])c3c([H])c([H])c4c(c3[H])N(C([H])([H])[H])C([H])([H])C([H])([H])O4)nc([H])c2F)c1[H]


 34 37  0  0  0  0  0  0  0  0999 V2000
   -0.1294  -53.5527  -25.5687 C   0  0  0  0  0  0  0  0  0  0  0  0
   -0.1725  -54.1104  -26.7941 N   0  0  0  0  0  0  0  0  0  0  0  0
    0.7280  -53.8431  -27.7439 C   0  0  0  0  0  0  0  0  0  0  0  0
    1.7489  -52.9723  -27.4956 C   0  0  0  0  0  0  0  0  0  0  0  0
    2.6965  -52.6529  -28.4046 F   0  0  0  0  0  0  0  0  0  0  0  0
    1.8239  -52.3666  -26.2139 C   0  0  0  0  0  0  0  0  0  0  0  0
    0.8903  -52.6828  -25.3209 N   0  0  0  0  0  0  0  0  0  0  0  0
   -1.0344  -53.7754  -24.5256 N   0  0  0  0  0  0  0  0  0  0  0  0
   -2.0005  -54.1454  -24.7725 H   0  0  0  0  0  0  0  0  0  0  0  0
    0.7460  -49.9881  -21.6076 C   0  0  0  0  0  0  0  0  0  0  0  0
    0.2852  -50.9980  -20.6762 N   0  0  0  0  0  0  0  0  0  0  0  0
    0.2634  -50.7039  -19.2659 C   0  0  0  0  0  0  0  0  0  0  0  0
   -0.0547  -51.8611  -18.3863 C   0  0  0  0  0  0  0  0  0  0  0  0
    0.0065  -53.1140  -19.0294 O   0  0  0  0  0  0  0  0  0  0  0  0
   -0.2621  -53.3105  -20.3627 C   0  0  0  0  0  0  0  0  0  0  0  0
   -0.6614  -54.5061  -20.9145 C   0  0  0  0  0  0  0  0  0  0  0  0
   -0.9129  -54.6297  -22.2582 C   0  0  0  0  0  0  0  0  0  0  0  0
   -0.7822  -53.5547  -23.1572 C   0  0  0  0  0  0  0  0  0  0  0  0
   -0.3832  -52.3631  -22.6039 C   0  0  0  0  0  0  0  0  0  0  0  0
   -0.1280  -52.2493  -21.2213 C   0  0  0  0  0  0  0  0  0  0  0  0
    2.8758  -51.4834  -25.9391 N   0  0  0  0  0  0  0  0  0  0  0  0
    2.9463  -50.6280  -26.5654 H   0  0  0  0  0  0  0  0  0  0  0  0
    3.8320  -51.6257  -24.9102 C   0  0  0  0  0  0  0  0  0  0  0  0
    4.9547  -52.4117  -24.9734 C   0  0  0  0  0  0  0  0  0  0  0  0
    5.8784  -52.4999  -23.9269 C   0  0  0  0  0  0  0  0  0  0  0  0
    5.6031  -51.7529  -22.8172 C   0  0  0  0  0  0  0  0  0  0  0  0
    4.4781  -50.9306  -22.6818 C   0  0  0  0  0  0  0  0  0  0  0  0
    3.6068  -50.8774  -23.7322 C   0  0  0  0  0  0  0  0  0  0  0  0
    4.3187  -50.2005  -21.4746 N   0  0  0  0  0  0  0  0  0  0  0  0
    3.9285  -50.7197  -20.2416 C   0  0  0  0  0  0  0  0  0  0  0  0
    3.6723  -51.9215  -20.0536 O   0  0  0  0  0  0  0  0  0  0  0  0
    4.5114  -49.1530  -21.5082 H   0  0  0  0  0  0  0  0  0  0  0  0
    3.7942  -49.8497  -19.0582 C   0  0  0  0  0  0  0  0  0  0  0  0
    3.6966  -50.4078  -17.8750 C   0  0  0  0  0  0  0  0  0  0  0  0
 10 11  1  0  0  0
 11 12  1  0  0  0
 12 13  1  0  0  0
 13 14  1  0  0  0
 14 15  1  0  0  0
 15 16  2  0  0  0
 16 17  1  0  0  0
 17 18  2  0  0  0
 18  8  1  0  0  0
  8  1  1  0  0  0
  1  2  2  0  0  0
  2  3  1  0  0  0
  3  4  2  0  0  0
  4  5  1  0  0  0
  4  6  1  0  0  0
  6 21  1  0  0  0
 21 23  1  0  0  0
 23 24  2  0  0  0
 24 25  1  0  0  0
 25 26  2  0  0  0
 26 27  1  0  0  0
 27 29  1  0  0  0
 29 30  1  0  0  0
 30 31  2  0  0  0
 30 33  1  0  0  0
 33 34  2  0  0  0
 27 28  2  0  0  0
  6  7  2  0  0  0
 18 19  1  0  0  0
 19 20  2  0  0  0
 20 11  1  0  0  0
 20 15  1  0  0  0
  7  1  1  0  0  0
 28 23  1  0  0  0
  8  9  1  0  0  0
 21 22  1  0  0  0
 29 32  1  0  0  0
M  END
> <minimizedAffinity>
-7.68174

> <CNNscore>
0.1951978058

> <CNNaffinity>
6.6811385155

> <CNN_VS>
1.3041435480

> <CNNaffinity_variance>
0.1147705913

$$$$
[H]c1nc(N([H])c2c([H])c([H])c([H])c(Br)c2[H])c2c([H])c(OC([H])([H])C([H])([H])C([H])([H])OP(=O)(N([H])[H])N(C([H])([H])C([H])([H])Cl)C([H])([H])C([H])([H])Cl)c(OC([H])([H])[H])c([H])c2n1


 38 40  0  0  0  0  0  0  0  0999 V2000
   -0.3299  -52.3781  -20.0166 C   0  0  0  0  0  0  0  0  0  0  0  0
   -0.7975  -53.5948  -20.3809 C   0  0  0  0  0  0  0  0  0  0  0  0
   -0.8835  -53.9343  -21.7184 C   0  0  0  0  0  0  0  0  0  0  0  0
   -1.3397  -55.1248  -22.1018 N   0  0  0  0  0  0  0  0  0  0  0  0
   -1.4073  -55.4165  -23.4147 C   0  0  0  0  0  0  0  0  0  0  0  0
   -1.0242  -54.5326  -24.3467 N   0  0  0  0  0  0  0  0  0  0  0  0
   -0.5497  -53.3053  -24.0585 C   0  0  0  0  0  0  0  0  0  0  0  0
   -0.4842  -53.0139  -22.6897 C   0  0  0  0  0  0  0  0  0  0  0  0
   -0.0062  -51.7728  -22.3278 C   0  0  0  0  0  0  0  0  0  0  0  0
    0.0767  -51.4382  -20.9863 C   0  0  0  0  0  0  0  0  0  0  0  0
   -1.0380  -52.6447  -17.7423 C   0  0  0  0  0  0  0  0  0  0  0  0
   -0.2173  -51.9709  -18.6775 O   0  0  0  0  0  0  0  0  0  0  0  0
   -0.1238  -52.4064  -25.0496 N   0  0  0  0  0  0  0  0  0  0  0  0
   -0.7562  -51.8813  -25.7167 H   0  0  0  0  0  0  0  0  0  0  0  0
    1.2563  -52.1206  -25.2405 C   0  0  0  0  0  0  0  0  0  0  0  0
    2.2706  -53.0153  -25.0400 C   0  0  0  0  0  0  0  0  0  0  0  0
    3.6056  -52.6250  -25.2248 C   0  0  0  0  0  0  0  0  0  0  0  0
    3.9369  -51.3438  -25.6111 C   0  0  0  0  0  0  0  0  0  0  0  0
    2.9168  -50.4386  -25.8156 C   0  0  0  0  0  0  0  0  0  0  0  0
    3.4232  -48.6743  -26.3508 Br  0  0  0  0  0  0  0  0  0  0  0  0
    1.6293  -50.8184  -25.6355 C   0  0  0  0  0  0  0  0  0  0  0  0
    0.5393  -50.2264  -20.5981 O   0  0  0  0  0  0  0  0  0  0  0  0
    1.5071  -49.4311  -21.1066 C   0  0  0  0  0  0  0  0  0  0  0  0
    1.8474  -48.1457  -20.4436 C   0  0  0  0  0  0  0  0  0  0  0  0
    2.1516  -48.3068  -18.9628 C   0  0  0  0  0  0  0  0  0  0  0  0
    2.1669  -49.6598  -18.6386 O   0  0  0  0  0  0  0  0  0  0  0  0
    3.3313  -50.0558  -17.5205 P   0  0  0  0  0  0  0  0  0  0  0  0
    4.7312  -49.0367  -17.7385 N   0  0  0  0  0  0  0  0  0  0  0  0
    3.7825  -51.4881  -17.8220 O   0  0  0  0  0  0  0  0  0  0  0  0
    5.2393  -49.3969  -18.5946 H   0  0  0  0  0  0  0  0  0  0  0  0
    4.3825  -48.0731  -17.9452 H   0  0  0  0  0  0  0  0  0  0  0  0
    2.7383  -49.9702  -15.8447 N   0  0  0  0  0  0  0  0  0  0  0  0
    1.6396  -50.7616  -15.7148 C   0  0  0  0  0  0  0  0  0  0  0  0
    0.3503  -50.3040  -15.1400 C   0  0  0  0  0  0  0  0  0  0  0  0
   -0.3322  -49.0728  -16.2910 Cl  0  0  0  0  0  0  0  0  0  0  0  0
    3.2588  -48.9094  -15.2105 C   0  0  0  0  0  0  0  0  0  0  0  0
    4.1659  -48.9047  -14.0440 C   0  0  0  0  0  0  0  0  0  0  0  0
    5.0239  -47.4175  -13.6807 Cl  0  0  0  0  0  0  0  0  0  0  0  0
 11 12  1  0  0  0
 12  1  1  0  0  0
  1  2  2  0  0  0
  2  3  1  0  0  0
  3  4  2  0  0  0
  4  5  1  0  0  0
  5  6  2  0  0  0
  6  7  1  0  0  0
  7 13  1  0  0  0
 13 15  1  0  0  0
 15 16  2  0  0  0
 16 17  1  0  0  0
 17 18  2  0  0  0
 18 19  1  0  0  0
 19 20  1  0  0  0
 19 21  2  0  0  0
  7  8  2  0  0  0
  8  9  1  0  0  0
  9 10  2  0  0  0
 10 22  1  0  0  0
 22 23  1  0  0  0
 23 24  1  0  0  0
 24 25  1  0  0  0
 25 26  1  0  0  0
 26 27  1  0  0  0
 27 28  1  0  0  0
 27 29  2  0  0  0
 27 32  1  0  0  0
 32 33  1  0  0  0
 33 34  1  0  0  0
 34 35  1  0  0  0
 32 36  1  0  0  0
 36 37  1  0  0  0
 37 38  1  0  0  0
 10  1  1  0  0  0
  8  3  1  0  0  0
 21 15  1  0  0  0
 13 14  1  0  0  0
 28 30  1  0  0  0
 28 31  1  0  0  0
M  END
> <minimizedAffinity>
-6.33322

> <CNNscore>
0.8513276577

> <CNNaffinity>
6.9684553146

> <CNN_VS>
5.9324388504

> <CNNaffinity_variance>
0.0271348841

$$$$
[H]c1nc(N([H])c2c([H])c([H])c([H])c(Br)c2[H])c2c([H])c(OC([H])([H])C([H])([H])C([H])([H])OP(=O)(N([H])[H])N(C([H])([H])C([H])([H])Cl)C([H])([H])C([H])([H])Cl)c(OC([H])([H])[H])c([H])c2n1


 38 40  0  0  0  0  0  0  0  0999 V2000
   -0.1431  -51.9068  -19.0736 C   0  0  0  0  0  0  0  0  0  0  0  0
   -0.6174  -53.0897  -19.5292 C   0  0  0  0  0  0  0  0  0  0  0  0
   -0.6154  -53.3636  -20.8843 C   0  0  0  0  0  0  0  0  0  0  0  0
   -1.0763  -54.5197  -21.3569 N   0  0  0  0  0  0  0  0  0  0  0  0
   -1.0565  -54.7478  -22.6839 C   0  0  0  0  0  0  0  0  0  0  0  0
   -0.5815  -53.8341  -23.5421 N   0  0  0  0  0  0  0  0  0  0  0  0
   -0.0945  -52.6374  -23.1613 C   0  0  0  0  0  0  0  0  0  0  0  0
   -0.1204  -52.4122  -21.7787 C   0  0  0  0  0  0  0  0  0  0  0  0
    0.3650  -51.2051  -21.3236 C   0  0  0  0  0  0  0  0  0  0  0  0
    0.3596  -50.9362  -19.9648 C   0  0  0  0  0  0  0  0  0  0  0  0
   -0.9622  -52.3136  -16.8581 C   0  0  0  0  0  0  0  0  0  0  0  0
   -0.1166  -51.5661  -17.7116 O   0  0  0  0  0  0  0  0  0  0  0  0
    0.4279  -51.7073  -24.0745 N   0  0  0  0  0  0  0  0  0  0  0  0
    0.4193  -50.6556  -23.9541 H   0  0  0  0  0  0  0  0  0  0  0  0
    1.0369  -52.1295  -25.2884 C   0  0  0  0  0  0  0  0  0  0  0  0
    2.3682  -52.4043  -25.4358 C   0  0  0  0  0  0  0  0  0  0  0  0
    2.8783  -52.7835  -26.6867 C   0  0  0  0  0  0  0  0  0  0  0  0
    2.0663  -52.8924  -27.7953 C   0  0  0  0  0  0  0  0  0  0  0  0
    0.7227  -52.6174  -27.6506 C   0  0  0  0  0  0  0  0  0  0  0  0
   -0.3650  -52.7819  -29.2144 Br  0  0  0  0  0  0  0  0  0  0  0  0
    0.2336  -52.2508  -26.4420 C   0  0  0  0  0  0  0  0  0  0  0  0
    0.8271  -49.7592  -19.4860 O   0  0  0  0  0  0  0  0  0  0  0  0
    2.0156  -49.1348  -19.6456 C   0  0  0  0  0  0  0  0  0  0  0  0
    2.1162  -47.9179  -20.4920 C   0  0  0  0  0  0  0  0  0  0  0  0
    2.8106  -48.1769  -21.8194 C   0  0  0  0  0  0  0  0  0  0  0  0
    3.9002  -47.3211  -21.9458 O   0  0  0  0  0  0  0  0  0  0  0  0
    5.3559  -48.1178  -22.0408 P   0  0  0  0  0  0  0  0  0  0  0  0
    5.8005  -48.7263  -20.4666 N   0  0  0  0  0  0  0  0  0  0  0  0
    6.4168  -47.0819  -22.4244 O   0  0  0  0  0  0  0  0  0  0  0  0
    6.1386  -47.8957  -19.9039 H   0  0  0  0  0  0  0  0  0  0  0  0
    4.9294  -49.0925  -20.0198 H   0  0  0  0  0  0  0  0  0  0  0  0
    5.3513  -49.4247  -23.2487 N   0  0  0  0  0  0  0  0  0  0  0  0
    5.7152  -50.5914  -22.6514 C   0  0  0  0  0  0  0  0  0  0  0  0
    4.8548  -51.7991  -22.5956 C   0  0  0  0  0  0  0  0  0  0  0  0
    3.9622  -51.7374  -21.0126 Cl  0  0  0  0  0  0  0  0  0  0  0  0
    5.3515  -48.9220  -24.4920 C   0  0  0  0  0  0  0  0  0  0  0  0
    4.6264  -49.4286  -25.6758 C   0  0  0  0  0  0  0  0  0  0  0  0
    2.9968  -48.8387  -25.9514 Cl  0  0  0  0  0  0  0  0  0  0  0  0
 11 12  1  0  0  0
 12  1  1  0  0  0
  1  2  2  0  0  0
  2  3  1  0  0  0
  3  4  2  0  0  0
  4  5  1  0  0  0
  5  6  2  0  0  0
  6  7  1  0  0  0
  7 13  1  0  0  0
 13 15  1  0  0  0
 15 16  2  0  0  0
 16 17  1  0  0  0
 17 18  2  0  0  0
 18 19  1  0  0  0
 19 20  1  0  0  0
 19 21  2  0  0  0
  7  8  2  0  0  0
  8  9  1  0  0  0
  9 10  2  0  0  0
 10 22  1  0  0  0
 22 23  1  0  0  0
 23 24  1  0  0  0
 24 25  1  0  0  0
 25 26  1  0  0  0
 26 27  1  0  0  0
 27 28  1  0  0  0
 27 29  2  0  0  0
 27 32  1  0  0  0
 32 33  1  0  0  0
 33 34  1  0  0  0
 34 35  1  0  0  0
 32 36  1  0  0  0
 36 37  1  0  0  0
 37 38  1  0  0  0
 10  1  1  0  0  0
  8  3  1  0  0  0
 21 15  1  0  0  0
 13 14  1  0  0  0
 28 30  1  0  0  0
 28 31  1  0  0  0
M  END
> <minimizedAffinity>
-6.54689

> <CNNscore>
0.8288154006

> <CNNaffinity>
7.2153472900

> <CNN_VS>
5.9801907539

> <CNNaffinity_variance>
0.3586694300

$$$$
[H]c1nc(N([H])c2c([H])c([H])c([H])c(Br)c2[H])c2c([H])c(OC([H])([H])C([H])([H])C([H])([H])OP(=O)(N([H])[H])N(C([H])([H])C([H])([H])Cl)C([H])([H])C([H])([H])Cl)c(OC([H])([H])[H])c([H])c2n1


 38 40  0  0  0  0  0  0  0  0999 V2000
   -0.2124  -52.0491  -18.9418 C   0  0  0  0  0  0  0  0  0  0  0  0
   -0.6929  -53.2128  -19.4384 C   0  0  0  0  0  0  0  0  0  0  0  0
   -0.6705  -53.4490  -20.8004 C   0  0  0  0  0  0  0  0  0  0  0  0
   -1.1369  -54.5857  -21.3130 N   0  0  0  0  0  0  0  0  0  0  0  0
   -1.0967  -54.7770  -22.6453 C   0  0  0  0  0  0  0  0  0  0  0  0
   -0.5959  -53.8458  -23.4693 N   0  0  0  0  0  0  0  0  0  0  0  0
   -0.1013  -52.6663  -23.0469 C   0  0  0  0  0  0  0  0  0  0  0  0
   -0.1486  -52.4793  -21.6591 C   0  0  0  0  0  0  0  0  0  0  0  0
    0.3433  -51.2915  -21.1622 C   0  0  0  0  0  0  0  0  0  0  0  0
    0.3174  -51.0605  -19.7967 C   0  0  0  0  0  0  0  0  0  0  0  0
   -1.2674  -52.2800  -16.8020 C   0  0  0  0  0  0  0  0  0  0  0  0
   -0.2056  -51.7467  -17.5705 O   0  0  0  0  0  0  0  0  0  0  0  0
    0.4481  -51.7178  -23.9246 N   0  0  0  0  0  0  0  0  0  0  0  0
    0.4894  -50.6737  -23.7546 H   0  0  0  0  0  0  0  0  0  0  0  0
    1.0176  -52.1081  -25.1680 C   0  0  0  0  0  0  0  0  0  0  0  0
    2.3479  -52.3492  -25.3724 C   0  0  0  0  0  0  0  0  0  0  0  0
    2.8160  -52.6984  -26.6483 C   0  0  0  0  0  0  0  0  0  0  0  0
    1.9629  -52.8105  -27.7252 C   0  0  0  0  0  0  0  0  0  0  0  0
    0.6202  -52.5694  -27.5230 C   0  0  0  0  0  0  0  0  0  0  0  0
   -0.5252  -52.7373  -29.0447 Br  0  0  0  0  0  0  0  0  0  0  0  0
    0.1717  -52.2318  -26.2905 C   0  0  0  0  0  0  0  0  0  0  0  0
    0.7905  -49.9031  -19.2772 O   0  0  0  0  0  0  0  0  0  0  0  0
    2.0122  -49.5643  -18.8077 C   0  0  0  0  0  0  0  0  0  0  0  0
    3.1476  -49.3652  -19.7452 C   0  0  0  0  0  0  0  0  0  0  0  0
    2.9159  -48.2218  -20.7198 C   0  0  0  0  0  0  0  0  0  0  0  0
    4.0049  -48.1194  -21.5797 O   0  0  0  0  0  0  0  0  0  0  0  0
    3.6039  -48.3330  -23.1785 P   0  0  0  0  0  0  0  0  0  0  0  0
    3.0775  -46.8167  -23.8637 N   0  0  0  0  0  0  0  0  0  0  0  0
    2.3969  -49.2748  -23.2225 O   0  0  0  0  0  0  0  0  0  0  0  0
    2.0978  -46.6433  -23.5017 H   0  0  0  0  0  0  0  0  0  0  0  0
    3.7044  -46.0718  -23.4833 H   0  0  0  0  0  0  0  0  0  0  0  0
    4.9293  -49.0363  -24.1358 N   0  0  0  0  0  0  0  0  0  0  0  0
    4.9248  -48.4893  -25.3812 C   0  0  0  0  0  0  0  0  0  0  0  0
    4.0805  -48.9778  -26.4994 C   0  0  0  0  0  0  0  0  0  0  0  0
    3.3820  -47.5092  -27.3127 Cl  0  0  0  0  0  0  0  0  0  0  0  0
    5.3816  -50.1623  -23.5648 C   0  0  0  0  0  0  0  0  0  0  0  0
    5.8917  -51.3773  -24.2336 C   0  0  0  0  0  0  0  0  0  0  0  0
    5.3692  -52.9334  -23.6129 Cl  0  0  0  0  0  0  0  0  0  0  0  0
 11 12  1  0  0  0
 12  1  1  0  0  0
  1  2  2  0  0  0
  2  3  1  0  0  0
  3  4  2  0  0  0
  4  5  1  0  0  0
  5  6  2  0  0  0
  6  7  1  0  0  0
  7 13  1  0  0  0
 13 15  1  0  0  0
 15 16  2  0  0  0
 16 17  1  0  0  0
 17 18  2  0  0  0
 18 19  1  0  0  0
 19 20  1  0  0  0
 19 21  2  0  0  0
  7  8  2  0  0  0
  8  9  1  0  0  0
  9 10  2  0  0  0
 10 22  1  0  0  0
 22 23  1  0  0  0
 23 24  1  0  0  0
 24 25  1  0  0  0
 25 26  1  0  0  0
 26 27  1  0  0  0
 27 28  1  0  0  0
 27 29  2  0  0  0
 27 32  1  0  0  0
 32 33  1  0  0  0
 33 34  1  0  0  0
 34 35  1  0  0  0
 32 36  1  0  0  0
 36 37  1  0  0  0
 37 38  1  0  0  0
 10  1  1  0  0  0
  8  3  1  0  0  0
 21 15  1  0  0  0
 13 14  1  0  0  0
 28 30  1  0  0  0
 28 31  1  0  0  0
M  END
> <minimizedAffinity>
-6.59564

> <CNNscore>
0.8182488680

> <CNNaffinity>
7.2009506226

> <CNN_VS>
5.8921694756

> <CNNaffinity_variance>
0.2787227035

$$$$
[H]c1nc(N([H])c2c([H])c([H])c([H])c(Br)c2[H])c2c([H])c(OC([H])([H])C([H])([H])C([H])([H])OP(=O)(N([H])[H])N(C([H])([H])C([H])([H])Cl)C([H])([H])C([H])([H])Cl)c(OC([H])([H])[H])c([H])c2n1


 38 40  0  0  0  0  0  0  0  0999 V2000
    0.1077  -51.9906  -19.0549 C   0  0  0  0  0  0  0  0  0  0  0  0
   -0.6585  -53.0633  -19.3619 C   0  0  0  0  0  0  0  0  0  0  0  0
   -0.7685  -53.4860  -20.6736 C   0  0  0  0  0  0  0  0  0  0  0  0
   -1.5156  -54.5382  -21.0007 N   0  0  0  0  0  0  0  0  0  0  0  0
   -1.5961  -54.9180  -22.2902 C   0  0  0  0  0  0  0  0  0  0  0  0
   -0.9388  -54.2584  -23.2544 N   0  0  0  0  0  0  0  0  0  0  0  0
   -0.1594  -53.1844  -23.0234 C   0  0  0  0  0  0  0  0  0  0  0  0
   -0.0837  -52.7993  -21.6784 C   0  0  0  0  0  0  0  0  0  0  0  0
    0.6992  -51.7063  -21.3749 C   0  0  0  0  0  0  0  0  0  0  0  0
    0.8048  -51.2871  -20.0589 C   0  0  0  0  0  0  0  0  0  0  0  0
   -0.7529  -51.8576  -16.8218 C   0  0  0  0  0  0  0  0  0  0  0  0
    0.2620  -51.5100  -17.7446 O   0  0  0  0  0  0  0  0  0  0  0  0
    0.5461  -52.5273  -24.0443 N   0  0  0  0  0  0  0  0  0  0  0  0
    1.4185  -51.9426  -23.9112 H   0  0  0  0  0  0  0  0  0  0  0  0
    0.1203  -52.6018  -25.3993 C   0  0  0  0  0  0  0  0  0  0  0  0
   -1.0854  -52.1518  -25.8613 C   0  0  0  0  0  0  0  0  0  0  0  0
   -1.4254  -52.3015  -27.2143 C   0  0  0  0  0  0  0  0  0  0  0  0
   -0.5672  -52.8978  -28.1133 C   0  0  0  0  0  0  0  0  0  0  0  0
    0.6503  -53.3519  -27.6516 C   0  0  0  0  0  0  0  0  0  0  0  0
    1.8081  -54.1715  -28.9338 Br  0  0  0  0  0  0  0  0  0  0  0  0
    0.9752  -53.2066  -26.3448 C   0  0  0  0  0  0  0  0  0  0  0  0
    1.5637  -50.2157  -19.7281 O   0  0  0  0  0  0  0  0  0  0  0  0
    1.3894  -48.8925  -19.9439 C   0  0  0  0  0  0  0  0  0  0  0  0
    1.5914  -48.3205  -21.3002 C   0  0  0  0  0  0  0  0  0  0  0  0
    2.8417  -48.8492  -21.9845 C   0  0  0  0  0  0  0  0  0  0  0  0
    2.7427  -48.6372  -23.3560 O   0  0  0  0  0  0  0  0  0  0  0  0
    3.3577  -49.8878  -24.2618 P   0  0  0  0  0  0  0  0  0  0  0  0
    2.3846  -50.1158  -25.6925 N   0  0  0  0  0  0  0  0  0  0  0  0
    3.2157  -51.1651  -23.4287 O   0  0  0  0  0  0  0  0  0  0  0  0
    1.4957  -50.5997  -25.3818 H   0  0  0  0  0  0  0  0  0  0  0  0
    2.1334  -49.1661  -26.0497 H   0  0  0  0  0  0  0  0  0  0  0  0
    5.0698  -49.6557  -24.6887 N   0  0  0  0  0  0  0  0  0  0  0  0
    5.8306  -50.5498  -24.0016 C   0  0  0  0  0  0  0  0  0  0  0  0
    6.7400  -50.1830  -22.8879 C   0  0  0  0  0  0  0  0  0  0  0  0
    5.9710  -50.7929  -21.3572 Cl  0  0  0  0  0  0  0  0  0  0  0  0
    5.2546  -48.4660  -25.2796 C   0  0  0  0  0  0  0  0  0  0  0  0
    5.1118  -48.1323  -26.7120 C   0  0  0  0  0  0  0  0  0  0  0  0
    3.7692  -47.1049  -27.1829 Cl  0  0  0  0  0  0  0  0  0  0  0  0
 11 12  1  0  0  0
 12  1  1  0  0  0
  1  2  2  0  0  0
  2  3  1  0  0  0
  3  4  2  0  0  0
  4  5  1  0  0  0
  5  6  2  0  0  0
  6  7  1  0  0  0
  7 13  1  0  0  0
 13 15  1  0  0  0
 15 16  2  0  0  0
 16 17  1  0  0  0
 17 18  2  0  0  0
 18 19  1  0  0  0
 19 20  1  0  0  0
 19 21  2  0  0  0
  7  8  2  0  0  0
  8  9  1  0  0  0
  9 10  2  0  0  0
 10 22  1  0  0  0
 22 23  1  0  0  0
 23 24  1  0  0  0
 24 25  1  0  0  0
 25 26  1  0  0  0
 26 27  1  0  0  0
 27 28  1  0  0  0
 27 29  2  0  0  0
 27 32  1  0  0  0
 32 33  1  0  0  0
 33 34  1  0  0  0
 34 35  1  0  0  0
 32 36  1  0  0  0
 36 37  1  0  0  0
 37 38  1  0  0  0
 10  1  1  0  0  0
  8  3  1  0  0  0
 21 15  1  0  0  0
 13 14  1  0  0  0
 28 30  1  0  0  0
 28 31  1  0  0  0
M  END
> <minimizedAffinity>
-6.41263

> <CNNscore>
0.7692252398

> <CNNaffinity>
7.2936272621

> <CNN_VS>
5.6104421616

> <CNNaffinity_variance>
0.1068792492

$$$$
[H]c1nc(N([H])c2c([H])c([H])c([H])c(Br)c2[H])c2c([H])c(OC([H])([H])C([H])([H])C([H])([H])OP(=O)(N([H])[H])N(C([H])([H])C([H])([H])Cl)C([H])([H])C([H])([H])Cl)c(OC([H])([H])[H])c([H])c2n1


 38 40  0  0  0  0  0  0  0  0999 V2000
   -0.2692  -52.2253  -19.6798 C   0  0  0  0  0  0  0  0  0  0  0  0
   -0.7511  -53.4182  -20.0999 C   0  0  0  0  0  0  0  0  0  0  0  0
   -0.7839  -53.7182  -21.4491 C   0  0  0  0  0  0  0  0  0  0  0  0
   -1.2529  -54.8847  -21.8870 N   0  0  0  0  0  0  0  0  0  0  0  0
   -1.2672  -55.1382  -23.2094 C   0  0  0  0  0  0  0  0  0  0  0  0
   -0.8183  -54.2398  -24.0972 N   0  0  0  0  0  0  0  0  0  0  0  0
   -0.3258  -53.0344  -23.7525 C   0  0  0  0  0  0  0  0  0  0  0  0
   -0.3161  -52.7827  -22.3743 C   0  0  0  0  0  0  0  0  0  0  0  0
    0.1769  -51.5656  -21.9555 C   0  0  0  0  0  0  0  0  0  0  0  0
    0.2063  -51.2706  -20.6024 C   0  0  0  0  0  0  0  0  0  0  0  0
   -1.0496  -52.5725  -17.4402 C   0  0  0  0  0  0  0  0  0  0  0  0
   -0.2081  -51.8583  -18.3257 O   0  0  0  0  0  0  0  0  0  0  0  0
    0.1690  -52.1205  -24.6968 N   0  0  0  0  0  0  0  0  0  0  0  0
    0.4366  -51.1156  -24.4988 H   0  0  0  0  0  0  0  0  0  0  0  0
    0.3564  -52.4950  -26.0560 C   0  0  0  0  0  0  0  0  0  0  0  0
    1.5634  -52.8089  -26.6167 C   0  0  0  0  0  0  0  0  0  0  0  0
    1.6476  -53.1349  -27.9789 C   0  0  0  0  0  0  0  0  0  0  0  0
    0.5318  -53.1515  -28.7881 C   0  0  0  0  0  0  0  0  0  0  0  0
   -0.6876  -52.8368  -28.2263 C   0  0  0  0  0  0  0  0  0  0  0  0
   -2.2072  -52.8732  -29.3862 Br  0  0  0  0  0  0  0  0  0  0  0  0
   -0.7654  -52.5218  -26.9114 C   0  0  0  0  0  0  0  0  0  0  0  0
    0.6820  -50.0830  -20.1588 O   0  0  0  0  0  0  0  0  0  0  0  0
    0.8216  -48.8870  -20.7734 C   0  0  0  0  0  0  0  0  0  0  0  0
    2.0914  -48.1250  -20.6526 C   0  0  0  0  0  0  0  0  0  0  0  0
    2.6343  -47.6645  -21.9959 C   0  0  0  0  0  0  0  0  0  0  0  0
    4.0213  -47.7744  -21.9961 O   0  0  0  0  0  0  0  0  0  0  0  0
    4.5905  -48.9254  -23.0515 P   0  0  0  0  0  0  0  0  0  0  0  0
    6.2933  -48.6732  -23.3393 N   0  0  0  0  0  0  0  0  0  0  0  0
    3.8833  -48.7027  -24.3917 O   0  0  0  0  0  0  0  0  0  0  0  0
    6.3718  -47.8428  -23.9912 H   0  0  0  0  0  0  0  0  0  0  0  0
    6.7260  -48.4136  -22.4238 H   0  0  0  0  0  0  0  0  0  0  0  0
    4.2798  -50.5873  -22.4957 N   0  0  0  0  0  0  0  0  0  0  0  0
    3.5515  -51.2479  -23.4356 C   0  0  0  0  0  0  0  0  0  0  0  0
    3.9638  -52.5324  -24.0537 C   0  0  0  0  0  0  0  0  0  0  0  0
    5.7658  -52.4524  -24.2828 Cl  0  0  0  0  0  0  0  0  0  0  0  0
    4.5029  -50.6966  -21.1778 C   0  0  0  0  0  0  0  0  0  0  0  0
    3.7949  -51.5554  -20.2057 C   0  0  0  0  0  0  0  0  0  0  0  0
    3.5367  -50.9215  -18.5898 Cl  0  0  0  0  0  0  0  0  0  0  0  0
 11 12  1  0  0  0
 12  1  1  0  0  0
  1  2  2  0  0  0
  2  3  1  0  0  0
  3  4  2  0  0  0
  4  5  1  0  0  0
  5  6  2  0  0  0
  6  7  1  0  0  0
  7 13  1  0  0  0
 13 15  1  0  0  0
 15 16  2  0  0  0
 16 17  1  0  0  0
 17 18  2  0  0  0
 18 19  1  0  0  0
 19 20  1  0  0  0
 19 21  2  0  0  0
  7  8  2  0  0  0
  8  9  1  0  0  0
  9 10  2  0  0  0
 10 22  1  0  0  0
 22 23  1  0  0  0
 23 24  1  0  0  0
 24 25  1  0  0  0
 25 26  1  0  0  0
 26 27  1  0  0  0
 27 28  1  0  0  0
 27 29  2  0  0  0
 27 32  1  0  0  0
 32 33  1  0  0  0
 33 34  1  0  0  0
 34 35  1  0  0  0
 32 36  1  0  0  0
 36 37  1  0  0  0
 37 38  1  0  0  0
 10  1  1  0  0  0
  8  3  1  0  0  0
 21 15  1  0  0  0
 13 14  1  0  0  0
 28 30  1  0  0  0
 28 31  1  0  0  0
M  END
> <minimizedAffinity>
-6.82255

> <CNNscore>
0.7308045626

> <CNNaffinity>
7.1343536377

> <CNN_VS>
5.2138180733

> <CNNaffinity_variance>
0.3968436122

$$$$
[H]c1nc(N([H])c2c([H])c([H])c([H])c(Br)c2[H])c2c([H])c(OC([H])([H])C([H])([H])C([H])([H])OP(=O)(N([H])[H])N(C([H])([H])C([H])([H])Cl)C([H])([H])C([H])([H])Cl)c(OC([H])([H])[H])c([H])c2n1


 38 40  0  0  0  0  0  0  0  0999 V2000
   -0.0297  -52.2075  -19.7255 C   0  0  0  0  0  0  0  0  0  0  0  0
   -0.5370  -53.4095  -20.0857 C   0  0  0  0  0  0  0  0  0  0  0  0
   -0.7111  -53.7182  -21.4220 C   0  0  0  0  0  0  0  0  0  0  0  0
   -1.2079  -54.8936  -21.8013 N   0  0  0  0  0  0  0  0  0  0  0  0
   -1.3615  -55.1553  -23.1133 C   0  0  0  0  0  0  0  0  0  0  0  0
   -1.0242  -54.2562  -24.0485 N   0  0  0  0  0  0  0  0  0  0  0  0
   -0.5147  -53.0420  -23.7646 C   0  0  0  0  0  0  0  0  0  0  0  0
   -0.3597  -52.7819  -22.3966 C   0  0  0  0  0  0  0  0  0  0  0  0
    0.1581  -51.5555  -22.0391 C   0  0  0  0  0  0  0  0  0  0  0  0
    0.3294  -51.2519  -20.6985 C   0  0  0  0  0  0  0  0  0  0  0  0
   -0.7758  -52.3047  -17.4498 C   0  0  0  0  0  0  0  0  0  0  0  0
    0.1722  -51.8316  -18.3877 O   0  0  0  0  0  0  0  0  0  0  0  0
   -0.1382  -52.1271  -24.7610 N   0  0  0  0  0  0  0  0  0  0  0  0
    0.2934  -51.1756  -24.5911 H   0  0  0  0  0  0  0  0  0  0  0  0
   -0.3176  -52.4252  -26.1401 C   0  0  0  0  0  0  0  0  0  0  0  0
   -1.4745  -52.2130  -26.8374 C   0  0  0  0  0  0  0  0  0  0  0  0
   -1.5611  -52.5722  -28.1910 C   0  0  0  0  0  0  0  0  0  0  0  0
   -0.4971  -53.1424  -28.8566 C   0  0  0  0  0  0  0  0  0  0  0  0
    0.6720  -53.3570  -28.1573 C   0  0  0  0  0  0  0  0  0  0  0  0
    2.1208  -54.1493  -29.1211 Br  0  0  0  0  0  0  0  0  0  0  0  0
    0.7520  -53.0098  -26.8507 C   0  0  0  0  0  0  0  0  0  0  0  0
    0.8331  -50.0553  -20.3144 O   0  0  0  0  0  0  0  0  0  0  0  0
    0.8011  -48.8384  -20.9026 C   0  0  0  0  0  0  0  0  0  0  0  0
    2.0652  -48.1433  -21.2581 C   0  0  0  0  0  0  0  0  0  0  0  0
    3.2330  -48.5521  -20.3747 C   0  0  0  0  0  0  0  0  0  0  0  0
    4.4095  -48.5132  -21.1165 O   0  0  0  0  0  0  0  0  0  0  0  0
    4.9662  -50.0189  -21.5475 P   0  0  0  0  0  0  0  0  0  0  0  0
    3.8880  -51.2461  -20.9331 N   0  0  0  0  0  0  0  0  0  0  0  0
    6.3102  -50.2255  -20.8426 O   0  0  0  0  0  0  0  0  0  0  0  0
    4.0777  -51.3252  -19.8945 H   0  0  0  0  0  0  0  0  0  0  0  0
    2.9127  -50.8931  -21.0625 H   0  0  0  0  0  0  0  0  0  0  0  0
    5.1940  -50.1953  -23.3037 N   0  0  0  0  0  0  0  0  0  0  0  0
    4.3839  -49.3168  -23.9535 C   0  0  0  0  0  0  0  0  0  0  0  0
    4.5859  -48.8843  -25.3585 C   0  0  0  0  0  0  0  0  0  0  0  0
    3.0054  -49.1392  -26.2207 Cl  0  0  0  0  0  0  0  0  0  0  0  0
    5.8075  -51.3532  -23.5889 C   0  0  0  0  0  0  0  0  0  0  0  0
    5.1979  -52.6058  -24.0820 C   0  0  0  0  0  0  0  0  0  0  0  0
    3.4467  -52.6872  -24.1622 Cl  0  0  0  0  0  0  0  0  0  0  0  0
 11 12  1  0  0  0
 12  1  1  0  0  0
  1  2  2  0  0  0
  2  3  1  0  0  0
  3  4  2  0  0  0
  4  5  1  0  0  0
  5  6  2  0  0  0
  6  7  1  0  0  0
  7 13  1  0  0  0
 13 15  1  0  0  0
 15 16  2  0  0  0
 16 17  1  0  0  0
 17 18  2  0  0  0
 18 19  1  0  0  0
 19 20  1  0  0  0
 19 21  2  0  0  0
  7  8  2  0  0  0
  8  9  1  0  0  0
  9 10  2  0  0  0
 10 22  1  0  0  0
 22 23  1  0  0  0
 23 24  1  0  0  0
 24 25  1  0  0  0
 25 26  1  0  0  0
 26 27  1  0  0  0
 27 28  1  0  0  0
 27 29  2  0  0  0
 27 32  1  0  0  0
 32 33  1  0  0  0
 33 34  1  0  0  0
 34 35  1  0  0  0
 32 36  1  0  0  0
 36 37  1  0  0  0
 37 38  1  0  0  0
 10  1  1  0  0  0
  8  3  1  0  0  0
 21 15  1  0  0  0
 13 14  1  0  0  0
 28 30  1  0  0  0
 28 31  1  0  0  0
M  END
> <minimizedAffinity>
-6.86063

> <CNNscore>
0.7017940283

> <CNNaffinity>
7.0830368996

> <CNN_VS>
4.9708328247

> <CNNaffinity_variance>
0.5582898259

$$$$
[H]c1nc(N([H])c2c([H])c([H])c([H])c(Br)c2[H])c2c([H])c(OC([H])([H])C([H])([H])C([H])([H])OP(=O)(N([H])[H])N(C([H])([H])C([H])([H])Cl)C([H])([H])C([H])([H])Cl)c(OC([H])([H])[H])c([H])c2n1


 38 40  0  0  0  0  0  0  0  0999 V2000
   -0.2208  -52.2948  -19.7141 C   0  0  0  0  0  0  0  0  0  0  0  0
   -0.6938  -53.4966  -20.1187 C   0  0  0  0  0  0  0  0  0  0  0  0
   -0.8060  -53.7812  -21.4669 C   0  0  0  0  0  0  0  0  0  0  0  0
   -1.2681  -54.9559  -21.8897 N   0  0  0  0  0  0  0  0  0  0  0  0
   -1.3616  -55.1937  -23.2118 C   0  0  0  0  0  0  0  0  0  0  0  0
   -0.9985  -54.2714  -24.1143 N   0  0  0  0  0  0  0  0  0  0  0  0
   -0.5202  -53.0560  -23.7855 C   0  0  0  0  0  0  0  0  0  0  0  0
   -0.4276  -52.8207  -22.4074 C   0  0  0  0  0  0  0  0  0  0  0  0
    0.0556  -51.5944  -22.0045 C   0  0  0  0  0  0  0  0  0  0  0  0
    0.1650  -51.3150  -20.6522 C   0  0  0  0  0  0  0  0  0  0  0  0
   -0.9967  -52.5342  -17.4589 C   0  0  0  0  0  0  0  0  0  0  0  0
   -0.0819  -51.9426  -18.3619 O   0  0  0  0  0  0  0  0  0  0  0  0
   -0.1155  -52.1161  -24.7471 N   0  0  0  0  0  0  0  0  0  0  0  0
   -0.6324  -51.2255  -24.9924 H   0  0  0  0  0  0  0  0  0  0  0  0
    1.0770  -52.2998  -25.5000 C   0  0  0  0  0  0  0  0  0  0  0  0
    1.1270  -52.4155  -26.8615 C   0  0  0  0  0  0  0  0  0  0  0  0
    2.3534  -52.6277  -27.5093 C   0  0  0  0  0  0  0  0  0  0  0  0
    3.5349  -52.7242  -26.8058 C   0  0  0  0  0  0  0  0  0  0  0  0
    3.4891  -52.6069  -25.4325 C   0  0  0  0  0  0  0  0  0  0  0  0
    5.1517  -52.7467  -24.4986 Br  0  0  0  0  0  0  0  0  0  0  0  0
    2.3036  -52.4028  -24.8102 C   0  0  0  0  0  0  0  0  0  0  0  0
    0.6335  -50.1191  -20.2239 O   0  0  0  0  0  0  0  0  0  0  0  0
    0.7022  -48.9133  -20.8314 C   0  0  0  0  0  0  0  0  0  0  0  0
    1.9168  -48.0695  -20.6892 C   0  0  0  0  0  0  0  0  0  0  0  0
    2.4265  -47.5383  -22.0193 C   0  0  0  0  0  0  0  0  0  0  0  0
    3.4825  -46.6612  -21.7926 O   0  0  0  0  0  0  0  0  0  0  0  0
    4.9676  -47.4076  -21.7812 P   0  0  0  0  0  0  0  0  0  0  0  0
    5.4058  -47.8272  -20.1447 N   0  0  0  0  0  0  0  0  0  0  0  0
    5.9970  -46.3789  -22.2589 O   0  0  0  0  0  0  0  0  0  0  0  0
    5.7033  -46.9290  -19.6698 H   0  0  0  0  0  0  0  0  0  0  0  0
    4.5406  -48.1765  -19.6734 H   0  0  0  0  0  0  0  0  0  0  0  0
    5.0322  -48.8352  -22.8418 N   0  0  0  0  0  0  0  0  0  0  0  0
    5.4042  -48.4508  -24.0924 C   0  0  0  0  0  0  0  0  0  0  0  0
    4.9815  -49.1445  -25.3343 C   0  0  0  0  0  0  0  0  0  0  0  0
    3.1849  -48.9077  -25.4845 Cl  0  0  0  0  0  0  0  0  0  0  0  0
    4.3725  -49.8653  -22.2920 C   0  0  0  0  0  0  0  0  0  0  0  0
    4.8806  -50.8507  -21.3150 C   0  0  0  0  0  0  0  0  0  0  0  0
    3.7050  -51.7353  -20.3583 Cl  0  0  0  0  0  0  0  0  0  0  0  0
 11 12  1  0  0  0
 12  1  1  0  0  0
  1  2  2  0  0  0
  2  3  1  0  0  0
  3  4  2  0  0  0
  4  5  1  0  0  0
  5  6  2  0  0  0
  6  7  1  0  0  0
  7 13  1  0  0  0
 13 15  1  0  0  0
 15 16  2  0  0  0
 16 17  1  0  0  0
 17 18  2  0  0  0
 18 19  1  0  0  0
 19 20  1  0  0  0
 19 21  2  0  0  0
  7  8  2  0  0  0
  8  9  1  0  0  0
  9 10  2  0  0  0
 10 22  1  0  0  0
 22 23  1  0  0  0
 23 24  1  0  0  0
 24 25  1  0  0  0
 25 26  1  0  0  0
 26 27  1  0  0  0
 27 28  1  0  0  0
 27 29  2  0  0  0
 27 32  1  0  0  0
 32 33  1  0  0  0
 33 34  1  0  0  0
 34 35  1  0  0  0
 32 36  1  0  0  0
 36 37  1  0  0  0
 37 38  1  0  0  0
 10  1  1  0  0  0
  8  3  1  0  0  0
 21 15  1  0  0  0
 13 14  1  0  0  0
 28 30  1  0  0  0
 28 31  1  0  0  0
M  END
> <minimizedAffinity>
-6.28201

> <CNNscore>
0.6217618585

> <CNNaffinity>
6.8608145714

> <CNN_VS>
4.2657928467

> <CNNaffinity_variance>
0.5071649551

$$$$
[H]c1nc(N([H])c2c([H])c([H])c([H])c(Br)c2[H])c2c([H])c(OC([H])([H])C([H])([H])C([H])([H])OP(=O)(N([H])[H])N(C([H])([H])C([H])([H])Cl)C([H])([H])C([H])([H])Cl)c(OC([H])([H])[H])c([H])c2n1


 38 40  0  0  0  0  0  0  0  0999 V2000
   -0.3218  -52.5288  -19.7944 C   0  0  0  0  0  0  0  0  0  0  0  0
   -0.8122  -53.7019  -20.2580 C   0  0  0  0  0  0  0  0  0  0  0  0
   -0.8620  -53.9454  -21.6179 C   0  0  0  0  0  0  0  0  0  0  0  0
   -1.3397  -55.0914  -22.0984 N   0  0  0  0  0  0  0  0  0  0  0  0
   -1.3706  -55.2896  -23.4300 C   0  0  0  0  0  0  0  0  0  0  0  0
   -0.9296  -54.3560  -24.2849 N   0  0  0  0  0  0  0  0  0  0  0  0
   -0.4294  -53.1673  -23.8963 C   0  0  0  0  0  0  0  0  0  0  0  0
   -0.4025  -52.9733  -22.5090 C   0  0  0  0  0  0  0  0  0  0  0  0
    0.0990  -51.7759  -22.0458 C   0  0  0  0  0  0  0  0  0  0  0  0
    0.1455  -51.5376  -20.6821 C   0  0  0  0  0  0  0  0  0  0  0  0
   -1.2640  -52.7466  -17.6012 C   0  0  0  0  0  0  0  0  0  0  0  0
   -0.2434  -52.2187  -18.4270 O   0  0  0  0  0  0  0  0  0  0  0  0
    0.0568  -52.2161  -24.8076 N   0  0  0  0  0  0  0  0  0  0  0  0
   -0.5364  -51.6276  -25.4576 H   0  0  0  0  0  0  0  0  0  0  0  0
    1.4503  -51.9600  -24.9315 C   0  0  0  0  0  0  0  0  0  0  0  0
    2.4303  -52.9016  -24.7807 C   0  0  0  0  0  0  0  0  0  0  0  0
    3.7817  -52.5405  -24.8906 C   0  0  0  0  0  0  0  0  0  0  0  0
    4.1635  -51.2421  -25.1525 C   0  0  0  0  0  0  0  0  0  0  0  0
    3.1782  -50.2896  -25.3066 C   0  0  0  0  0  0  0  0  0  0  0  0
    3.7544  -48.5029  -25.6691 Br  0  0  0  0  0  0  0  0  0  0  0  0
    1.8747  -50.6413  -25.1991 C   0  0  0  0  0  0  0  0  0  0  0  0
    0.6300  -50.3708  -20.1952 O   0  0  0  0  0  0  0  0  0  0  0  0
    1.3951  -49.4113  -20.7624 C   0  0  0  0  0  0  0  0  0  0  0  0
    1.8939  -48.2716  -19.9500 C   0  0  0  0  0  0  0  0  0  0  0  0
    2.9632  -48.6817  -18.9503 C   0  0  0  0  0  0  0  0  0  0  0  0
    2.5729  -48.2960  -17.6717 O   0  0  0  0  0  0  0  0  0  0  0  0
    1.8309  -49.5117  -16.8149 P   0  0  0  0  0  0  0  0  0  0  0  0
    2.1808  -51.0539  -17.5532 N   0  0  0  0  0  0  0  0  0  0  0  0
    0.3193  -49.2997  -16.9412 O   0  0  0  0  0  0  0  0  0  0  0  0
    1.5809  -51.1176  -18.4232 H   0  0  0  0  0  0  0  0  0  0  0  0
    3.1838  -51.0352  -17.8470 H   0  0  0  0  0  0  0  0  0  0  0  0
    2.2786  -49.5162  -15.0924 N   0  0  0  0  0  0  0  0  0  0  0  0
    3.3128  -48.6553  -14.8935 C   0  0  0  0  0  0  0  0  0  0  0  0
    4.2762  -48.7606  -13.7698 C   0  0  0  0  0  0  0  0  0  0  0  0
    5.4989  -47.4343  -13.9981 Cl  0  0  0  0  0  0  0  0  0  0  0  0
    1.7682  -50.5902  -14.4721 C   0  0  0  0  0  0  0  0  0  0  0  0
    2.4921  -51.7743  -13.9647 C   0  0  0  0  0  0  0  0  0  0  0  0
    3.9787  -52.2343  -14.7760 Cl  0  0  0  0  0  0  0  0  0  0  0  0
 11 12  1  0  0  0
 12  1  1  0  0  0
  1  2  2  0  0  0
  2  3  1  0  0  0
  3  4  2  0  0  0
  4  5  1  0  0  0
  5  6  2  0  0  0
  6  7  1  0  0  0
  7 13  1  0  0  0
 13 15  1  0  0  0
 15 16  2  0  0  0
 16 17  1  0  0  0
 17 18  2  0  0  0
 18 19  1  0  0  0
 19 20  1  0  0  0
 19 21  2  0  0  0
  7  8  2  0  0  0
  8  9  1  0  0  0
  9 10  2  0  0  0
 10 22  1  0  0  0
 22 23  1  0  0  0
 23 24  1  0  0  0
 24 25  1  0  0  0
 25 26  1  0  0  0
 26 27  1  0  0  0
 27 28  1  0  0  0
 27 29  2  0  0  0
 27 32  1  0  0  0
 32 33  1  0  0  0
 33 34  1  0  0  0
 34 35  1  0  0  0
 32 36  1  0  0  0
 36 37  1  0  0  0
 37 38  1  0  0  0
 10  1  1  0  0  0
  8  3  1  0  0  0
 21 15  1  0  0  0
 13 14  1  0  0  0
 28 30  1  0  0  0
 28 31  1  0  0  0
M  END
> <minimizedAffinity>
-6.23759

> <CNNscore>
0.6066029072

> <CNNaffinity>
6.7926430702

> <CNN_VS>
4.1204371452

> <CNNaffinity_variance>
0.0374623388

$$$$
[H]c1nc(N([H])c2c([H])c([H])c([H])c(Br)c2[H])c2c([H])c(OC([H])([H])C([H])([H])C([H])([H])OP(=O)(N([H])[H])N(C([H])([H])C([H])([H])Cl)C([H])([H])C([H])([H])Cl)c(OC([H])([H])[H])c([H])c2n1


 38 40  0  0  0  0  0  0  0  0999 V2000
    0.1381  -51.6281  -19.4177 C   0  0  0  0  0  0  0  0  0  0  0  0
   -0.2867  -52.8898  -19.6616 C   0  0  0  0  0  0  0  0  0  0  0  0
   -0.4634  -53.3243  -20.9621 C   0  0  0  0  0  0  0  0  0  0  0  0
   -0.8800  -54.5606  -21.2276 N   0  0  0  0  0  0  0  0  0  0  0  0
   -1.0391  -54.9450  -22.5083 C   0  0  0  0  0  0  0  0  0  0  0  0
   -0.7866  -54.1083  -23.5247 N   0  0  0  0  0  0  0  0  0  0  0  0
   -0.3619  -52.8410  -23.3578 C   0  0  0  0  0  0  0  0  0  0  0  0
   -0.2001  -52.4531  -22.0212 C   0  0  0  0  0  0  0  0  0  0  0  0
    0.2333  -51.1667  -21.7823 C   0  0  0  0  0  0  0  0  0  0  0  0
    0.4076  -50.7370  -20.4771 C   0  0  0  0  0  0  0  0  0  0  0  0
   -0.5549  -51.5814  -17.1236 C   0  0  0  0  0  0  0  0  0  0  0  0
    0.3375  -51.1245  -18.1222 O   0  0  0  0  0  0  0  0  0  0  0  0
   -0.0725  -51.9911  -24.4375 N   0  0  0  0  0  0  0  0  0  0  0  0
    0.6517  -51.2190  -24.4356 H   0  0  0  0  0  0  0  0  0  0  0  0
   -0.7646  -52.1100  -25.6742 C   0  0  0  0  0  0  0  0  0  0  0  0
   -2.1022  -51.8811  -25.8419 C   0  0  0  0  0  0  0  0  0  0  0  0
   -2.6984  -52.0579  -27.0997 C   0  0  0  0  0  0  0  0  0  0  0  0
   -1.9665  -52.4616  -28.1958 C   0  0  0  0  0  0  0  0  0  0  0  0
   -0.6169  -52.6924  -28.0313 C   0  0  0  0  0  0  0  0  0  0  0  0
    0.3580  -53.2501  -29.5787 Br  0  0  0  0  0  0  0  0  0  0  0  0
   -0.0446  -52.5215  -26.8157 C   0  0  0  0  0  0  0  0  0  0  0  0
    0.8297  -49.4788  -20.2087 O   0  0  0  0  0  0  0  0  0  0  0  0
    2.0557  -48.9122  -20.2693 C   0  0  0  0  0  0  0  0  0  0  0  0
    2.7779  -48.8231  -21.5646 C   0  0  0  0  0  0  0  0  0  0  0  0
    2.4196  -47.5759  -22.3566 C   0  0  0  0  0  0  0  0  0  0  0  0
    3.4932  -46.6912  -22.3363 O   0  0  0  0  0  0  0  0  0  0  0  0
    4.5949  -46.9646  -23.5506 P   0  0  0  0  0  0  0  0  0  0  0  0
    5.9689  -47.8347  -22.9174 N   0  0  0  0  0  0  0  0  0  0  0  0
    5.1156  -45.5988  -24.0079 O   0  0  0  0  0  0  0  0  0  0  0  0
    6.5447  -47.1361  -22.3687 H   0  0  0  0  0  0  0  0  0  0  0  0
    5.6004  -48.5512  -22.2513 H   0  0  0  0  0  0  0  0  0  0  0  0
    3.8901  -47.8181  -24.9443 N   0  0  0  0  0  0  0  0  0  0  0  0
    4.4056  -49.0751  -25.0103 C   0  0  0  0  0  0  0  0  0  0  0  0
    3.5836  -50.3105  -25.0086 C   0  0  0  0  0  0  0  0  0  0  0  0
    3.0063  -50.5617  -26.7144 Cl  0  0  0  0  0  0  0  0  0  0  0  0
    3.3182  -46.9508  -25.7924 C   0  0  0  0  0  0  0  0  0  0  0  0
    3.8324  -46.4840  -27.0968 C   0  0  0  0  0  0  0  0  0  0  0  0
    3.7824  -47.6063  -28.4450 Cl  0  0  0  0  0  0  0  0  0  0  0  0
 11 12  1  0  0  0
 12  1  1  0  0  0
  1  2  2  0  0  0
  2  3  1  0  0  0
  3  4  2  0  0  0
  4  5  1  0  0  0
  5  6  2  0  0  0
  6  7  1  0  0  0
  7 13  1  0  0  0
 13 15  1  0  0  0
 15 16  2  0  0  0
 16 17  1  0  0  0
 17 18  2  0  0  0
 18 19  1  0  0  0
 19 20  1  0  0  0
 19 21  2  0  0  0
  7  8  2  0  0  0
  8  9  1  0  0  0
  9 10  2  0  0  0
 10 22  1  0  0  0
 22 23  1  0  0  0
 23 24  1  0  0  0
 24 25  1  0  0  0
 25 26  1  0  0  0
 26 27  1  0  0  0
 27 28  1  0  0  0
 27 29  2  0  0  0
 27 32  1  0  0  0
 32 33  1  0  0  0
 33 34  1  0  0  0
 34 35  1  0  0  0
 32 36  1  0  0  0
 36 37  1  0  0  0
 37 38  1  0  0  0
 10  1  1  0  0  0
  8  3  1  0  0  0
 21 15  1  0  0  0
 13 14  1  0  0  0
 28 30  1  0  0  0
 28 31  1  0  0  0
M  END
> <minimizedAffinity>
-6.16042

> <CNNscore>
0.5389750004

> <CNNaffinity>
6.9255456924

> <CNN_VS>
3.7326960564

> <CNNaffinity_variance>
0.2973202169

$$$$
[H]Oc1c([H])c([H])c(N([H])c2nc([H])nc3c([H])c4oc(=O)n(C([H])([H])C([H])([H])C([H])([H])C(=O)OC([H])([H])C([H])([H])[H])c4c([H])c23)c([H])c1[H]


 32 35  0  0  0  0  0  0  0  0999 V2000
    0.7926  -50.1307  -19.6777 N   0  0  0  0  0  0  0  0  0  0  0  0
    0.3350  -51.2081  -20.3383 C   0  0  0  0  0  0  0  0  0  0  0  0
    0.3183  -51.5046  -21.6933 C   0  0  0  0  0  0  0  0  0  0  0  0
   -0.2096  -52.6887  -22.1522 C   0  0  0  0  0  0  0  0  0  0  0  0
   -0.2450  -53.0206  -23.5054 C   0  0  0  0  0  0  0  0  0  0  0  0
   -0.7880  -54.2028  -23.8131 N   0  0  0  0  0  0  0  0  0  0  0  0
   -1.2910  -55.0732  -22.9205 C   0  0  0  0  0  0  0  0  0  0  0  0
   -1.2542  -54.7485  -21.6169 N   0  0  0  0  0  0  0  0  0  0  0  0
   -0.7289  -53.5831  -21.2073 C   0  0  0  0  0  0  0  0  0  0  0  0
   -0.7043  -53.2732  -19.8698 C   0  0  0  0  0  0  0  0  0  0  0  0
   -0.1757  -52.0881  -19.4108 C   0  0  0  0  0  0  0  0  0  0  0  0
   -0.0176  -51.5324  -18.2354 O   0  0  0  0  0  0  0  0  0  0  0  0
    0.5627  -50.3555  -18.3755 C   0  0  0  0  0  0  0  0  0  0  0  0
    0.8501  -49.5769  -17.4346 O   0  0  0  0  0  0  0  0  0  0  0  0
    0.3049  -52.1316  -24.4516 N   0  0  0  0  0  0  0  0  0  0  0  0
    0.8037  -51.2391  -24.1313 H   0  0  0  0  0  0  0  0  0  0  0  0
    0.2626  -52.3023  -25.8455 C   0  0  0  0  0  0  0  0  0  0  0  0
   -0.8629  -52.1874  -26.5904 C   0  0  0  0  0  0  0  0  0  0  0  0
   -0.8540  -52.3995  -27.9828 C   0  0  0  0  0  0  0  0  0  0  0  0
    0.3279  -52.7297  -28.5945 C   0  0  0  0  0  0  0  0  0  0  0  0
    0.3188  -52.9352  -29.9669 O   0  0  0  0  0  0  0  0  0  0  0  0
    1.5004  -52.8535  -27.8524 C   0  0  0  0  0  0  0  0  0  0  0  0
    1.4286  -52.6359  -26.5027 C   0  0  0  0  0  0  0  0  0  0  0  0
    0.4861  -52.1585  -30.5658 H   0  0  0  0  0  0  0  0  0  0  0  0
    1.4199  -48.9486  -20.2854 C   0  0  0  0  0  0  0  0  0  0  0  0
    2.9074  -49.0638  -20.1684 C   0  0  0  0  0  0  0  0  0  0  0  0
    3.5859  -49.8335  -21.2434 C   0  0  0  0  0  0  0  0  0  0  0  0
    4.0515  -51.1744  -20.8642 C   0  0  0  0  0  0  0  0  0  0  0  0
    3.7389  -51.6847  -19.7797 O   0  0  0  0  0  0  0  0  0  0  0  0
    4.8569  -51.8762  -21.7440 O   0  0  0  0  0  0  0  0  0  0  0  0
    4.1190  -52.4152  -23.9471 C   0  0  0  0  0  0  0  0  0  0  0  0
    4.9856  -51.5172  -23.0882 C   0  0  0  0  0  0  0  0  0  0  0  0
 31 32  1  0  0  0
 32 30  1  0  0  0
 30 28  1  0  0  0
 28 29  2  0  0  0
 28 27  1  0  0  0
 27 26  1  0  0  0
 26 25  1  0  0  0
 25  1  1  0  0  0
  1  2  1  0  0  0
  2  3  2  0  0  0
  3  4  1  0  0  0
  4  5  2  0  0  0
  5 15  1  0  0  0
 15 17  1  0  0  0
 17 18  2  0  0  0
 18 19  1  0  0  0
 19 20  2  0  0  0
 20 21  1  0  0  0
 20 22  1  0  0  0
 22 23  2  0  0  0
  5  6  1  0  0  0
  6  7  2  0  0  0
  7  8  1  0  0  0
  8  9  2  0  0  0
  9 10  1  0  0  0
 10 11  2  0  0  0
 11 12  1  0  0  0
 12 13  1  0  0  0
 13 14  2  0  0  0
 13  1  1  0  0  0
 11  2  1  0  0  0
  9  4  1  0  0  0
 23 17  1  0  0  0
 15 16  1  0  0  0
 21 24  1  0  0  0
M  END
> <minimizedAffinity>
-8.26202

> <CNNscore>
0.9270313978

> <CNNaffinity>
7.1939229965

> <CNN_VS>
6.6689925194

> <CNNaffinity_variance>
0.0730194971

$$$$
[H]Oc1c([H])c([H])c(N([H])c2nc([H])nc3c([H])c4oc(=O)n(C([H])([H])C([H])([H])C([H])([H])C(=O)OC([H])([H])C([H])([H])[H])c4c([H])c23)c([H])c1[H]


 32 35  0  0  0  0  0  0  0  0999 V2000
   -0.4770  -53.2659  -22.2410 N   0  0  0  0  0  0  0  0  0  0  0  0
   -0.0726  -53.3414  -23.5206 C   0  0  0  0  0  0  0  0  0  0  0  0
    0.7726  -52.5242  -24.2568 C   0  0  0  0  0  0  0  0  0  0  0  0
    1.0500  -52.7980  -25.5758 C   0  0  0  0  0  0  0  0  0  0  0  0
    1.8926  -51.9997  -26.3472 C   0  0  0  0  0  0  0  0  0  0  0  0
    2.0740  -52.3800  -27.6159 N   0  0  0  0  0  0  0  0  0  0  0  0
    1.5082  -53.4596  -28.1830 C   0  0  0  0  0  0  0  0  0  0  0  0
    0.6966  -54.2262  -27.4347 N   0  0  0  0  0  0  0  0  0  0  0  0
    0.4513  -53.9272  -26.1493 C   0  0  0  0  0  0  0  0  0  0  0  0
   -0.3830  -54.7250  -25.4056 C   0  0  0  0  0  0  0  0  0  0  0  0
   -0.6603  -54.4509  -24.0856 C   0  0  0  0  0  0  0  0  0  0  0  0
   -1.3911  -55.0080  -23.1525 O   0  0  0  0  0  0  0  0  0  0  0  0
   -1.2938  -54.3101  -22.0368 C   0  0  0  0  0  0  0  0  0  0  0  0
   -1.8761  -54.5866  -20.9604 O   0  0  0  0  0  0  0  0  0  0  0  0
    2.5169  -50.8805  -25.7592 N   0  0  0  0  0  0  0  0  0  0  0  0
    2.3057  -49.8924  -26.1153 H   0  0  0  0  0  0  0  0  0  0  0  0
    3.4381  -50.9291  -24.6994 C   0  0  0  0  0  0  0  0  0  0  0  0
    3.4306  -50.0756  -23.6475 C   0  0  0  0  0  0  0  0  0  0  0  0
    4.3980  -50.1504  -22.6266 C   0  0  0  0  0  0  0  0  0  0  0  0
    5.3696  -51.1148  -22.7048 C   0  0  0  0  0  0  0  0  0  0  0  0
    6.3150  -51.1743  -21.6905 O   0  0  0  0  0  0  0  0  0  0  0  0
    5.4002  -52.0059  -23.7752 C   0  0  0  0  0  0  0  0  0  0  0  0
    4.4335  -51.8832  -24.7369 C   0  0  0  0  0  0  0  0  0  0  0  0
    6.1278  -51.7460  -20.8981 H   0  0  0  0  0  0  0  0  0  0  0  0
   -0.0865  -52.2316  -21.2727 C   0  0  0  0  0  0  0  0  0  0  0  0
    0.9760  -52.7759  -20.3702 C   0  0  0  0  0  0  0  0  0  0  0  0
    1.7906  -51.7674  -19.6437 C   0  0  0  0  0  0  0  0  0  0  0  0
    1.0837  -50.5360  -19.2663 C   0  0  0  0  0  0  0  0  0  0  0  0
    1.3818  -49.4411  -19.7629 O   0  0  0  0  0  0  0  0  0  0  0  0
    0.0633  -50.6096  -18.3343 O   0  0  0  0  0  0  0  0  0  0  0  0
   -0.8438  -52.1314  -16.7373 C   0  0  0  0  0  0  0  0  0  0  0  0
    0.2557  -51.1388  -17.0556 C   0  0  0  0  0  0  0  0  0  0  0  0
 31 32  1  0  0  0
 32 30  1  0  0  0
 30 28  1  0  0  0
 28 29  2  0  0  0
 28 27  1  0  0  0
 27 26  1  0  0  0
 26 25  1  0  0  0
 25  1  1  0  0  0
  1  2  1  0  0  0
  2  3  2  0  0  0
  3  4  1  0  0  0
  4  5  2  0  0  0
  5 15  1  0  0  0
 15 17  1  0  0  0
 17 18  2  0  0  0
 18 19  1  0  0  0
 19 20  2  0  0  0
 20 21  1  0  0  0
 20 22  1  0  0  0
 22 23  2  0  0  0
  5  6  1  0  0  0
  6  7  2  0  0  0
  7  8  1  0  0  0
  8  9  2  0  0  0
  9 10  1  0  0  0
 10 11  2  0  0  0
 11 12  1  0  0  0
 12 13  1  0  0  0
 13 14  2  0  0  0
 13  1  1  0  0  0
 11  2  1  0  0  0
  9  4  1  0  0  0
 23 17  1  0  0  0
 15 16  1  0  0  0
 21 24  1  0  0  0
M  END
> <minimizedAffinity>
-7.69128

> <CNNscore>
0.5915530920

> <CNNaffinity>
6.9812140465

> <CNN_VS>
4.1297588348

> <CNNaffinity_variance>
0.0474193692

$$$$
[H]Oc1c([H])c([H])c(N([H])c2nc([H])nc3c([H])c4oc(=O)n(C([H])([H])C([H])([H])C([H])([H])C(=O)OC([H])([H])C([H])([H])[H])c4c([H])c23)c([H])c1[H]


 32 35  0  0  0  0  0  0  0  0999 V2000
   -0.6462  -52.7994  -21.0789 N   0  0  0  0  0  0  0  0  0  0  0  0
   -0.4598  -53.2725  -22.3231 C   0  0  0  0  0  0  0  0  0  0  0  0
    0.3003  -52.7861  -23.3765 C   0  0  0  0  0  0  0  0  0  0  0  0
    0.3437  -53.4465  -24.5821 C   0  0  0  0  0  0  0  0  0  0  0  0
    1.0945  -52.9877  -25.6630 C   0  0  0  0  0  0  0  0  0  0  0  0
    1.0454  -53.7258  -26.7765 N   0  0  0  0  0  0  0  0  0  0  0  0
    0.3339  -54.8577  -26.9174 C   0  0  0  0  0  0  0  0  0  0  0  0
   -0.3882  -55.2960  -25.8721 N   0  0  0  0  0  0  0  0  0  0  0  0
   -0.4041  -54.6242  -24.7101 C   0  0  0  0  0  0  0  0  0  0  0  0
   -1.1511  -55.0912  -23.6568 C   0  0  0  0  0  0  0  0  0  0  0  0
   -1.1943  -54.4301  -22.4503 C   0  0  0  0  0  0  0  0  0  0  0  0
   -1.7948  -54.6248  -21.3028 O   0  0  0  0  0  0  0  0  0  0  0  0
   -1.4777  -53.6550  -20.4659 C   0  0  0  0  0  0  0  0  0  0  0  0
   -1.8925  -53.5567  -19.2859 O   0  0  0  0  0  0  0  0  0  0  0  0
    1.8693  -51.8181  -25.5219 N   0  0  0  0  0  0  0  0  0  0  0  0
    1.6052  -50.9254  -26.0522 H   0  0  0  0  0  0  0  0  0  0  0  0
    3.0143  -51.6956  -24.7169 C   0  0  0  0  0  0  0  0  0  0  0  0
    3.8842  -52.7056  -24.4759 C   0  0  0  0  0  0  0  0  0  0  0  0
    5.0011  -52.5359  -23.6348 C   0  0  0  0  0  0  0  0  0  0  0  0
    5.2083  -51.3138  -23.0483 C   0  0  0  0  0  0  0  0  0  0  0  0
    6.3135  -51.1639  -22.2225 O   0  0  0  0  0  0  0  0  0  0  0  0
    4.3298  -50.2577  -23.2798 C   0  0  0  0  0  0  0  0  0  0  0  0
    3.2620  -50.4838  -24.1063 C   0  0  0  0  0  0  0  0  0  0  0  0
    7.1722  -50.8642  -22.6259 H   0  0  0  0  0  0  0  0  0  0  0  0
   -0.0448  -51.5800  -20.5208 C   0  0  0  0  0  0  0  0  0  0  0  0
    1.3398  -51.8864  -20.0427 C   0  0  0  0  0  0  0  0  0  0  0  0
    2.3647  -50.8438  -20.3091 C   0  0  0  0  0  0  0  0  0  0  0  0
    3.5267  -50.8545  -19.4102 C   0  0  0  0  0  0  0  0  0  0  0  0
    4.6248  -50.4062  -19.7674 O   0  0  0  0  0  0  0  0  0  0  0  0
    3.3827  -51.3788  -18.1375 O   0  0  0  0  0  0  0  0  0  0  0  0
    2.4619  -49.6264  -16.8072 C   0  0  0  0  0  0  0  0  0  0  0  0
    3.5951  -50.6159  -16.9864 C   0  0  0  0  0  0  0  0  0  0  0  0
 31 32  1  0  0  0
 32 30  1  0  0  0
 30 28  1  0  0  0
 28 29  2  0  0  0
 28 27  1  0  0  0
 27 26  1  0  0  0
 26 25  1  0  0  0
 25  1  1  0  0  0
  1  2  1  0  0  0
  2  3  2  0  0  0
  3  4  1  0  0  0
  4  5  2  0  0  0
  5 15  1  0  0  0
 15 17  1  0  0  0
 17 18  2  0  0  0
 18 19  1  0  0  0
 19 20  2  0  0  0
 20 21  1  0  0  0
 20 22  1  0  0  0
 22 23  2  0  0  0
  5  6  1  0  0  0
  6  7  2  0  0  0
  7  8  1  0  0  0
  8  9  2  0  0  0
  9 10  1  0  0  0
 10 11  2  0  0  0
 11 12  1  0  0  0
 12 13  1  0  0  0
 13 14  2  0  0  0
 13  1  1  0  0  0
 11  2  1  0  0  0
  9  4  1  0  0  0
 23 17  1  0  0  0
 15 16  1  0  0  0
 21 24  1  0  0  0
M  END
> <minimizedAffinity>
-7.72527

> <CNNscore>
0.5857526064

> <CNNaffinity>
6.7974653244

> <CNN_VS>
3.9816329479

> <CNNaffinity_variance>
0.1075701118

$$$$
[H]Oc1c([H])c([H])c(N([H])c2nc([H])nc3c([H])c4oc(=O)n(C([H])([H])C([H])([H])C([H])([H])C(=O)OC([H])([H])C([H])([H])[H])c4c([H])c23)c([H])c1[H]


 32 35  0  0  0  0  0  0  0  0999 V2000
    1.0729  -53.4315  -25.7146 N   0  0  0  0  0  0  0  0  0  0  0  0
    0.5222  -53.4886  -24.4898 C   0  0  0  0  0  0  0  0  0  0  0  0
    0.7914  -52.7654  -23.3371 C   0  0  0  0  0  0  0  0  0  0  0  0
    0.0904  -52.9965  -22.1767 C   0  0  0  0  0  0  0  0  0  0  0  0
    0.3336  -52.2912  -20.9994 C   0  0  0  0  0  0  0  0  0  0  0  0
   -0.4196  -52.6182  -19.9445 N   0  0  0  0  0  0  0  0  0  0  0  0
   -1.3759  -53.5631  -19.9464 C   0  0  0  0  0  0  0  0  0  0  0  0
   -1.6066  -54.2402  -21.0842 N   0  0  0  0  0  0  0  0  0  0  0  0
   -0.9022  -53.9847  -22.1979 C   0  0  0  0  0  0  0  0  0  0  0  0
   -1.1553  -54.6912  -23.3479 C   0  0  0  0  0  0  0  0  0  0  0  0
   -0.4537  -54.4596  -24.5092 C   0  0  0  0  0  0  0  0  0  0  0  0
   -0.4690  -54.9560  -25.7210 O   0  0  0  0  0  0  0  0  0  0  0  0
    0.4415  -54.3507  -26.4600 C   0  0  0  0  0  0  0  0  0  0  0  0
    0.6733  -54.6015  -27.6673 O   0  0  0  0  0  0  0  0  0  0  0  0
    1.3131  -51.2769  -20.9890 N   0  0  0  0  0  0  0  0  0  0  0  0
    1.6937  -50.8811  -21.9089 H   0  0  0  0  0  0  0  0  0  0  0  0
    1.8734  -50.7020  -19.8359 C   0  0  0  0  0  0  0  0  0  0  0  0
    1.3478  -49.6351  -19.1876 C   0  0  0  0  0  0  0  0  0  0  0  0
    1.9685  -49.0794  -18.0520 C   0  0  0  0  0  0  0  0  0  0  0  0
    3.1346  -49.6378  -17.5952 C   0  0  0  0  0  0  0  0  0  0  0  0
    3.7330  -49.0779  -16.4753 O   0  0  0  0  0  0  0  0  0  0  0  0
    3.6964  -50.7361  -18.2425 C   0  0  0  0  0  0  0  0  0  0  0  0
    3.0472  -51.2315  -19.3413 C   0  0  0  0  0  0  0  0  0  0  0  0
    3.4796  -49.4231  -15.5773 H   0  0  0  0  0  0  0  0  0  0  0  0
    2.1546  -52.5287  -26.1325 C   0  0  0  0  0  0  0  0  0  0  0  0
    1.6204  -51.1349  -26.2412 C   0  0  0  0  0  0  0  0  0  0  0  0
    2.4202  -50.0784  -25.5685 C   0  0  0  0  0  0  0  0  0  0  0  0
    3.3662  -49.3561  -26.4298 C   0  0  0  0  0  0  0  0  0  0  0  0
    3.5574  -49.6938  -27.6062 O   0  0  0  0  0  0  0  0  0  0  0  0
    4.0551  -48.2753  -25.9075 O   0  0  0  0  0  0  0  0  0  0  0  0
    2.7050  -46.5419  -26.8356 C   0  0  0  0  0  0  0  0  0  0  0  0
    3.4283  -47.0625  -25.6104 C   0  0  0  0  0  0  0  0  0  0  0  0
 31 32  1  0  0  0
 32 30  1  0  0  0
 30 28  1  0  0  0
 28 29  2  0  0  0
 28 27  1  0  0  0
 27 26  1  0  0  0
 26 25  1  0  0  0
 25  1  1  0  0  0
  1  2  1  0  0  0
  2  3  2  0  0  0
  3  4  1  0  0  0
  4  5  2  0  0  0
  5 15  1  0  0  0
 15 17  1  0  0  0
 17 18  2  0  0  0
 18 19  1  0  0  0
 19 20  2  0  0  0
 20 21  1  0  0  0
 20 22  1  0  0  0
 22 23  2  0  0  0
  5  6  1  0  0  0
  6  7  2  0  0  0
  7  8  1  0  0  0
  8  9  2  0  0  0
  9 10  1  0  0  0
 10 11  2  0  0  0
 11 12  1  0  0  0
 12 13  1  0  0  0
 13 14  2  0  0  0
 13  1  1  0  0  0
 11  2  1  0  0  0
  9  4  1  0  0  0
 23 17  1  0  0  0
 15 16  1  0  0  0
 21 24  1  0  0  0
M  END
> <minimizedAffinity>
-7.38261

> <CNNscore>
0.5287469029

> <CNNaffinity>
6.8311958313

> <CNN_VS>
3.6119735241

> <CNNaffinity_variance>
0.2787095606

$$$$
[H]Oc1c([H])c([H])c(N([H])c2nc([H])nc3c([H])c4oc(=O)n(C([H])([H])C([H])([H])C([H])([H])C(=O)OC([H])([H])C([H])([H])[H])c4c([H])c23)c([H])c1[H]


 32 35  0  0  0  0  0  0  0  0999 V2000
    0.6942  -53.8645  -25.3466 N   0  0  0  0  0  0  0  0  0  0  0  0
    0.1990  -53.8136  -24.0980 C   0  0  0  0  0  0  0  0  0  0  0  0
    0.4664  -52.9470  -23.0484 C   0  0  0  0  0  0  0  0  0  0  0  0
   -0.1698  -53.0852  -21.8369 C   0  0  0  0  0  0  0  0  0  0  0  0
    0.0739  -52.2352  -20.7596 C   0  0  0  0  0  0  0  0  0  0  0  0
   -0.6123  -52.4839  -19.6396 N   0  0  0  0  0  0  0  0  0  0  0  0
   -1.5031  -53.4795  -19.4891 C   0  0  0  0  0  0  0  0  0  0  0  0
   -1.7346  -54.2962  -20.5311 N   0  0  0  0  0  0  0  0  0  0  0  0
   -1.0947  -54.1283  -21.6990 C   0  0  0  0  0  0  0  0  0  0  0  0
   -1.3471  -54.9769  -22.7487 C   0  0  0  0  0  0  0  0  0  0  0  0
   -0.7103  -54.8383  -23.9611 C   0  0  0  0  0  0  0  0  0  0  0  0
   -0.7420  -55.4712  -25.1072 O   0  0  0  0  0  0  0  0  0  0  0  0
    0.0954  -54.9006  -25.9525 C   0  0  0  0  0  0  0  0  0  0  0  0
    0.2938  -55.2743  -27.1337 O   0  0  0  0  0  0  0  0  0  0  0  0
    0.9835  -51.1684  -20.9105 N   0  0  0  0  0  0  0  0  0  0  0  0
    1.1004  -50.6856  -21.8598 H   0  0  0  0  0  0  0  0  0  0  0  0
    1.7976  -50.6461  -19.8915 C   0  0  0  0  0  0  0  0  0  0  0  0
    2.8540  -51.3013  -19.3534 C   0  0  0  0  0  0  0  0  0  0  0  0
    3.6188  -50.7426  -18.3109 C   0  0  0  0  0  0  0  0  0  0  0  0
    3.2805  -49.5026  -17.8331 C   0  0  0  0  0  0  0  0  0  0  0  0
    4.0444  -48.9669  -16.8057 O   0  0  0  0  0  0  0  0  0  0  0  0
    2.1993  -48.8065  -18.3690 C   0  0  0  0  0  0  0  0  0  0  0  0
    1.4938  -49.4015  -19.3802 C   0  0  0  0  0  0  0  0  0  0  0  0
    4.8365  -48.4124  -17.0406 H   0  0  0  0  0  0  0  0  0  0  0  0
    1.6957  -52.9514  -25.9150 C   0  0  0  0  0  0  0  0  0  0  0  0
    0.9985  -51.8419  -26.6381 C   0  0  0  0  0  0  0  0  0  0  0  0
   -0.3227  -51.4388  -26.0901 C   0  0  0  0  0  0  0  0  0  0  0  0
   -1.4913  -51.9063  -26.8479 C   0  0  0  0  0  0  0  0  0  0  0  0
   -2.5090  -52.3211  -26.2764 O   0  0  0  0  0  0  0  0  0  0  0  0
   -1.4460  -51.8792  -28.2309 O   0  0  0  0  0  0  0  0  0  0  0  0
   -0.2077  -53.0240  -29.9176 C   0  0  0  0  0  0  0  0  0  0  0  0
   -1.4135  -53.0449  -29.0005 C   0  0  0  0  0  0  0  0  0  0  0  0
 31 32  1  0  0  0
 32 30  1  0  0  0
 30 28  1  0  0  0
 28 29  2  0  0  0
 28 27  1  0  0  0
 27 26  1  0  0  0
 26 25  1  0  0  0
 25  1  1  0  0  0
  1  2  1  0  0  0
  2  3  2  0  0  0
  3  4  1  0  0  0
  4  5  2  0  0  0
  5 15  1  0  0  0
 15 17  1  0  0  0
 17 18  2  0  0  0
 18 19  1  0  0  0
 19 20  2  0  0  0
 20 21  1  0  0  0
 20 22  1  0  0  0
 22 23  2  0  0  0
  5  6  1  0  0  0
  6  7  2  0  0  0
  7  8  1  0  0  0
  8  9  2  0  0  0
  9 10  1  0  0  0
 10 11  2  0  0  0
 11 12  1  0  0  0
 12 13  1  0  0  0
 13 14  2  0  0  0
 13  1  1  0  0  0
 11  2  1  0  0  0
  9  4  1  0  0  0
 23 17  1  0  0  0
 15 16  1  0  0  0
 21 24  1  0  0  0
M  END
> <minimizedAffinity>
-7.68876

> <CNNscore>
0.5179973245

> <CNNaffinity>
6.8138427734

> <CNN_VS>
3.5295522213

> <CNNaffinity_variance>
0.0596128702

$$$$
[H]Oc1c([H])c([H])c(N([H])c2nc([H])nc3c([H])c4oc(=O)n(C([H])([H])C([H])([H])C([H])([H])C(=O)OC([H])([H])C([H])([H])[H])c4c([H])c23)c([H])c1[H]


 32 35  0  0  0  0  0  0  0  0999 V2000
    0.3335  -53.6524  -23.5579 N   0  0  0  0  0  0  0  0  0  0  0  0
    0.1021  -53.3493  -22.2690 C   0  0  0  0  0  0  0  0  0  0  0  0
    0.8230  -52.5724  -21.3740 C   0  0  0  0  0  0  0  0  0  0  0  0
    0.3900  -52.3972  -20.0805 C   0  0  0  0  0  0  0  0  0  0  0  0
    1.0878  -51.6254  -19.1532 C   0  0  0  0  0  0  0  0  0  0  0  0
    0.5553  -51.5409  -17.9299 N   0  0  0  0  0  0  0  0  0  0  0  0
   -0.5854  -52.1395  -17.5452 C   0  0  0  0  0  0  0  0  0  0  0  0
   -1.2545  -52.8823  -18.4433 N   0  0  0  0  0  0  0  0  0  0  0  0
   -0.8006  -53.0285  -19.6980 C   0  0  0  0  0  0  0  0  0  0  0  0
   -1.5014  -53.7940  -20.5972 C   0  0  0  0  0  0  0  0  0  0  0  0
   -1.0679  -53.9691  -21.8918 C   0  0  0  0  0  0  0  0  0  0  0  0
   -1.5067  -54.6190  -22.9408 O   0  0  0  0  0  0  0  0  0  0  0  0
   -0.6777  -54.4406  -23.9519 C   0  0  0  0  0  0  0  0  0  0  0  0
   -0.8204  -54.9338  -25.0968 O   0  0  0  0  0  0  0  0  0  0  0  0
    2.2703  -50.9673  -19.5491 N   0  0  0  0  0  0  0  0  0  0  0  0
    3.2173  -51.2639  -19.1452 H   0  0  0  0  0  0  0  0  0  0  0  0
    2.3394  -49.9047  -20.4657 C   0  0  0  0  0  0  0  0  0  0  0  0
    1.4082  -48.9259  -20.5645 C   0  0  0  0  0  0  0  0  0  0  0  0
    1.5117  -47.8997  -21.5237 C   0  0  0  0  0  0  0  0  0  0  0  0
    2.5857  -47.8964  -22.3762 C   0  0  0  0  0  0  0  0  0  0  0  0
    2.6721  -46.8782  -23.3152 O   0  0  0  0  0  0  0  0  0  0  0  0
    3.5584  -48.8905  -22.2957 C   0  0  0  0  0  0  0  0  0  0  0  0
    3.4027  -49.8615  -21.3433 C   0  0  0  0  0  0  0  0  0  0  0  0
    3.1518  -46.0422  -23.0683 H   0  0  0  0  0  0  0  0  0  0  0  0
    1.4783  -53.1965  -24.3589 C   0  0  0  0  0  0  0  0  0  0  0  0
    1.2013  -51.8203  -24.8777 C   0  0  0  0  0  0  0  0  0  0  0  0
    1.2975  -51.6498  -26.3508 C   0  0  0  0  0  0  0  0  0  0  0  0
    1.7131  -52.8432  -27.1001 C   0  0  0  0  0  0  0  0  0  0  0  0
    2.9027  -53.1813  -27.1698 O   0  0  0  0  0  0  0  0  0  0  0  0
    0.7477  -53.6012  -27.7395 O   0  0  0  0  0  0  0  0  0  0  0  0
   -0.6454  -52.7215  -29.4642 C   0  0  0  0  0  0  0  0  0  0  0  0
   -0.5335  -53.1105  -28.0042 C   0  0  0  0  0  0  0  0  0  0  0  0
 31 32  1  0  0  0
 32 30  1  0  0  0
 30 28  1  0  0  0
 28 29  2  0  0  0
 28 27  1  0  0  0
 27 26  1  0  0  0
 26 25  1  0  0  0
 25  1  1  0  0  0
  1  2  1  0  0  0
  2  3  2  0  0  0
  3  4  1  0  0  0
  4  5  2  0  0  0
  5 15  1  0  0  0
 15 17  1  0  0  0
 17 18  2  0  0  0
 18 19  1  0  0  0
 19 20  2  0  0  0
 20 21  1  0  0  0
 20 22  1  0  0  0
 22 23  2  0  0  0
  5  6  1  0  0  0
  6  7  2  0  0  0
  7  8  1  0  0  0
  8  9  2  0  0  0
  9 10  1  0  0  0
 10 11  2  0  0  0
 11 12  1  0  0  0
 12 13  1  0  0  0
 13 14  2  0  0  0
 13  1  1  0  0  0
 11  2  1  0  0  0
  9  4  1  0  0  0
 23 17  1  0  0  0
 15 16  1  0  0  0
 21 24  1  0  0  0
M  END
> <minimizedAffinity>
-7.48803

> <CNNscore>
0.4868969023

> <CNNaffinity>
6.9993171692

> <CNN_VS>
3.4079458714

> <CNNaffinity_variance>
0.1192737222

$$$$
[H]Oc1c([H])c([H])c(N([H])c2nc([H])nc3c([H])c4oc(=O)n(C([H])([H])C([H])([H])C([H])([H])C(=O)OC([H])([H])C([H])([H])[H])c4c([H])c23)c([H])c1[H]


 32 35  0  0  0  0  0  0  0  0999 V2000
   -0.5267  -53.8998  -23.7796 N   0  0  0  0  0  0  0  0  0  0  0  0
   -0.3161  -53.2522  -22.6207 C   0  0  0  0  0  0  0  0  0  0  0  0
    0.2909  -52.0329  -22.3577 C   0  0  0  0  0  0  0  0  0  0  0  0
    0.3974  -51.5582  -21.0714 C   0  0  0  0  0  0  0  0  0  0  0  0
    1.0014  -50.3392  -20.7685 C   0  0  0  0  0  0  0  0  0  0  0  0
    1.0387  -49.9996  -19.4760 N   0  0  0  0  0  0  0  0  0  0  0  0
    0.5417  -50.7422  -18.4716 C   0  0  0  0  0  0  0  0  0  0  0  0
   -0.0399  -51.9167  -18.7691 N   0  0  0  0  0  0  0  0  0  0  0  0
   -0.1264  -52.3458  -20.0380 C   0  0  0  0  0  0  0  0  0  0  0  0
   -0.7239  -53.5504  -20.3166 C   0  0  0  0  0  0  0  0  0  0  0  0
   -0.8304  -54.0252  -21.6041 C   0  0  0  0  0  0  0  0  0  0  0  0
   -1.3295  -55.0999  -22.1619 O   0  0  0  0  0  0  0  0  0  0  0  0
   -1.1564  -55.0427  -23.4689 C   0  0  0  0  0  0  0  0  0  0  0  0
   -1.5254  -55.9220  -24.2842 O   0  0  0  0  0  0  0  0  0  0  0  0
    1.5014  -49.5350  -21.8132 N   0  0  0  0  0  0  0  0  0  0  0  0
    0.9963  -48.6322  -22.0920 H   0  0  0  0  0  0  0  0  0  0  0  0
    2.6537  -49.8103  -22.5685 C   0  0  0  0  0  0  0  0  0  0  0  0
    2.8446  -49.3904  -23.8421 C   0  0  0  0  0  0  0  0  0  0  0  0
    4.0075  -49.7215  -24.5644 C   0  0  0  0  0  0  0  0  0  0  0  0
    4.9681  -50.4885  -23.9568 C   0  0  0  0  0  0  0  0  0  0  0  0
    6.1075  -50.8056  -24.6828 O   0  0  0  0  0  0  0  0  0  0  0  0
    4.7977  -50.9330  -22.6475 C   0  0  0  0  0  0  0  0  0  0  0  0
    3.6461  -50.5792  -21.9971 C   0  0  0  0  0  0  0  0  0  0  0  0
    6.8885  -50.1910  -24.6356 H   0  0  0  0  0  0  0  0  0  0  0  0
   -0.1349  -53.4275  -25.1150 C   0  0  0  0  0  0  0  0  0  0  0  0
    1.3581  -53.3685  -25.1996 C   0  0  0  0  0  0  0  0  0  0  0  0
    1.9171  -52.3219  -26.0944 C   0  0  0  0  0  0  0  0  0  0  0  0
    2.2239  -52.7577  -27.4635 C   0  0  0  0  0  0  0  0  0  0  0  0
    3.2471  -53.4064  -27.7217 O   0  0  0  0  0  0  0  0  0  0  0  0
    1.3449  -52.4322  -28.4816 O   0  0  0  0  0  0  0  0  0  0  0  0
   -1.0283  -52.5476  -28.6909 C   0  0  0  0  0  0  0  0  0  0  0  0
    0.2925  -53.2711  -28.8571 C   0  0  0  0  0  0  0  0  0  0  0  0
 31 32  1  0  0  0
 32 30  1  0  0  0
 30 28  1  0  0  0
 28 29  2  0  0  0
 28 27  1  0  0  0
 27 26  1  0  0  0
 26 25  1  0  0  0
 25  1  1  0  0  0
  1  2  1  0  0  0
  2  3  2  0  0  0
  3  4  1  0  0  0
  4  5  2  0  0  0
  5 15  1  0  0  0
 15 17  1  0  0  0
 17 18  2  0  0  0
 18 19  1  0  0  0
 19 20  2  0  0  0
 20 21  1  0  0  0
 20 22  1  0  0  0
 22 23  2  0  0  0
  5  6  1  0  0  0
  6  7  2  0  0  0
  7  8  1  0  0  0
  8  9  2  0  0  0
  9 10  1  0  0  0
 10 11  2  0  0  0
 11 12  1  0  0  0
 12 13  1  0  0  0
 13 14  2  0  0  0
 13  1  1  0  0  0
 11  2  1  0  0  0
  9  4  1  0  0  0
 23 17  1  0  0  0
 15 16  1  0  0  0
 21 24  1  0  0  0
M  END
> <minimizedAffinity>
-8.20431

> <CNNscore>
0.4833071530

> <CNNaffinity>
7.0116233826

> <CNN_VS>
3.3887677193

> <CNNaffinity_variance>
0.0235588737

$$$$
[H]Oc1c([H])c([H])c(N([H])c2nc([H])nc3c([H])c4oc(=O)n(C([H])([H])C([H])([H])C([H])([H])C(=O)OC([H])([H])C([H])([H])[H])c4c([H])c23)c([H])c1[H]


 32 35  0  0  0  0  0  0  0  0999 V2000
    0.6590  -52.9879  -26.0617 N   0  0  0  0  0  0  0  0  0  0  0  0
    0.1913  -53.2035  -24.8201 C   0  0  0  0  0  0  0  0  0  0  0  0
    0.2847  -52.4374  -23.6675 C   0  0  0  0  0  0  0  0  0  0  0  0
   -0.2799  -52.8623  -22.4876 C   0  0  0  0  0  0  0  0  0  0  0  0
   -0.2055  -52.1209  -21.3098 C   0  0  0  0  0  0  0  0  0  0  0  0
   -0.7965  -52.6523  -20.2349 N   0  0  0  0  0  0  0  0  0  0  0  0
   -1.4442  -53.8303  -20.2176 C   0  0  0  0  0  0  0  0  0  0  0  0
   -1.5132  -54.5412  -21.3560 N   0  0  0  0  0  0  0  0  0  0  0  0
   -0.9507  -54.0921  -22.4890 C   0  0  0  0  0  0  0  0  0  0  0  0
   -1.0333  -54.8375  -23.6393 C   0  0  0  0  0  0  0  0  0  0  0  0
   -0.4683  -54.4120  -24.8200 C   0  0  0  0  0  0  0  0  0  0  0  0
   -0.3850  -54.8881  -26.0372 O   0  0  0  0  0  0  0  0  0  0  0  0
    0.2889  -54.0463  -26.7979 C   0  0  0  0  0  0  0  0  0  0  0  0
    0.5392  -54.2167  -28.0154 O   0  0  0  0  0  0  0  0  0  0  0  0
    0.4449  -50.8698  -21.3183 N   0  0  0  0  0  0  0  0  0  0  0  0
    0.0998  -50.0836  -21.9591 H   0  0  0  0  0  0  0  0  0  0  0  0
    1.5595  -50.5295  -20.5336 C   0  0  0  0  0  0  0  0  0  0  0  0
    2.6857  -51.2776  -20.4500 C   0  0  0  0  0  0  0  0  0  0  0  0
    3.7627  -50.9044  -19.6226 C   0  0  0  0  0  0  0  0  0  0  0  0
    3.6628  -49.7524  -18.8856 C   0  0  0  0  0  0  0  0  0  0  0  0
    4.7330  -49.3995  -18.0756 O   0  0  0  0  0  0  0  0  0  0  0  0
    2.5162  -48.9640  -18.9534 C   0  0  0  0  0  0  0  0  0  0  0  0
    1.5028  -49.3789  -19.7750 C   0  0  0  0  0  0  0  0  0  0  0  0
    5.4505  -48.8259  -18.4577 H   0  0  0  0  0  0  0  0  0  0  0  0
    1.4238  -51.8132  -26.5032 C   0  0  0  0  0  0  0  0  0  0  0  0
    2.8624  -52.1926  -26.6648 C   0  0  0  0  0  0  0  0  0  0  0  0
    3.4914  -52.8662  -25.4990 C   0  0  0  0  0  0  0  0  0  0  0  0
    4.2124  -51.9837  -24.5716 C   0  0  0  0  0  0  0  0  0  0  0  0
    4.6025  -52.3866  -23.4671 O   0  0  0  0  0  0  0  0  0  0  0  0
    4.4570  -50.6746  -24.9481 O   0  0  0  0  0  0  0  0  0  0  0  0
    2.8611  -49.3825  -23.7347 C   0  0  0  0  0  0  0  0  0  0  0  0
    4.3242  -49.6043  -24.0599 C   0  0  0  0  0  0  0  0  0  0  0  0
 31 32  1  0  0  0
 32 30  1  0  0  0
 30 28  1  0  0  0
 28 29  2  0  0  0
 28 27  1  0  0  0
 27 26  1  0  0  0
 26 25  1  0  0  0
 25  1  1  0  0  0
  1  2  1  0  0  0
  2  3  2  0  0  0
  3  4  1  0  0  0
  4  5  2  0  0  0
  5 15  1  0  0  0
 15 17  1  0  0  0
 17 18  2  0  0  0
 18 19  1  0  0  0
 19 20  2  0  0  0
 20 21  1  0  0  0
 20 22  1  0  0  0
 22 23  2  0  0  0
  5  6  1  0  0  0
  6  7  2  0  0  0
  7  8  1  0  0  0
  8  9  2  0  0  0
  9 10  1  0  0  0
 10 11  2  0  0  0
 11 12  1  0  0  0
 12 13  1  0  0  0
 13 14  2  0  0  0
 13  1  1  0  0  0
 11  2  1  0  0  0
  9  4  1  0  0  0
 23 17  1  0  0  0
 15 16  1  0  0  0
 21 24  1  0  0  0
M  END
> <minimizedAffinity>
-7.57012

> <CNNscore>
0.4783190787

> <CNNaffinity>
6.5750870705

> <CNN_VS>
3.1449894905

> <CNNaffinity_variance>
0.1600545347

$$$$
[H]Oc1c([H])c([H])c(N([H])c2nc([H])nc3c([H])c4oc(=O)n(C([H])([H])C([H])([H])C([H])([H])C(=O)OC([H])([H])C([H])([H])[H])c4c([H])c23)c([H])c1[H]


 32 35  0  0  0  0  0  0  0  0999 V2000
   -0.2294  -53.6368  -21.9816 N   0  0  0  0  0  0  0  0  0  0  0  0
    0.0745  -52.9574  -20.8624 C   0  0  0  0  0  0  0  0  0  0  0  0
    1.1125  -52.0800  -20.5848 C   0  0  0  0  0  0  0  0  0  0  0  0
    1.2293  -51.4906  -19.3477 C   0  0  0  0  0  0  0  0  0  0  0  0
    2.2586  -50.6057  -19.0317 C   0  0  0  0  0  0  0  0  0  0  0  0
    2.2535  -50.1069  -17.7914 N   0  0  0  0  0  0  0  0  0  0  0  0
    1.3390  -50.3978  -16.8499 C   0  0  0  0  0  0  0  0  0  0  0  0
    0.3484  -51.2514  -17.1598 N   0  0  0  0  0  0  0  0  0  0  0  0
    0.2670  -51.8056  -18.3796 C   0  0  0  0  0  0  0  0  0  0  0  0
   -0.7538  -52.6765  -18.6717 C   0  0  0  0  0  0  0  0  0  0  0  0
   -0.8705  -53.2661  -19.9099 C   0  0  0  0  0  0  0  0  0  0  0  0
   -1.7061  -54.1078  -20.4654 O   0  0  0  0  0  0  0  0  0  0  0  0
   -1.3372  -54.3427  -21.7105 C   0  0  0  0  0  0  0  0  0  0  0  0
   -1.9338  -55.1065  -22.5072 O   0  0  0  0  0  0  0  0  0  0  0  0
    3.2089  -50.2677  -20.0171 N   0  0  0  0  0  0  0  0  0  0  0  0
    4.0433  -50.9117  -20.2093 H   0  0  0  0  0  0  0  0  0  0  0  0
    3.1747  -49.1113  -20.8144 C   0  0  0  0  0  0  0  0  0  0  0  0
    2.0348  -48.4963  -21.2109 C   0  0  0  0  0  0  0  0  0  0  0  0
    2.0578  -47.3555  -22.0366 C   0  0  0  0  0  0  0  0  0  0  0  0
    3.2687  -46.8589  -22.4457 C   0  0  0  0  0  0  0  0  0  0  0  0
    3.2732  -45.7344  -23.2590 O   0  0  0  0  0  0  0  0  0  0  0  0
    4.4564  -47.4714  -22.0519 C   0  0  0  0  0  0  0  0  0  0  0  0
    4.3697  -48.5773  -21.2495 C   0  0  0  0  0  0  0  0  0  0  0  0
    3.3039  -44.8370  -22.8305 H   0  0  0  0  0  0  0  0  0  0  0  0
    0.5207  -53.5974  -23.2449 C   0  0  0  0  0  0  0  0  0  0  0  0
    0.3526  -52.2514  -23.8772 C   0  0  0  0  0  0  0  0  0  0  0  0
    1.4596  -51.8074  -24.7637 C   0  0  0  0  0  0  0  0  0  0  0  0
    2.5812  -51.1395  -24.0893 C   0  0  0  0  0  0  0  0  0  0  0  0
    3.3084  -51.7451  -23.2901 O   0  0  0  0  0  0  0  0  0  0  0  0
    2.8238  -49.8039  -24.3587 O   0  0  0  0  0  0  0  0  0  0  0  0
    3.3733  -49.0338  -26.5481 C   0  0  0  0  0  0  0  0  0  0  0  0
    3.8845  -49.3849  -25.1658 C   0  0  0  0  0  0  0  0  0  0  0  0
 31 32  1  0  0  0
 32 30  1  0  0  0
 30 28  1  0  0  0
 28 29  2  0  0  0
 28 27  1  0  0  0
 27 26  1  0  0  0
 26 25  1  0  0  0
 25  1  1  0  0  0
  1  2  1  0  0  0
  2  3  2  0  0  0
  3  4  1  0  0  0
  4  5  2  0  0  0
  5 15  1  0  0  0
 15 17  1  0  0  0
 17 18  2  0  0  0
 18 19  1  0  0  0
 19 20  2  0  0  0
 20 21  1  0  0  0
 20 22  1  0  0  0
 22 23  2  0  0  0
  5  6  1  0  0  0
  6  7  2  0  0  0
  7  8  1  0  0  0
  8  9  2  0  0  0
  9 10  1  0  0  0
 10 11  2  0  0  0
 11 12  1  0  0  0
 12 13  1  0  0  0
 13 14  2  0  0  0
 13  1  1  0  0  0
 11  2  1  0  0  0
  9  4  1  0  0  0
 23 17  1  0  0  0
 15 16  1  0  0  0
 21 24  1  0  0  0
M  END
> <minimizedAffinity>
-6.10121

> <CNNscore>
0.4434485435

> <CNNaffinity>
6.4117584229

> <CNN_VS>
2.8432848454

> <CNNaffinity_variance>
0.0765318274

$$$$
[H]c1nc(N([H])c2c([H])c([H])c(F)c(Cl)c2[H])c2c([H])c(OC([H])([H])[H])c(OC([H])([H])C([H])([H])C([H])([H])C([H])([H])n3c([N+](=O)[O-])nc([H])c3[H])c([H])c2n1


 35 38  0  0  0  0  0  0  0  0999 V2000
    0.4629  -51.0321  -20.3806 C   0  0  0  0  0  0  0  0  0  0  0  0
    0.4189  -51.4044  -21.7017 C   0  0  0  0  0  0  0  0  0  0  0  0
   -0.1185  -52.6067  -22.0953 C   0  0  0  0  0  0  0  0  0  0  0  0
   -0.1646  -52.9829  -23.4299 C   0  0  0  0  0  0  0  0  0  0  0  0
   -0.7195  -54.1843  -23.6614 N   0  0  0  0  0  0  0  0  0  0  0  0
   -1.2063  -54.9966  -22.7107 C   0  0  0  0  0  0  0  0  0  0  0  0
   -1.1463  -54.6031  -21.4281 N   0  0  0  0  0  0  0  0  0  0  0  0
   -0.6065  -53.4106  -21.0912 C   0  0  0  0  0  0  0  0  0  0  0  0
   -0.5651  -53.0417  -19.7541 C   0  0  0  0  0  0  0  0  0  0  0  0
   -0.0336  -51.8470  -19.3514 C   0  0  0  0  0  0  0  0  0  0  0  0
    1.0702  -48.7479  -20.9484 C   0  0  0  0  0  0  0  0  0  0  0  0
    1.0087  -49.8196  -20.0232 O   0  0  0  0  0  0  0  0  0  0  0  0
    0.3533  -52.1924  -24.4776 N   0  0  0  0  0  0  0  0  0  0  0  0
    0.8938  -51.3099  -24.2112 H   0  0  0  0  0  0  0  0  0  0  0  0
    0.2381  -52.4304  -25.8646 C   0  0  0  0  0  0  0  0  0  0  0  0
    1.2691  -52.6617  -26.7356 C   0  0  0  0  0  0  0  0  0  0  0  0
    1.0194  -52.8542  -28.1011 C   0  0  0  0  0  0  0  0  0  0  0  0
   -0.2634  -52.8167  -28.6004 C   0  0  0  0  0  0  0  0  0  0  0  0
   -0.5215  -52.9988  -29.9048 F   0  0  0  0  0  0  0  0  0  0  0  0
   -1.3177  -52.5872  -27.7485 C   0  0  0  0  0  0  0  0  0  0  0  0
   -2.9827  -52.5301  -28.3394 Cl  0  0  0  0  0  0  0  0  0  0  0  0
   -1.0493  -52.4027  -26.4260 C   0  0  0  0  0  0  0  0  0  0  0  0
    0.0431  -51.4008  -18.0502 O   0  0  0  0  0  0  0  0  0  0  0  0
   -0.6310  -51.7864  -16.9216 C   0  0  0  0  0  0  0  0  0  0  0  0
   -0.9682  -50.5894  -16.0625 C   0  0  0  0  0  0  0  0  0  0  0  0
    0.0138  -50.4228  -14.9643 C   0  0  0  0  0  0  0  0  0  0  0  0
    1.3335  -49.7674  -15.2706 C   0  0  0  0  0  0  0  0  0  0  0  0
    2.4022  -50.7404  -15.3023 N   0  0  0  0  0  0  0  0  0  0  0  0
    2.6670  -51.5036  -14.1785 C   0  0  0  0  0  0  0  0  0  0  0  0
    3.7919  -52.2457  -14.4204 C   0  0  0  0  0  0  0  0  0  0  0  0
    4.2157  -51.9665  -15.6378 N   0  0  0  0  0  0  0  0  0  0  0  0
    3.3357  -51.0309  -16.1693 C   0  0  0  0  0  0  0  0  0  0  0  0
    3.4657  -50.6284  -17.5299 N   0  0  0  0  0  0  0  0  0  0  0  0
    3.6251  -49.3199  -17.8515 O   0  0  0  0  0  0  0  0  0  0  0  0
    3.4380  -51.4861  -18.4497 O   0  0  0  0  0  0  0  0  0  0  0  0
 11 12  1  0  0  0
 12  1  1  0  0  0
  1  2  2  0  0  0
  2  3  1  0  0  0
  3  4  2  0  0  0
  4 13  1  0  0  0
 13 15  1  0  0  0
 15 16  2  0  0  0
 16 17  1  0  0  0
 17 18  2  0  0  0
 18 19  1  0  0  0
 18 20  1  0  0  0
 20 21  1  0  0  0
 20 22  2  0  0  0
  4  5  1  0  0  0
  5  6  2  0  0  0
  6  7  1  0  0  0
  7  8  2  0  0  0
  8  9  1  0  0  0
  9 10  2  0  0  0
 10 23  1  0  0  0
 23 24  1  0  0  0
 24 25  1  0  0  0
 25 26  1  0  0  0
 26 27  1  0  0  0
 27 28  1  0  0  0
 28 29  1  0  0  0
 29 30  2  0  0  0
 30 31  1  0  0  0
 31 32  2  0  0  0
 32 33  1  0  0  0
 33 34  1  0  0  0
 33 35  2  0  0  0
 10  1  1  0  0  0
 32 28  1  0  0  0
  8  3  1  0  0  0
 22 15  1  0  0  0
 13 14  1  0  0  0
M  CHG 1  33   1
M  CHG 1  34  -1
M  END
> <minimizedAffinity>
-8.66366

> <CNNscore>
0.9517526031

> <CNNaffinity>
7.5311346054

> <CNN_VS>
7.1677770615

> <CNNaffinity_variance>
0.0199814513

$$$$
[H]c1nc(N([H])c2c([H])c([H])c(F)c(Cl)c2[H])c2c([H])c(OC([H])([H])[H])c(OC([H])([H])C([H])([H])C([H])([H])C([H])([H])n3c([N+](=O)[O-])nc([H])c3[H])c([H])c2n1


 35 38  0  0  0  0  0  0  0  0999 V2000
    0.6304  -50.8754  -20.4759 C   0  0  0  0  0  0  0  0  0  0  0  0
    0.6008  -51.3235  -21.7736 C   0  0  0  0  0  0  0  0  0  0  0  0
    0.0128  -52.5192  -22.1112 C   0  0  0  0  0  0  0  0  0  0  0  0
   -0.0188  -52.9720  -23.4222 C   0  0  0  0  0  0  0  0  0  0  0  0
   -0.6283  -54.1561  -23.5985 N   0  0  0  0  0  0  0  0  0  0  0  0
   -1.1799  -54.8849  -22.6159 C   0  0  0  0  0  0  0  0  0  0  0  0
   -1.1322  -54.4187  -21.3574 N   0  0  0  0  0  0  0  0  0  0  0  0
   -0.5408  -53.2364  -21.0758 C   0  0  0  0  0  0  0  0  0  0  0  0
   -0.5144  -52.7905  -19.7620 C   0  0  0  0  0  0  0  0  0  0  0  0
    0.0671  -51.6016  -19.4152 C   0  0  0  0  0  0  0  0  0  0  0  0
    1.1886  -48.5906  -21.0897 C   0  0  0  0  0  0  0  0  0  0  0  0
    1.2283  -49.6721  -20.1749 O   0  0  0  0  0  0  0  0  0  0  0  0
    0.5651  -52.2722  -24.4994 N   0  0  0  0  0  0  0  0  0  0  0  0
    1.2362  -51.4743  -24.2655 H   0  0  0  0  0  0  0  0  0  0  0  0
    0.3625  -52.5024  -25.8777 C   0  0  0  0  0  0  0  0  0  0  0  0
    1.3330  -52.7708  -26.8057 C   0  0  0  0  0  0  0  0  0  0  0  0
    0.9992  -52.9504  -28.1549 C   0  0  0  0  0  0  0  0  0  0  0  0
   -0.3075  -52.8629  -28.5807 C   0  0  0  0  0  0  0  0  0  0  0  0
   -0.6458  -53.0318  -29.8684 F   0  0  0  0  0  0  0  0  0  0  0  0
   -1.3023  -52.5953  -27.6704 C   0  0  0  0  0  0  0  0  0  0  0  0
   -2.9947  -52.4733  -28.1659 Cl  0  0  0  0  0  0  0  0  0  0  0  0
   -0.9525  -52.4243  -26.3651 C   0  0  0  0  0  0  0  0  0  0  0  0
    0.1337  -51.0825  -18.1407 O   0  0  0  0  0  0  0  0  0  0  0  0
   -0.2326  -51.6094  -16.9302 C   0  0  0  0  0  0  0  0  0  0  0  0
   -0.7661  -50.5314  -16.0150 C   0  0  0  0  0  0  0  0  0  0  0  0
    0.0774  -49.3135  -16.0709 C   0  0  0  0  0  0  0  0  0  0  0  0
    1.4425  -49.3523  -15.4385 C   0  0  0  0  0  0  0  0  0  0  0  0
    2.4567  -48.8978  -16.3628 N   0  0  0  0  0  0  0  0  0  0  0  0
    2.6226  -47.5417  -16.5849 C   0  0  0  0  0  0  0  0  0  0  0  0
    3.5447  -47.3813  -17.5841 C   0  0  0  0  0  0  0  0  0  0  0  0
    3.9433  -48.5770  -17.9729 N   0  0  0  0  0  0  0  0  0  0  0  0
    3.2567  -49.5051  -17.1986 C   0  0  0  0  0  0  0  0  0  0  0  0
    3.5738  -50.8902  -17.3052 N   0  0  0  0  0  0  0  0  0  0  0  0
    3.9833  -51.5913  -16.2181 O   0  0  0  0  0  0  0  0  0  0  0  0
    3.4727  -51.4798  -18.4118 O   0  0  0  0  0  0  0  0  0  0  0  0
 11 12  1  0  0  0
 12  1  1  0  0  0
  1  2  2  0  0  0
  2  3  1  0  0  0
  3  4  2  0  0  0
  4 13  1  0  0  0
 13 15  1  0  0  0
 15 16  2  0  0  0
 16 17  1  0  0  0
 17 18  2  0  0  0
 18 19  1  0  0  0
 18 20  1  0  0  0
 20 21  1  0  0  0
 20 22  2  0  0  0
  4  5  1  0  0  0
  5  6  2  0  0  0
  6  7  1  0  0  0
  7  8  2  0  0  0
  8  9  1  0  0  0
  9 10  2  0  0  0
 10 23  1  0  0  0
 23 24  1  0  0  0
 24 25  1  0  0  0
 25 26  1  0  0  0
 26 27  1  0  0  0
 27 28  1  0  0  0
 28 29  1  0  0  0
 29 30  2  0  0  0
 30 31  1  0  0  0
 31 32  2  0  0  0
 32 33  1  0  0  0
 33 34  1  0  0  0
 33 35  2  0  0  0
 10  1  1  0  0  0
 32 28  1  0  0  0
  8  3  1  0  0  0
 22 15  1  0  0  0
 13 14  1  0  0  0
M  CHG 1  33   1
M  CHG 1  34  -1
M  END
> <minimizedAffinity>
-8.28058

> <CNNscore>
0.8340092301

> <CNNaffinity>
7.5153603554

> <CNN_VS>
6.2678799629

> <CNNaffinity_variance>
0.1027285084

$$$$
[H]c1nc(N([H])c2c([H])c([H])c(F)c(Cl)c2[H])c2c([H])c(OC([H])([H])[H])c(OC([H])([H])C([H])([H])C([H])([H])C([H])([H])n3c([N+](=O)[O-])nc([H])c3[H])c([H])c2n1


 35 38  0  0  0  0  0  0  0  0999 V2000
    1.9330  -50.8697  -20.8982 C   0  0  0  0  0  0  0  0  0  0  0  0
    1.1660  -51.6028  -20.0265 C   0  0  0  0  0  0  0  0  0  0  0  0
    0.1864  -52.4586  -20.4709 C   0  0  0  0  0  0  0  0  0  0  0  0
   -0.5880  -53.2005  -19.5908 C   0  0  0  0  0  0  0  0  0  0  0  0
   -1.5037  -53.9937  -20.1716 N   0  0  0  0  0  0  0  0  0  0  0  0
   -1.6950  -54.0967  -21.4958 C   0  0  0  0  0  0  0  0  0  0  0  0
   -0.9288  -53.3646  -22.3208 N   0  0  0  0  0  0  0  0  0  0  0  0
    0.0214  -52.5356  -21.8345 C   0  0  0  0  0  0  0  0  0  0  0  0
    0.7921  -51.7977  -22.7217 C   0  0  0  0  0  0  0  0  0  0  0  0
    1.7704  -50.9440  -22.2903 C   0  0  0  0  0  0  0  0  0  0  0  0
    4.1489  -50.5259  -19.9599 C   0  0  0  0  0  0  0  0  0  0  0  0
    2.9056  -50.0222  -20.4168 O   0  0  0  0  0  0  0  0  0  0  0  0
   -0.4607  -53.1209  -18.1878 N   0  0  0  0  0  0  0  0  0  0  0  0
    0.3722  -53.6161  -17.7375 H   0  0  0  0  0  0  0  0  0  0  0  0
   -1.3213  -52.4543  -17.2885 C   0  0  0  0  0  0  0  0  0  0  0  0
   -1.0358  -51.3116  -16.5900 C   0  0  0  0  0  0  0  0  0  0  0  0
   -1.9724  -50.7663  -15.7015 C   0  0  0  0  0  0  0  0  0  0  0  0
   -3.1989  -51.3621  -15.5090 C   0  0  0  0  0  0  0  0  0  0  0  0
   -4.1081  -50.8543  -14.6624 F   0  0  0  0  0  0  0  0  0  0  0  0
   -3.5124  -52.5098  -16.1977 C   0  0  0  0  0  0  0  0  0  0  0  0
   -5.0731  -53.3126  -15.9866 Cl  0  0  0  0  0  0  0  0  0  0  0  0
   -2.5854  -53.0205  -17.0551 C   0  0  0  0  0  0  0  0  0  0  0  0
    2.5824  -50.1796  -23.0994 O   0  0  0  0  0  0  0  0  0  0  0  0
    3.6603  -50.5170  -23.8748 C   0  0  0  0  0  0  0  0  0  0  0  0
    3.4974  -49.9859  -25.2805 C   0  0  0  0  0  0  0  0  0  0  0  0
    2.2202  -50.4397  -25.8814 C   0  0  0  0  0  0  0  0  0  0  0  0
    2.0669  -51.8943  -26.2356 C   0  0  0  0  0  0  0  0  0  0  0  0
    0.6722  -52.2600  -26.3390 N   0  0  0  0  0  0  0  0  0  0  0  0
   -0.3034  -51.3510  -25.9678 C   0  0  0  0  0  0  0  0  0  0  0  0
   -1.5194  -51.9764  -26.0364 C   0  0  0  0  0  0  0  0  0  0  0  0
   -1.3221  -53.2187  -26.4332 N   0  0  0  0  0  0  0  0  0  0  0  0
    0.0469  -53.3728  -26.6185 C   0  0  0  0  0  0  0  0  0  0  0  0
    0.5555  -54.5838  -27.1710 N   0  0  0  0  0  0  0  0  0  0  0  0
    1.3606  -54.5609  -28.2630 O   0  0  0  0  0  0  0  0  0  0  0  0
    0.2654  -55.6900  -26.6471 O   0  0  0  0  0  0  0  0  0  0  0  0
 11 12  1  0  0  0
 12  1  1  0  0  0
  1  2  2  0  0  0
  2  3  1  0  0  0
  3  4  2  0  0  0
  4 13  1  0  0  0
 13 15  1  0  0  0
 15 16  2  0  0  0
 16 17  1  0  0  0
 17 18  2  0  0  0
 18 19  1  0  0  0
 18 20  1  0  0  0
 20 21  1  0  0  0
 20 22  2  0  0  0
  4  5  1  0  0  0
  5  6  2  0  0  0
  6  7  1  0  0  0
  7  8  2  0  0  0
  8  9  1  0  0  0
  9 10  2  0  0  0
 10 23  1  0  0  0
 23 24  1  0  0  0
 24 25  1  0  0  0
 25 26  1  0  0  0
 26 27  1  0  0  0
 27 28  1  0  0  0
 28 29  1  0  0  0
 29 30  2  0  0  0
 30 31  1  0  0  0
 31 32  2  0  0  0
 32 33  1  0  0  0
 33 34  1  0  0  0
 33 35  2  0  0  0
 10  1  1  0  0  0
 32 28  1  0  0  0
  8  3  1  0  0  0
 22 15  1  0  0  0
 13 14  1  0  0  0
M  CHG 1  33   1
M  CHG 1  34  -1
M  END
> <minimizedAffinity>
-7.92445

> <CNNscore>
0.7102947831

> <CNNaffinity>
7.5492286682

> <CNN_VS>
5.3621778488

> <CNNaffinity_variance>
0.1067319736

$$$$
[H]c1nc(N([H])c2c([H])c([H])c(F)c(Cl)c2[H])c2c([H])c(OC([H])([H])[H])c(OC([H])([H])C([H])([H])C([H])([H])C([H])([H])n3c([N+](=O)[O-])nc([H])c3[H])c([H])c2n1


 35 38  0  0  0  0  0  0  0  0999 V2000
    0.3505  -50.6716  -20.2911 C   0  0  0  0  0  0  0  0  0  0  0  0
    0.3114  -51.0891  -21.5987 C   0  0  0  0  0  0  0  0  0  0  0  0
   -0.1224  -52.3474  -21.9421 C   0  0  0  0  0  0  0  0  0  0  0  0
   -0.1635  -52.7694  -23.2631 C   0  0  0  0  0  0  0  0  0  0  0  0
   -0.6113  -54.0230  -23.4440 N   0  0  0  0  0  0  0  0  0  0  0  0
   -1.0007  -54.8447  -22.4571 C   0  0  0  0  0  0  0  0  0  0  0  0
   -0.9485  -54.4059  -21.1890 N   0  0  0  0  0  0  0  0  0  0  0  0
   -0.5126  -53.1591  -20.9021 C   0  0  0  0  0  0  0  0  0  0  0  0
   -0.4754  -52.7446  -19.5783 C   0  0  0  0  0  0  0  0  0  0  0  0
   -0.0466  -51.4943  -19.2255 C   0  0  0  0  0  0  0  0  0  0  0  0
    1.2531  -48.5284  -20.9987 C   0  0  0  0  0  0  0  0  0  0  0  0
    0.7910  -49.4036  -19.9844 O   0  0  0  0  0  0  0  0  0  0  0  0
    0.2566  -51.9696  -24.3469 N   0  0  0  0  0  0  0  0  0  0  0  0
    0.6940  -51.0210  -24.1218 H   0  0  0  0  0  0  0  0  0  0  0  0
    0.1637  -52.2772  -25.7219 C   0  0  0  0  0  0  0  0  0  0  0  0
    1.2092  -52.5444  -26.5650 C   0  0  0  0  0  0  0  0  0  0  0  0
    0.9812  -52.8063  -27.9227 C   0  0  0  0  0  0  0  0  0  0  0  0
   -0.2941  -52.8026  -28.4421 C   0  0  0  0  0  0  0  0  0  0  0  0
   -0.5314  -53.0511  -29.7394 F   0  0  0  0  0  0  0  0  0  0  0  0
   -1.3625  -52.5382  -27.6183 C   0  0  0  0  0  0  0  0  0  0  0  0
   -3.0188  -52.5221  -28.2357 Cl  0  0  0  0  0  0  0  0  0  0  0  0
   -1.1151  -52.2863  -26.3028 C   0  0  0  0  0  0  0  0  0  0  0  0
    0.0179  -51.0008  -17.9407 O   0  0  0  0  0  0  0  0  0  0  0  0
    1.0051  -51.0730  -16.9936 C   0  0  0  0  0  0  0  0  0  0  0  0
    1.4441  -49.6903  -16.5694 C   0  0  0  0  0  0  0  0  0  0  0  0
    2.7348  -49.3202  -17.1979 C   0  0  0  0  0  0  0  0  0  0  0  0
    3.6943  -50.4170  -17.5739 C   0  0  0  0  0  0  0  0  0  0  0  0
    3.9683  -50.4041  -18.9931 N   0  0  0  0  0  0  0  0  0  0  0  0
    3.5919  -51.4837  -19.7732 C   0  0  0  0  0  0  0  0  0  0  0  0
    4.0728  -51.2852  -21.0396 C   0  0  0  0  0  0  0  0  0  0  0  0
    4.7197  -50.1359  -21.0592 N   0  0  0  0  0  0  0  0  0  0  0  0
    4.6397  -49.6034  -19.7777 C   0  0  0  0  0  0  0  0  0  0  0  0
    5.1433  -48.2954  -19.5209 N   0  0  0  0  0  0  0  0  0  0  0  0
    6.3606  -48.1237  -18.9466 O   0  0  0  0  0  0  0  0  0  0  0  0
    4.4633  -47.2830  -19.8292 O   0  0  0  0  0  0  0  0  0  0  0  0
 11 12  1  0  0  0
 12  1  1  0  0  0
  1  2  2  0  0  0
  2  3  1  0  0  0
  3  4  2  0  0  0
  4 13  1  0  0  0
 13 15  1  0  0  0
 15 16  2  0  0  0
 16 17  1  0  0  0
 17 18  2  0  0  0
 18 19  1  0  0  0
 18 20  1  0  0  0
 20 21  1  0  0  0
 20 22  2  0  0  0
  4  5  1  0  0  0
  5  6  2  0  0  0
  6  7  1  0  0  0
  7  8  2  0  0  0
  8  9  1  0  0  0
  9 10  2  0  0  0
 10 23  1  0  0  0
 23 24  1  0  0  0
 24 25  1  0  0  0
 25 26  1  0  0  0
 26 27  1  0  0  0
 27 28  1  0  0  0
 28 29  1  0  0  0
 29 30  2  0  0  0
 30 31  1  0  0  0
 31 32  2  0  0  0
 32 33  1  0  0  0
 33 34  1  0  0  0
 33 35  2  0  0  0
 10  1  1  0  0  0
 32 28  1  0  0  0
  8  3  1  0  0  0
 22 15  1  0  0  0
 13 14  1  0  0  0
M  CHG 1  33   1
M  CHG 1  34  -1
M  END
> <minimizedAffinity>
-7.66280

> <CNNscore>
0.7061716914

> <CNNaffinity>
7.4189863205

> <CNN_VS>
5.2390780449

> <CNNaffinity_variance>
0.0730116740

$$$$
[H]c1nc(N([H])c2c([H])c([H])c(F)c(Cl)c2[H])c2c([H])c(OC([H])([H])[H])c(OC([H])([H])C([H])([H])C([H])([H])C([H])([H])n3c([N+](=O)[O-])nc([H])c3[H])c([H])c2n1


 35 38  0  0  0  0  0  0  0  0999 V2000
    0.2986  -51.6509  -20.6904 C   0  0  0  0  0  0  0  0  0  0  0  0
    0.3244  -51.9229  -22.0362 C   0  0  0  0  0  0  0  0  0  0  0  0
   -0.2598  -53.0535  -22.5555 C   0  0  0  0  0  0  0  0  0  0  0  0
   -0.2354  -53.3283  -23.9151 C   0  0  0  0  0  0  0  0  0  0  0  0
   -0.8485  -54.4684  -24.2742 N   0  0  0  0  0  0  0  0  0  0  0  0
   -1.4527  -55.3115  -23.4227 C   0  0  0  0  0  0  0  0  0  0  0  0
   -1.4586  -55.0166  -22.1125 N   0  0  0  0  0  0  0  0  0  0  0  0
   -0.8684  -53.8920  -21.6503 C   0  0  0  0  0  0  0  0  0  0  0  0
   -0.8982  -53.6242  -20.2891 C   0  0  0  0  0  0  0  0  0  0  0  0
   -0.3210  -52.5015  -19.7618 C   0  0  0  0  0  0  0  0  0  0  0  0
    0.8304  -49.2910  -20.9288 C   0  0  0  0  0  0  0  0  0  0  0  0
    0.8946  -50.5081  -20.2058 O   0  0  0  0  0  0  0  0  0  0  0  0
    0.4053  -52.5021  -24.8627 N   0  0  0  0  0  0  0  0  0  0  0  0
   -0.1754  -52.1553  -25.6900 H   0  0  0  0  0  0  0  0  0  0  0  0
    1.7502  -52.0722  -24.8506 C   0  0  0  0  0  0  0  0  0  0  0  0
    2.8499  -52.8570  -24.6275 C   0  0  0  0  0  0  0  0  0  0  0  0
    4.1344  -52.2969  -24.6122 C   0  0  0  0  0  0  0  0  0  0  0  0
    4.3236  -50.9489  -24.8208 C   0  0  0  0  0  0  0  0  0  0  0  0
    5.5460  -50.3951  -24.8096 F   0  0  0  0  0  0  0  0  0  0  0  0
    3.2375  -50.1375  -25.0479 C   0  0  0  0  0  0  0  0  0  0  0  0
    3.4269  -48.4014  -25.3216 Cl  0  0  0  0  0  0  0  0  0  0  0  0
    1.9994  -50.7054  -25.0575 C   0  0  0  0  0  0  0  0  0  0  0  0
   -0.3081  -52.1568  -18.4279 O   0  0  0  0  0  0  0  0  0  0  0  0
   -1.0496  -52.6123  -17.3698 C   0  0  0  0  0  0  0  0  0  0  0  0
   -1.4036  -51.4786  -16.4349 C   0  0  0  0  0  0  0  0  0  0  0  0
   -0.3126  -50.4769  -16.3683 C   0  0  0  0  0  0  0  0  0  0  0  0
    0.1913  -50.0485  -15.0165 C   0  0  0  0  0  0  0  0  0  0  0  0
    1.1557  -50.9924  -14.4982 N   0  0  0  0  0  0  0  0  0  0  0  0
    0.7863  -51.8640  -13.4884 C   0  0  0  0  0  0  0  0  0  0  0  0
    1.8994  -52.5552  -13.0912 C   0  0  0  0  0  0  0  0  0  0  0  0
    2.9213  -52.1421  -13.8157 N   0  0  0  0  0  0  0  0  0  0  0  0
    2.4361  -51.1728  -14.6860 C   0  0  0  0  0  0  0  0  0  0  0  0
    3.2908  -50.6276  -15.6873 N   0  0  0  0  0  0  0  0  0  0  0  0
    3.8797  -51.4331  -16.6068 O   0  0  0  0  0  0  0  0  0  0  0  0
    3.5050  -49.3889  -15.7314 O   0  0  0  0  0  0  0  0  0  0  0  0
 11 12  1  0  0  0
 12  1  1  0  0  0
  1  2  2  0  0  0
  2  3  1  0  0  0
  3  4  2  0  0  0
  4 13  1  0  0  0
 13 15  1  0  0  0
 15 16  2  0  0  0
 16 17  1  0  0  0
 17 18  2  0  0  0
 18 19  1  0  0  0
 18 20  1  0  0  0
 20 21  1  0  0  0
 20 22  2  0  0  0
  4  5  1  0  0  0
  5  6  2  0  0  0
  6  7  1  0  0  0
  7  8  2  0  0  0
  8  9  1  0  0  0
  9 10  2  0  0  0
 10 23  1  0  0  0
 23 24  1  0  0  0
 24 25  1  0  0  0
 25 26  1  0  0  0
 26 27  1  0  0  0
 27 28  1  0  0  0
 28 29  1  0  0  0
 29 30  2  0  0  0
 30 31  1  0  0  0
 31 32  2  0  0  0
 32 33  1  0  0  0
 33 34  1  0  0  0
 33 35  2  0  0  0
 10  1  1  0  0  0
 32 28  1  0  0  0
  8  3  1  0  0  0
 22 15  1  0  0  0
 13 14  1  0  0  0
M  CHG 1  33   1
M  CHG 1  34  -1
M  END
> <minimizedAffinity>
-7.59565

> <CNNscore>
0.6705025434

> <CNNaffinity>
7.1750183105

> <CNN_VS>
4.8108682632

> <CNNaffinity_variance>
0.0836893693

$$$$
[H]c1nc(N([H])c2c([H])c([H])c(F)c(Cl)c2[H])c2c([H])c(OC([H])([H])[H])c(OC([H])([H])C([H])([H])C([H])([H])C([H])([H])n3c([N+](=O)[O-])nc([H])c3[H])c([H])c2n1


 35 38  0  0  0  0  0  0  0  0999 V2000
    0.6832  -51.7571  -20.6998 C   0  0  0  0  0  0  0  0  0  0  0  0
    0.5955  -51.9871  -22.0508 C   0  0  0  0  0  0  0  0  0  0  0  0
   -0.0815  -53.0715  -22.5560 C   0  0  0  0  0  0  0  0  0  0  0  0
   -0.1718  -53.3037  -23.9208 C   0  0  0  0  0  0  0  0  0  0  0  0
   -0.8661  -54.4013  -24.2644 N   0  0  0  0  0  0  0  0  0  0  0  0
   -1.4469  -55.2412  -23.3937 C   0  0  0  0  0  0  0  0  0  0  0  0
   -1.3407  -54.9882  -22.0790 N   0  0  0  0  0  0  0  0  0  0  0  0
   -0.6624  -53.9083  -21.6313 C   0  0  0  0  0  0  0  0  0  0  0  0
   -0.5777  -53.6828  -20.2648 C   0  0  0  0  0  0  0  0  0  0  0  0
    0.0925  -52.6063  -19.7512 C   0  0  0  0  0  0  0  0  0  0  0  0
    0.9899  -49.3476  -20.6056 C   0  0  0  0  0  0  0  0  0  0  0  0
    1.3699  -50.6601  -20.2297 O   0  0  0  0  0  0  0  0  0  0  0  0
    0.4373  -52.4793  -24.8905 N   0  0  0  0  0  0  0  0  0  0  0  0
   -0.1663  -52.1469  -25.7072 H   0  0  0  0  0  0  0  0  0  0  0  0
    1.7771  -52.0342  -24.9135 C   0  0  0  0  0  0  0  0  0  0  0  0
    2.8916  -52.8088  -24.7324 C   0  0  0  0  0  0  0  0  0  0  0  0
    4.1697  -52.2342  -24.7490 C   0  0  0  0  0  0  0  0  0  0  0  0
    4.3376  -50.8819  -24.9476 C   0  0  0  0  0  0  0  0  0  0  0  0
    5.5535  -50.3143  -24.9665 F   0  0  0  0  0  0  0  0  0  0  0  0
    3.2362  -50.0805  -25.1329 C   0  0  0  0  0  0  0  0  0  0  0  0
    3.3980  -48.3394  -25.3921 Cl  0  0  0  0  0  0  0  0  0  0  0  0
    2.0048  -50.6624  -25.1121 C   0  0  0  0  0  0  0  0  0  0  0  0
    0.2215  -52.3051  -18.4130 O   0  0  0  0  0  0  0  0  0  0  0  0
   -0.5554  -51.5451  -17.5789 C   0  0  0  0  0  0  0  0  0  0  0  0
   -1.5632  -52.4055  -16.8521 C   0  0  0  0  0  0  0  0  0  0  0  0
   -2.2557  -51.6392  -15.7885 C   0  0  0  0  0  0  0  0  0  0  0  0
   -1.6021  -51.5290  -14.4374 C   0  0  0  0  0  0  0  0  0  0  0  0
   -0.9901  -50.2315  -14.2602 N   0  0  0  0  0  0  0  0  0  0  0  0
    0.3825  -50.1365  -14.1092 C   0  0  0  0  0  0  0  0  0  0  0  0
    0.6934  -48.8323  -13.8323 C   0  0  0  0  0  0  0  0  0  0  0  0
   -0.4272  -48.1370  -13.8114 N   0  0  0  0  0  0  0  0  0  0  0  0
   -1.4611  -49.0256  -14.0829 C   0  0  0  0  0  0  0  0  0  0  0  0
   -2.7891  -48.5376  -14.2521 N   0  0  0  0  0  0  0  0  0  0  0  0
   -3.7302  -48.7493  -13.2978 O   0  0  0  0  0  0  0  0  0  0  0  0
   -3.1021  -47.8996  -15.2900 O   0  0  0  0  0  0  0  0  0  0  0  0
 11 12  1  0  0  0
 12  1  1  0  0  0
  1  2  2  0  0  0
  2  3  1  0  0  0
  3  4  2  0  0  0
  4 13  1  0  0  0
 13 15  1  0  0  0
 15 16  2  0  0  0
 16 17  1  0  0  0
 17 18  2  0  0  0
 18 19  1  0  0  0
 18 20  1  0  0  0
 20 21  1  0  0  0
 20 22  2  0  0  0
  4  5  1  0  0  0
  5  6  2  0  0  0
  6  7  1  0  0  0
  7  8  2  0  0  0
  8  9  1  0  0  0
  9 10  2  0  0  0
 10 23  1  0  0  0
 23 24  1  0  0  0
 24 25  1  0  0  0
 25 26  1  0  0  0
 26 27  1  0  0  0
 27 28  1  0  0  0
 28 29  1  0  0  0
 29 30  2  0  0  0
 30 31  1  0  0  0
 31 32  2  0  0  0
 32 33  1  0  0  0
 33 34  1  0  0  0
 33 35  2  0  0  0
 10  1  1  0  0  0
 32 28  1  0  0  0
  8  3  1  0  0  0
 22 15  1  0  0  0
 13 14  1  0  0  0
M  CHG 1  33   1
M  CHG 1  34  -1
M  END
> <minimizedAffinity>
-6.90419

> <CNNscore>
0.6405124664

> <CNNaffinity>
7.2131452560

> <CNN_VS>
4.6201095581

> <CNNaffinity_variance>
0.0671557263

$$$$
[H]c1nc(N([H])c2c([H])c([H])c(F)c(Cl)c2[H])c2c([H])c(OC([H])([H])[H])c(OC([H])([H])C([H])([H])C([H])([H])C([H])([H])n3c([N+](=O)[O-])nc([H])c3[H])c([H])c2n1


 35 38  0  0  0  0  0  0  0  0999 V2000
    0.4259  -50.9046  -19.9932 C   0  0  0  0  0  0  0  0  0  0  0  0
    0.2515  -51.1993  -21.3230 C   0  0  0  0  0  0  0  0  0  0  0  0
   -0.2134  -52.4252  -21.7357 C   0  0  0  0  0  0  0  0  0  0  0  0
   -0.3912  -52.7233  -23.0790 C   0  0  0  0  0  0  0  0  0  0  0  0
   -0.8530  -53.9598  -23.3290 N   0  0  0  0  0  0  0  0  0  0  0  0
   -1.1357  -54.8741  -22.3883 C   0  0  0  0  0  0  0  0  0  0  0  0
   -0.9524  -54.5543  -21.0969 N   0  0  0  0  0  0  0  0  0  0  0  0
   -0.4913  -53.3345  -20.7414 C   0  0  0  0  0  0  0  0  0  0  0  0
   -0.3171  -53.0443  -19.3957 C   0  0  0  0  0  0  0  0  0  0  0  0
    0.1438  -51.8271  -18.9738 C   0  0  0  0  0  0  0  0  0  0  0  0
    2.2634  -49.3307  -19.7575 C   0  0  0  0  0  0  0  0  0  0  0  0
    0.8936  -49.6654  -19.6166 O   0  0  0  0  0  0  0  0  0  0  0  0
   -0.0879  -51.8215  -24.1210 N   0  0  0  0  0  0  0  0  0  0  0  0
    0.1733  -50.8215  -23.8498 H   0  0  0  0  0  0  0  0  0  0  0  0
   -0.0912  -52.0864  -25.5079 C   0  0  0  0  0  0  0  0  0  0  0  0
   -1.1916  -52.1318  -26.3216 C   0  0  0  0  0  0  0  0  0  0  0  0
   -1.0596  -52.4372  -27.6830 C   0  0  0  0  0  0  0  0  0  0  0  0
    0.1745  -52.6978  -28.2357 C   0  0  0  0  0  0  0  0  0  0  0  0
    0.3200  -52.9920  -29.5370 F   0  0  0  0  0  0  0  0  0  0  0  0
    1.2964  -52.6584  -27.4422 C   0  0  0  0  0  0  0  0  0  0  0  0
    2.9031  -52.9846  -28.1032 Cl  0  0  0  0  0  0  0  0  0  0  0  0
    1.1421  -52.3596  -26.1222 C   0  0  0  0  0  0  0  0  0  0  0  0
    0.3409  -51.4544  -17.6622 O   0  0  0  0  0  0  0  0  0  0  0  0
   -0.5490  -51.1806  -16.6572 C   0  0  0  0  0  0  0  0  0  0  0  0
   -0.1441  -51.8759  -15.3776 C   0  0  0  0  0  0  0  0  0  0  0  0
   -0.2248  -50.9559  -14.2178 C   0  0  0  0  0  0  0  0  0  0  0  0
    1.0383  -50.3004  -13.7283 C   0  0  0  0  0  0  0  0  0  0  0  0
    1.5820  -49.4084  -14.7274 N   0  0  0  0  0  0  0  0  0  0  0  0
    2.7869  -49.7147  -15.3359 C   0  0  0  0  0  0  0  0  0  0  0  0
    3.1414  -48.6626  -16.1371 C   0  0  0  0  0  0  0  0  0  0  0  0
    2.2057  -47.7379  -16.0410 N   0  0  0  0  0  0  0  0  0  0  0  0
    1.2444  -48.2233  -15.1621 C   0  0  0  0  0  0  0  0  0  0  0  0
    0.0393  -47.4917  -14.9550 N   0  0  0  0  0  0  0  0  0  0  0  0
    0.0197  -46.4092  -14.1371 O   0  0  0  0  0  0  0  0  0  0  0  0
   -1.0214  -47.8411  -15.5339 O   0  0  0  0  0  0  0  0  0  0  0  0
 11 12  1  0  0  0
 12  1  1  0  0  0
  1  2  2  0  0  0
  2  3  1  0  0  0
  3  4  2  0  0  0
  4 13  1  0  0  0
 13 15  1  0  0  0
 15 16  2  0  0  0
 16 17  1  0  0  0
 17 18  2  0  0  0
 18 19  1  0  0  0
 18 20  1  0  0  0
 20 21  1  0  0  0
 20 22  2  0  0  0
  4  5  1  0  0  0
  5  6  2  0  0  0
  6  7  1  0  0  0
  7  8  2  0  0  0
  8  9  1  0  0  0
  9 10  2  0  0  0
 10 23  1  0  0  0
 23 24  1  0  0  0
 24 25  1  0  0  0
 25 26  1  0  0  0
 26 27  1  0  0  0
 27 28  1  0  0  0
 28 29  1  0  0  0
 29 30  2  0  0  0
 30 31  1  0  0  0
 31 32  2  0  0  0
 32 33  1  0  0  0
 33 34  1  0  0  0
 33 35  2  0  0  0
 10  1  1  0  0  0
 32 28  1  0  0  0
  8  3  1  0  0  0
 22 15  1  0  0  0
 13 14  1  0  0  0
M  CHG 1  33   1
M  CHG 1  34  -1
M  END
> <minimizedAffinity>
-7.23391

> <CNNscore>
0.5536131263

> <CNNaffinity>
7.1742658615

> <CNN_VS>
3.9717676640

> <CNNaffinity_variance>
0.1496164650

$$$$
[H]c1nc(N([H])c2c([H])c([H])c(F)c(Cl)c2[H])c2c([H])c(OC([H])([H])[H])c(OC([H])([H])C([H])([H])C([H])([H])C([H])([H])n3c([N+](=O)[O-])nc([H])c3[H])c([H])c2n1


 35 38  0  0  0  0  0  0  0  0999 V2000
    0.3670  -51.0922  -20.7988 C   0  0  0  0  0  0  0  0  0  0  0  0
    0.0615  -51.4489  -22.0892 C   0  0  0  0  0  0  0  0  0  0  0  0
   -0.4279  -52.6960  -22.3968 C   0  0  0  0  0  0  0  0  0  0  0  0
   -0.7381  -53.0567  -23.7000 C   0  0  0  0  0  0  0  0  0  0  0  0
   -1.2077  -54.3069  -23.8457 N   0  0  0  0  0  0  0  0  0  0  0  0
   -1.3818  -55.1792  -22.8410 C   0  0  0  0  0  0  0  0  0  0  0  0
   -1.0717  -54.7991  -21.5908 N   0  0  0  0  0  0  0  0  0  0  0  0
   -0.5918  -53.5608  -21.3395 C   0  0  0  0  0  0  0  0  0  0  0  0
   -0.2849  -53.2079  -20.0330 C   0  0  0  0  0  0  0  0  0  0  0  0
    0.2016  -51.9692  -19.7156 C   0  0  0  0  0  0  0  0  0  0  0  0
    1.2714  -48.9735  -21.5746 C   0  0  0  0  0  0  0  0  0  0  0  0
    0.8553  -49.8335  -20.5280 O   0  0  0  0  0  0  0  0  0  0  0  0
   -0.5538  -52.2014  -24.8070 N   0  0  0  0  0  0  0  0  0  0  0  0
   -1.2461  -51.3971  -24.9317 H   0  0  0  0  0  0  0  0  0  0  0  0
    0.4546  -52.2842  -25.7919 C   0  0  0  0  0  0  0  0  0  0  0  0
    0.6229  -53.2987  -26.6961 C   0  0  0  0  0  0  0  0  0  0  0  0
    1.6887  -53.2736  -27.6057 C   0  0  0  0  0  0  0  0  0  0  0  0
    2.5901  -52.2326  -27.6146 C   0  0  0  0  0  0  0  0  0  0  0  0
    3.6166  -52.1918  -28.4781 F   0  0  0  0  0  0  0  0  0  0  0  0
    2.4448  -51.2003  -26.7184 C   0  0  0  0  0  0  0  0  0  0  0  0
    3.5743  -49.8409  -26.6894 Cl  0  0  0  0  0  0  0  0  0  0  0  0
    1.4013  -51.2478  -25.8442 C   0  0  0  0  0  0  0  0  0  0  0  0
    0.5269  -51.5352  -18.4491 O   0  0  0  0  0  0  0  0  0  0  0  0
    1.6692  -50.9616  -17.9561 C   0  0  0  0  0  0  0  0  0  0  0  0
    1.3771  -49.5971  -17.3753 C   0  0  0  0  0  0  0  0  0  0  0  0
    2.2520  -49.3095  -16.2134 C   0  0  0  0  0  0  0  0  0  0  0  0
    1.6340  -49.2518  -14.8424 C   0  0  0  0  0  0  0  0  0  0  0  0
    1.3471  -50.5785  -14.3452 N   0  0  0  0  0  0  0  0  0  0  0  0
    0.0384  -50.9415  -14.0782 C   0  0  0  0  0  0  0  0  0  0  0  0
    0.0477  -52.1845  -13.5043 C   0  0  0  0  0  0  0  0  0  0  0  0
    1.3003  -52.5878  -13.4149 N   0  0  0  0  0  0  0  0  0  0  0  0
    2.0913  -51.5756  -13.9462 C   0  0  0  0  0  0  0  0  0  0  0  0
    3.4930  -51.7792  -14.1017 N   0  0  0  0  0  0  0  0  0  0  0  0
    4.3573  -51.4157  -13.1209 O   0  0  0  0  0  0  0  0  0  0  0  0
    3.9441  -52.3038  -15.1522 O   0  0  0  0  0  0  0  0  0  0  0  0
 11 12  1  0  0  0
 12  1  1  0  0  0
  1  2  2  0  0  0
  2  3  1  0  0  0
  3  4  2  0  0  0
  4 13  1  0  0  0
 13 15  1  0  0  0
 15 16  2  0  0  0
 16 17  1  0  0  0
 17 18  2  0  0  0
 18 19  1  0  0  0
 18 20  1  0  0  0
 20 21  1  0  0  0
 20 22  2  0  0  0
  4  5  1  0  0  0
  5  6  2  0  0  0
  6  7  1  0  0  0
  7  8  2  0  0  0
  8  9  1  0  0  0
  9 10  2  0  0  0
 10 23  1  0  0  0
 23 24  1  0  0  0
 24 25  1  0  0  0
 25 26  1  0  0  0
 26 27  1  0  0  0
 27 28  1  0  0  0
 28 29  1  0  0  0
 29 30  2  0  0  0
 30 31  1  0  0  0
 31 32  2  0  0  0
 32 33  1  0  0  0
 33 34  1  0  0  0
 33 35  2  0  0  0
 10  1  1  0  0  0
 32 28  1  0  0  0
  8  3  1  0  0  0
 22 15  1  0  0  0
 13 14  1  0  0  0
M  CHG 1  33   1
M  CHG 1  34  -1
M  END
> <minimizedAffinity>
-6.87424

> <CNNscore>
0.4318693876

> <CNNaffinity>
6.9493780136

> <CNN_VS>
3.0012235641

> <CNNaffinity_variance>
0.0885468870

$$$$
[H]c1nc(N([H])c2c([H])c([H])c(F)c(Cl)c2[H])c2c([H])c(OC([H])([H])[H])c(OC([H])([H])C([H])([H])C([H])([H])C([H])([H])n3c([N+](=O)[O-])nc([H])c3[H])c([H])c2n1


 35 38  0  0  0  0  0  0  0  0999 V2000
    0.1834  -52.4954  -21.3081 C   0  0  0  0  0  0  0  0  0  0  0  0
    0.7697  -52.5868  -22.5465 C   0  0  0  0  0  0  0  0  0  0  0  0
    1.4954  -51.5485  -23.0800 C   0  0  0  0  0  0  0  0  0  0  0  0
    2.0891  -51.6405  -24.3305 C   0  0  0  0  0  0  0  0  0  0  0  0
    2.7667  -50.5472  -24.7182 N   0  0  0  0  0  0  0  0  0  0  0  0
    2.8899  -49.4269  -23.9898 C   0  0  0  0  0  0  0  0  0  0  0  0
    2.3029  -49.3697  -22.7833 N   0  0  0  0  0  0  0  0  0  0  0  0
    1.5980  -50.4180  -22.3027 C   0  0  0  0  0  0  0  0  0  0  0  0
    1.0081  -50.3180  -21.0506 C   0  0  0  0  0  0  0  0  0  0  0  0
    0.2847  -51.3456  -20.5097 C   0  0  0  0  0  0  0  0  0  0  0  0
   -1.4431  -54.2739  -21.6245 C   0  0  0  0  0  0  0  0  0  0  0  0
   -0.5364  -53.5561  -20.8054 O   0  0  0  0  0  0  0  0  0  0  0  0
    1.9771  -52.7754  -25.1614 N   0  0  0  0  0  0  0  0  0  0  0  0
    2.4927  -53.6618  -24.8607 H   0  0  0  0  0  0  0  0  0  0  0  0
    1.2533  -52.8819  -26.3691 C   0  0  0  0  0  0  0  0  0  0  0  0
    1.7638  -53.2266  -27.5921 C   0  0  0  0  0  0  0  0  0  0  0  0
    0.9383  -53.2659  -28.7238 C   0  0  0  0  0  0  0  0  0  0  0  0
   -0.4018  -52.9612  -28.6361 C   0  0  0  0  0  0  0  0  0  0  0  0
   -1.2074  -52.9935  -29.7090 F   0  0  0  0  0  0  0  0  0  0  0  0
   -0.9412  -52.6126  -27.4206 C   0  0  0  0  0  0  0  0  0  0  0  0
   -2.6551  -52.2131  -27.2548 Cl  0  0  0  0  0  0  0  0  0  0  0  0
   -0.1184  -52.5811  -26.3356 C   0  0  0  0  0  0  0  0  0  0  0  0
   -0.3284  -51.3329  -19.2759 O   0  0  0  0  0  0  0  0  0  0  0  0
    0.0982  -51.7722  -18.0504 C   0  0  0  0  0  0  0  0  0  0  0  0
   -0.1861  -50.7415  -16.9820 C   0  0  0  0  0  0  0  0  0  0  0  0
    0.5964  -49.5029  -17.2090 C   0  0  0  0  0  0  0  0  0  0  0  0
    1.6578  -49.1275  -16.2103 C   0  0  0  0  0  0  0  0  0  0  0  0
    2.5612  -50.2306  -15.9724 N   0  0  0  0  0  0  0  0  0  0  0  0
    2.6370  -50.7936  -14.7102 C   0  0  0  0  0  0  0  0  0  0  0  0
    3.6442  -51.7210  -14.7150 C   0  0  0  0  0  0  0  0  0  0  0  0
    4.1773  -51.7441  -15.9213 N   0  0  0  0  0  0  0  0  0  0  0  0
    3.4870  -50.8123  -16.6878 C   0  0  0  0  0  0  0  0  0  0  0  0
    3.7580  -50.7013  -18.0823 N   0  0  0  0  0  0  0  0  0  0  0  0
    3.4214  -51.7027  -18.9338 O   0  0  0  0  0  0  0  0  0  0  0  0
    4.3104  -49.6680  -18.5399 O   0  0  0  0  0  0  0  0  0  0  0  0
 11 12  1  0  0  0
 12  1  1  0  0  0
  1  2  2  0  0  0
  2  3  1  0  0  0
  3  4  2  0  0  0
  4 13  1  0  0  0
 13 15  1  0  0  0
 15 16  2  0  0  0
 16 17  1  0  0  0
 17 18  2  0  0  0
 18 19  1  0  0  0
 18 20  1  0  0  0
 20 21  1  0  0  0
 20 22  2  0  0  0
  4  5  1  0  0  0
  5  6  2  0  0  0
  6  7  1  0  0  0
  7  8  2  0  0  0
  8  9  1  0  0  0
  9 10  2  0  0  0
 10 23  1  0  0  0
 23 24  1  0  0  0
 24 25  1  0  0  0
 25 26  1  0  0  0
 26 27  1  0  0  0
 27 28  1  0  0  0
 28 29  1  0  0  0
 29 30  2  0  0  0
 30 31  1  0  0  0
 31 32  2  0  0  0
 32 33  1  0  0  0
 33 34  1  0  0  0
 33 35  2  0  0  0
 10  1  1  0  0  0
 32 28  1  0  0  0
  8  3  1  0  0  0
 22 15  1  0  0  0
 13 14  1  0  0  0
M  CHG 1  33   1
M  CHG 1  34  -1
M  END
> <minimizedAffinity>
-7.74913

> <CNNscore>
0.3002265990

> <CNNaffinity>
6.8901700974

> <CNN_VS>
2.0686123371

> <CNNaffinity_variance>
0.1204953641

$$$$
[H]C#CC([H])([H])Oc1c(N([H])C(=O)C([H])=C([H])[H])c([H])c2c(N([H])c3c([H])c([H])c(F)c(Cl)c3[H])nc([H])nc2c1[H]


 30 32  0  0  0  0  0  0  0  0999 V2000
   -0.1031  -53.4050  -23.4145 C   0  0  0  0  0  0  0  0  0  0  0  0
   -0.8879  -54.4739  -23.7248 N   0  0  0  0  0  0  0  0  0  0  0  0
   -1.6254  -55.1440  -22.8369 C   0  0  0  0  0  0  0  0  0  0  0  0
   -1.6236  -54.7759  -21.5470 N   0  0  0  0  0  0  0  0  0  0  0  0
   -0.8796  -53.7338  -21.1499 C   0  0  0  0  0  0  0  0  0  0  0  0
   -0.8607  -53.3386  -19.8297 C   0  0  0  0  0  0  0  0  0  0  0  0
   -0.0964  -52.2737  -19.4333 C   0  0  0  0  0  0  0  0  0  0  0  0
    0.6901  -51.5550  -20.3627 C   0  0  0  0  0  0  0  0  0  0  0  0
    0.6496  -51.9745  -21.6729 C   0  0  0  0  0  0  0  0  0  0  0  0
   -0.1111  -53.0417  -22.0965 C   0  0  0  0  0  0  0  0  0  0  0  0
    1.4693  -50.4564  -19.9093 N   0  0  0  0  0  0  0  0  0  0  0  0
    2.7284  -50.4409  -19.3308 C   0  0  0  0  0  0  0  0  0  0  0  0
    3.4092  -51.4462  -19.1069 O   0  0  0  0  0  0  0  0  0  0  0  0
    1.0085  -49.4792  -20.0349 H   0  0  0  0  0  0  0  0  0  0  0  0
    3.3412  -49.1599  -18.9376 C   0  0  0  0  0  0  0  0  0  0  0  0
    2.8738  -47.9916  -19.3837 C   0  0  0  0  0  0  0  0  0  0  0  0
    0.6268  -52.7231  -24.4161 N   0  0  0  0  0  0  0  0  0  0  0  0
    1.4843  -52.1487  -24.1295 H   0  0  0  0  0  0  0  0  0  0  0  0
   -0.1114  -52.7976  -29.9726 F   0  0  0  0  0  0  0  0  0  0  0  0
    0.0366  -52.7705  -28.6064 C   0  0  0  0  0  0  0  0  0  0  0  0
    1.2778  -52.8699  -28.0565 C   0  0  0  0  0  0  0  0  0  0  0  0
    1.4233  -52.8417  -26.6897 C   0  0  0  0  0  0  0  0  0  0  0  0
    0.3448  -52.7135  -25.8040 C   0  0  0  0  0  0  0  0  0  0  0  0
   -0.8813  -52.6178  -26.3973 C   0  0  0  0  0  0  0  0  0  0  0  0
   -1.0432  -52.6446  -27.7830 C   0  0  0  0  0  0  0  0  0  0  0  0
   -2.6400  -52.5160  -28.4607 Cl  0  0  0  0  0  0  0  0  0  0  0  0
   -0.0285  -51.8245  -18.1328 O   0  0  0  0  0  0  0  0  0  0  0  0
   -0.8531  -52.1848  -17.0741 C   0  0  0  0  0  0  0  0  0  0  0  0
   -1.1284  -51.0519  -16.2302 C   0  0  0  0  0  0  0  0  0  0  0  0
   -1.3836  -50.0904  -15.5227 C   0  0  0  0  0  0  0  0  0  0  0  0
 19 20  1  0  0  0
 20 21  2  0  0  0
 21 22  1  0  0  0
 22 23  2  0  0  0
 23 17  1  0  0  0
 17  1  1  0  0  0
  1  2  2  0  0  0
  2  3  1  0  0  0
  3  4  2  0  0  0
  4  5  1  0  0  0
  5  6  2  0  0  0
  6  7  1  0  0  0
  7 27  1  0  0  0
 27 28  1  0  0  0
 28 29  1  0  0  0
 29 30  3  0  0  0
  7  8  2  0  0  0
  8 11  1  0  0  0
 11 12  1  0  0  0
 12 13  2  0  0  0
 12 15  1  0  0  0
 15 16  2  0  0  0
  8  9  1  0  0  0
  9 10  2  0  0  0
 23 24  1  0  0  0
 24 25  2  0  0  0
 25 26  1  0  0  0
 25 20  1  0  0  0
 10  1  1  0  0  0
 10  5  1  0  0  0
 17 18  1  0  0  0
 11 14  1  0  0  0
M  END
> <minimizedAffinity>
-8.30305

> <CNNscore>
0.9725672603

> <CNNaffinity>
7.6224479675

> <CNN_VS>
7.4133434296

> <CNNaffinity_variance>
0.0585903600

$$$$
[H]C#CC([H])([H])Oc1c(N([H])C(=O)C([H])=C([H])[H])c([H])c2c(N([H])c3c([H])c([H])c(F)c(Cl)c3[H])nc([H])nc2c1[H]


 30 32  0  0  0  0  0  0  0  0999 V2000
    0.1876  -53.5423  -23.5427 C   0  0  0  0  0  0  0  0  0  0  0  0
   -0.7573  -54.5117  -23.6912 N   0  0  0  0  0  0  0  0  0  0  0  0
   -1.4850  -55.0076  -22.6883 C   0  0  0  0  0  0  0  0  0  0  0  0
   -1.3078  -54.5515  -21.4394 N   0  0  0  0  0  0  0  0  0  0  0  0
   -0.3981  -53.5966  -21.1990 C   0  0  0  0  0  0  0  0  0  0  0  0
   -0.1974  -53.1138  -19.9238 C   0  0  0  0  0  0  0  0  0  0  0  0
    0.7352  -52.1392  -19.6877 C   0  0  0  0  0  0  0  0  0  0  0  0
    1.5136  -51.6051  -20.7402 C   0  0  0  0  0  0  0  0  0  0  0  0
    1.2894  -52.1082  -22.0015 C   0  0  0  0  0  0  0  0  0  0  0  0
    0.3574  -53.0874  -22.2646 C   0  0  0  0  0  0  0  0  0  0  0  0
    2.4710  -50.5951  -20.4517 N   0  0  0  0  0  0  0  0  0  0  0  0
    3.8432  -50.5929  -20.6443 C   0  0  0  0  0  0  0  0  0  0  0  0
    4.4845  -51.5306  -21.1278 O   0  0  0  0  0  0  0  0  0  0  0  0
    2.0663  -49.6856  -20.0135 H   0  0  0  0  0  0  0  0  0  0  0  0
    4.6376  -49.4125  -20.2614 C   0  0  0  0  0  0  0  0  0  0  0  0
    5.9596  -49.3672  -20.4415 C   0  0  0  0  0  0  0  0  0  0  0  0
    0.8982  -53.0419  -24.6588 N   0  0  0  0  0  0  0  0  0  0  0  0
    1.8996  -52.6889  -24.5175 H   0  0  0  0  0  0  0  0  0  0  0  0
   -0.6329  -52.8185  -30.0469 F   0  0  0  0  0  0  0  0  0  0  0  0
   -0.2890  -52.8627  -28.7168 C   0  0  0  0  0  0  0  0  0  0  0  0
    1.0092  -53.0599  -28.3581 C   0  0  0  0  0  0  0  0  0  0  0  0
    1.3509  -53.1029  -27.0272 C   0  0  0  0  0  0  0  0  0  0  0  0
    0.4212  -52.9522  -25.9893 C   0  0  0  0  0  0  0  0  0  0  0  0
   -0.8686  -52.7575  -26.3933 C   0  0  0  0  0  0  0  0  0  0  0  0
   -1.2289  -52.7113  -27.7406 C   0  0  0  0  0  0  0  0  0  0  0  0
   -2.8947  -52.4582  -28.1725 Cl  0  0  0  0  0  0  0  0  0  0  0  0
    0.9893  -51.6112  -18.4409 O   0  0  0  0  0  0  0  0  0  0  0  0
    0.2464  -50.6496  -17.7672 C   0  0  0  0  0  0  0  0  0  0  0  0
   -0.6883  -51.2651  -16.8622 C   0  0  0  0  0  0  0  0  0  0  0  0
   -1.4636  -51.7990  -16.0850 C   0  0  0  0  0  0  0  0  0  0  0  0
 19 20  1  0  0  0
 20 21  2  0  0  0
 21 22  1  0  0  0
 22 23  2  0  0  0
 23 17  1  0  0  0
 17  1  1  0  0  0
  1  2  2  0  0  0
  2  3  1  0  0  0
  3  4  2  0  0  0
  4  5  1  0  0  0
  5  6  2  0  0  0
  6  7  1  0  0  0
  7 27  1  0  0  0
 27 28  1  0  0  0
 28 29  1  0  0  0
 29 30  3  0  0  0
  7  8  2  0  0  0
  8 11  1  0  0  0
 11 12  1  0  0  0
 12 13  2  0  0  0
 12 15  1  0  0  0
 15 16  2  0  0  0
  8  9  1  0  0  0
  9 10  2  0  0  0
 23 24  1  0  0  0
 24 25  2  0  0  0
 25 26  1  0  0  0
 25 20  1  0  0  0
 10  1  1  0  0  0
 10  5  1  0  0  0
 17 18  1  0  0  0
 11 14  1  0  0  0
M  END
> <minimizedAffinity>
-8.02035

> <CNNscore>
0.9175215364

> <CNNaffinity>
7.6130590439

> <CNN_VS>
6.9851455688

> <CNNaffinity_variance>
0.1546099931

$$$$
[H]C#CC([H])([H])Oc1c(N([H])C(=O)C([H])=C([H])[H])c([H])c2c(N([H])c3c([H])c([H])c(F)c(Cl)c3[H])nc([H])nc2c1[H]


 30 32  0  0  0  0  0  0  0  0999 V2000
    0.1411  -53.4078  -23.4085 C   0  0  0  0  0  0  0  0  0  0  0  0
   -0.7019  -54.4751  -23.4799 N   0  0  0  0  0  0  0  0  0  0  0  0
   -1.4450  -54.9116  -22.4608 C   0  0  0  0  0  0  0  0  0  0  0  0
   -1.3893  -54.2901  -21.2734 N   0  0  0  0  0  0  0  0  0  0  0  0
   -0.5858  -53.2293  -21.1109 C   0  0  0  0  0  0  0  0  0  0  0  0
   -0.5109  -52.5759  -19.8997 C   0  0  0  0  0  0  0  0  0  0  0  0
    0.3139  -51.4941  -19.7427 C   0  0  0  0  0  0  0  0  0  0  0  0
    1.1071  -51.0210  -20.8133 C   0  0  0  0  0  0  0  0  0  0  0  0
    1.0097  -51.6950  -22.0094 C   0  0  0  0  0  0  0  0  0  0  0  0
    0.1876  -52.7847  -22.1924 C   0  0  0  0  0  0  0  0  0  0  0  0
    1.9499  -49.8953  -20.6077 N   0  0  0  0  0  0  0  0  0  0  0  0
    1.7049  -48.5506  -20.8355 C   0  0  0  0  0  0  0  0  0  0  0  0
    0.6468  -48.0968  -21.2813 O   0  0  0  0  0  0  0  0  0  0  0  0
    2.9370  -50.1226  -20.2115 H   0  0  0  0  0  0  0  0  0  0  0  0
    2.7484  -47.5529  -20.5412 C   0  0  0  0  0  0  0  0  0  0  0  0
    3.8092  -47.3911  -21.3354 C   0  0  0  0  0  0  0  0  0  0  0  0
    0.8739  -52.9824  -24.5412 N   0  0  0  0  0  0  0  0  0  0  0  0
    1.8893  -52.6670  -24.4108 H   0  0  0  0  0  0  0  0  0  0  0  0
   -0.6380  -52.9048  -29.9387 F   0  0  0  0  0  0  0  0  0  0  0  0
   -0.2983  -52.9118  -28.6068 C   0  0  0  0  0  0  0  0  0  0  0  0
    0.9908  -53.1440  -28.2368 C   0  0  0  0  0  0  0  0  0  0  0  0
    1.3283  -53.1496  -26.9041 C   0  0  0  0  0  0  0  0  0  0  0  0
    0.4031  -52.9251  -25.8756 C   0  0  0  0  0  0  0  0  0  0  0  0
   -0.8777  -52.6974  -26.2908 C   0  0  0  0  0  0  0  0  0  0  0  0
   -1.2337  -52.6885  -27.6400 C   0  0  0  0  0  0  0  0  0  0  0  0
   -2.8880  -52.3894  -28.0865 Cl  0  0  0  0  0  0  0  0  0  0  0  0
    0.4397  -50.7944  -18.5628 O   0  0  0  0  0  0  0  0  0  0  0  0
    1.0334  -51.2312  -17.3849 C   0  0  0  0  0  0  0  0  0  0  0  0
    2.4235  -50.8606  -17.3435 C   0  0  0  0  0  0  0  0  0  0  0  0
    3.6022  -50.5483  -17.2852 C   0  0  0  0  0  0  0  0  0  0  0  0
 19 20  1  0  0  0
 20 21  2  0  0  0
 21 22  1  0  0  0
 22 23  2  0  0  0
 23 17  1  0  0  0
 17  1  1  0  0  0
  1  2  2  0  0  0
  2  3  1  0  0  0
  3  4  2  0  0  0
  4  5  1  0  0  0
  5  6  2  0  0  0
  6  7  1  0  0  0
  7 27  1  0  0  0
 27 28  1  0  0  0
 28 29  1  0  0  0
 29 30  3  0  0  0
  7  8  2  0  0  0
  8 11  1  0  0  0
 11 12  1  0  0  0
 12 13  2  0  0  0
 12 15  1  0  0  0
 15 16  2  0  0  0
  8  9  1  0  0  0
  9 10  2  0  0  0
 23 24  1  0  0  0
 24 25  2  0  0  0
 25 26  1  0  0  0
 25 20  1  0  0  0
 10  1  1  0  0  0
 10  5  1  0  0  0
 17 18  1  0  0  0
 11 14  1  0  0  0
M  END
> <minimizedAffinity>
-7.60486

> <CNNscore>
0.9115863442

> <CNNaffinity>
7.5184965134

> <CNN_VS>
6.8537588120

> <CNNaffinity_variance>
0.1596725136

$$$$
[H]C#CC([H])([H])Oc1c(N([H])C(=O)C([H])=C([H])[H])c([H])c2c(N([H])c3c([H])c([H])c(F)c(Cl)c3[H])nc([H])nc2c1[H]


 30 32  0  0  0  0  0  0  0  0999 V2000
   -0.1393  -53.0911  -23.2830 C   0  0  0  0  0  0  0  0  0  0  0  0
   -0.9091  -54.1876  -23.5277 N   0  0  0  0  0  0  0  0  0  0  0  0
   -1.5051  -54.9110  -22.5775 C   0  0  0  0  0  0  0  0  0  0  0  0
   -1.3641  -54.5728  -21.2872 N   0  0  0  0  0  0  0  0  0  0  0  0
   -0.6232  -53.5070  -20.9523 C   0  0  0  0  0  0  0  0  0  0  0  0
   -0.4627  -53.1415  -19.6331 C   0  0  0  0  0  0  0  0  0  0  0  0
    0.2973  -52.0519  -19.3006 C   0  0  0  0  0  0  0  0  0  0  0  0
    0.9349  -51.2768  -20.2965 C   0  0  0  0  0  0  0  0  0  0  0  0
    0.7552  -51.6678  -21.6039 C   0  0  0  0  0  0  0  0  0  0  0  0
   -0.0044  -52.7587  -21.9637 C   0  0  0  0  0  0  0  0  0  0  0  0
    1.7150  -50.1542  -19.9083 N   0  0  0  0  0  0  0  0  0  0  0  0
    1.5813  -48.8190  -20.2540 C   0  0  0  0  0  0  0  0  0  0  0  0
    0.7058  -48.3730  -21.0016 O   0  0  0  0  0  0  0  0  0  0  0  0
    2.5427  -50.3753  -19.2381 H   0  0  0  0  0  0  0  0  0  0  0  0
    2.5252  -47.8225  -19.7182 C   0  0  0  0  0  0  0  0  0  0  0  0
    2.9838  -47.8918  -18.4663 C   0  0  0  0  0  0  0  0  0  0  0  0
    0.4350  -52.3537  -24.3448 N   0  0  0  0  0  0  0  0  0  0  0  0
    1.0702  -51.5231  -24.1124 H   0  0  0  0  0  0  0  0  0  0  0  0
   -0.5725  -53.0800  -29.8113 F   0  0  0  0  0  0  0  0  0  0  0  0
   -0.2976  -52.9219  -28.4739 C   0  0  0  0  0  0  0  0  0  0  0  0
   -1.2094  -52.3223  -27.6603 C   0  0  0  0  0  0  0  0  0  0  0  0
   -0.9325  -52.1661  -26.3228 C   0  0  0  0  0  0  0  0  0  0  0  0
    0.2616  -52.5971  -25.7292 C   0  0  0  0  0  0  0  0  0  0  0  0
    1.1479  -53.1918  -26.5809 C   0  0  0  0  0  0  0  0  0  0  0  0
    0.8794  -53.3571  -27.9402 C   0  0  0  0  0  0  0  0  0  0  0  0
    2.0613  -54.1263  -28.9586 Cl  0  0  0  0  0  0  0  0  0  0  0  0
    0.5016  -51.6299  -18.0054 O   0  0  0  0  0  0  0  0  0  0  0  0
   -0.4625  -51.2250  -17.0905 C   0  0  0  0  0  0  0  0  0  0  0  0
   -0.1530  -49.9223  -16.5624 C   0  0  0  0  0  0  0  0  0  0  0  0
    0.1024  -48.8079  -16.1346 C   0  0  0  0  0  0  0  0  0  0  0  0
 19 20  1  0  0  0
 20 21  2  0  0  0
 21 22  1  0  0  0
 22 23  2  0  0  0
 23 17  1  0  0  0
 17  1  1  0  0  0
  1  2  2  0  0  0
  2  3  1  0  0  0
  3  4  2  0  0  0
  4  5  1  0  0  0
  5  6  2  0  0  0
  6  7  1  0  0  0
  7 27  1  0  0  0
 27 28  1  0  0  0
 28 29  1  0  0  0
 29 30  3  0  0  0
  7  8  2  0  0  0
  8 11  1  0  0  0
 11 12  1  0  0  0
 12 13  2  0  0  0
 12 15  1  0  0  0
 15 16  2  0  0  0
  8  9  1  0  0  0
  9 10  2  0  0  0
 23 24  1  0  0  0
 24 25  2  0  0  0
 25 26  1  0  0  0
 25 20  1  0  0  0
 10  1  1  0  0  0
 10  5  1  0  0  0
 17 18  1  0  0  0
 11 14  1  0  0  0
M  END
> <minimizedAffinity>
-7.78368

> <CNNscore>
0.9059516788

> <CNNaffinity>
7.3606591225

> <CNN_VS>
6.6684017181

> <CNNaffinity_variance>
0.0824121237

$$$$
[H]C#CC([H])([H])Oc1c(N([H])C(=O)C([H])=C([H])[H])c([H])c2c(N([H])c3c([H])c([H])c(F)c(Cl)c3[H])nc([H])nc2c1[H]


 30 32  0  0  0  0  0  0  0  0999 V2000
   -0.7433  -53.1293  -23.9046 C   0  0  0  0  0  0  0  0  0  0  0  0
   -1.2322  -54.3956  -24.0161 N   0  0  0  0  0  0  0  0  0  0  0  0
   -1.2286  -55.2894  -23.0249 C   0  0  0  0  0  0  0  0  0  0  0  0
   -0.7214  -54.9627  -21.8269 N   0  0  0  0  0  0  0  0  0  0  0  0
   -0.2175  -53.7369  -21.6256 C   0  0  0  0  0  0  0  0  0  0  0  0
    0.3103  -53.3793  -20.4037 C   0  0  0  0  0  0  0  0  0  0  0  0
    0.8242  -52.1251  -20.2081 C   0  0  0  0  0  0  0  0  0  0  0  0
    0.8275  -51.1684  -21.2490 C   0  0  0  0  0  0  0  0  0  0  0  0
    0.2935  -51.5562  -22.4568 C   0  0  0  0  0  0  0  0  0  0  0  0
   -0.2297  -52.8109  -22.6783 C   0  0  0  0  0  0  0  0  0  0  0  0
    1.3709  -49.8783  -21.0039 N   0  0  0  0  0  0  0  0  0  0  0  0
    2.4615  -49.2504  -21.5843 C   0  0  0  0  0  0  0  0  0  0  0  0
    3.1734  -49.7502  -22.4604 O   0  0  0  0  0  0  0  0  0  0  0  0
    0.8531  -49.2944  -20.2463 H   0  0  0  0  0  0  0  0  0  0  0  0
    2.8386  -47.8907  -21.1602 C   0  0  0  0  0  0  0  0  0  0  0  0
    3.0902  -46.9235  -22.0454 C   0  0  0  0  0  0  0  0  0  0  0  0
   -0.8107  -52.2252  -24.9904 N   0  0  0  0  0  0  0  0  0  0  0  0
   -1.0853  -51.2077  -24.7989 H   0  0  0  0  0  0  0  0  0  0  0  0
   -0.1036  -53.2094  -30.4637 F   0  0  0  0  0  0  0  0  0  0  0  0
   -0.2470  -52.9837  -29.1154 C   0  0  0  0  0  0  0  0  0  0  0  0
   -1.4267  -52.5101  -28.6287 C   0  0  0  0  0  0  0  0  0  0  0  0
   -1.5679  -52.2860  -27.2797 C   0  0  0  0  0  0  0  0  0  0  0  0
   -0.5459  -52.5210  -26.3499 C   0  0  0  0  0  0  0  0  0  0  0  0
    0.6198  -52.9944  -26.8806 C   0  0  0  0  0  0  0  0  0  0  0  0
    0.7764  -53.2267  -28.2476 C   0  0  0  0  0  0  0  0  0  0  0  0
    2.2941  -53.8320  -28.8443 Cl  0  0  0  0  0  0  0  0  0  0  0  0
    1.3676  -51.6999  -19.0158 O   0  0  0  0  0  0  0  0  0  0  0  0
    0.7059  -51.0790  -17.9636 C   0  0  0  0  0  0  0  0  0  0  0  0
   -0.4116  -51.8714  -17.5220 C   0  0  0  0  0  0  0  0  0  0  0  0
   -1.3476  -52.5490  -17.1282 C   0  0  0  0  0  0  0  0  0  0  0  0
 19 20  1  0  0  0
 20 21  2  0  0  0
 21 22  1  0  0  0
 22 23  2  0  0  0
 23 17  1  0  0  0
 17  1  1  0  0  0
  1  2  2  0  0  0
  2  3  1  0  0  0
  3  4  2  0  0  0
  4  5  1  0  0  0
  5  6  2  0  0  0
  6  7  1  0  0  0
  7 27  1  0  0  0
 27 28  1  0  0  0
 28 29  1  0  0  0
 29 30  3  0  0  0
  7  8  2  0  0  0
  8 11  1  0  0  0
 11 12  1  0  0  0
 12 13  2  0  0  0
 12 15  1  0  0  0
 15 16  2  0  0  0
  8  9  1  0  0  0
  9 10  2  0  0  0
 23 24  1  0  0  0
 24 25  2  0  0  0
 25 26  1  0  0  0
 25 20  1  0  0  0
 10  1  1  0  0  0
 10  5  1  0  0  0
 17 18  1  0  0  0
 11 14  1  0  0  0
M  END
> <minimizedAffinity>
-7.57307

> <CNNscore>
0.8039543629

> <CNNaffinity>
7.3708558083

> <CNN_VS>
5.9258317947

> <CNNaffinity_variance>
0.1217523813

$$$$
[H]C#CC([H])([H])Oc1c(N([H])C(=O)C([H])=C([H])[H])c([H])c2c(N([H])c3c([H])c([H])c(F)c(Cl)c3[H])nc([H])nc2c1[H]


 30 32  0  0  0  0  0  0  0  0999 V2000
    0.1163  -53.6081  -21.7293 C   0  0  0  0  0  0  0  0  0  0  0  0
   -0.8433  -54.5585  -21.5542 N   0  0  0  0  0  0  0  0  0  0  0  0
   -1.5444  -55.1066  -22.5488 C   0  0  0  0  0  0  0  0  0  0  0  0
   -1.3228  -54.7273  -23.8162 N   0  0  0  0  0  0  0  0  0  0  0  0
   -0.3959  -53.7963  -24.0833 C   0  0  0  0  0  0  0  0  0  0  0  0
   -0.1521  -53.3897  -25.3775 C   0  0  0  0  0  0  0  0  0  0  0  0
    0.7957  -52.4370  -25.6404 C   0  0  0  0  0  0  0  0  0  0  0  0
    1.5455  -51.8474  -24.5967 C   0  0  0  0  0  0  0  0  0  0  0  0
    1.2783  -52.2747  -23.3160 C   0  0  0  0  0  0  0  0  0  0  0  0
    0.3310  -53.2314  -23.0259 C   0  0  0  0  0  0  0  0  0  0  0  0
    2.5193  -50.8618  -24.9131 N   0  0  0  0  0  0  0  0  0  0  0  0
    2.9007  -49.7328  -24.2059 C   0  0  0  0  0  0  0  0  0  0  0  0
    2.4201  -49.3894  -23.1217 O   0  0  0  0  0  0  0  0  0  0  0  0
    3.0455  -51.0161  -25.8525 H   0  0  0  0  0  0  0  0  0  0  0  0
    3.9489  -48.8477  -24.7434 C   0  0  0  0  0  0  0  0  0  0  0  0
    3.6983  -47.9778  -25.7246 C   0  0  0  0  0  0  0  0  0  0  0  0
    0.8423  -53.0958  -20.6287 N   0  0  0  0  0  0  0  0  0  0  0  0
    1.9127  -53.0980  -20.6699 H   0  0  0  0  0  0  0  0  0  0  0  0
   -1.0663  -50.6647  -15.9519 F   0  0  0  0  0  0  0  0  0  0  0  0
   -0.6209  -51.2862  -17.0941 C   0  0  0  0  0  0  0  0  0  0  0  0
    0.5008  -50.8344  -17.7188 C   0  0  0  0  0  0  0  0  0  0  0  0
    0.9447  -51.4583  -18.8606 C   0  0  0  0  0  0  0  0  0  0  0  0
    0.2971  -52.5596  -19.4366 C   0  0  0  0  0  0  0  0  0  0  0  0
   -0.8236  -52.9793  -18.7788 C   0  0  0  0  0  0  0  0  0  0  0  0
   -1.2848  -52.3555  -17.6189 C   0  0  0  0  0  0  0  0  0  0  0  0
   -2.7209  -52.9522  -16.8397 Cl  0  0  0  0  0  0  0  0  0  0  0  0
    1.0912  -51.9827  -26.9069 O   0  0  0  0  0  0  0  0  0  0  0  0
    1.2802  -52.7468  -28.0519 C   0  0  0  0  0  0  0  0  0  0  0  0
    0.0637  -52.8348  -28.8161 C   0  0  0  0  0  0  0  0  0  0  0  0
   -0.9802  -52.9038  -29.4451 C   0  0  0  0  0  0  0  0  0  0  0  0
 19 20  1  0  0  0
 20 21  2  0  0  0
 21 22  1  0  0  0
 22 23  2  0  0  0
 23 17  1  0  0  0
 17  1  1  0  0  0
  1  2  2  0  0  0
  2  3  1  0  0  0
  3  4  2  0  0  0
  4  5  1  0  0  0
  5  6  2  0  0  0
  6  7  1  0  0  0
  7 27  1  0  0  0
 27 28  1  0  0  0
 28 29  1  0  0  0
 29 30  3  0  0  0
  7  8  2  0  0  0
  8 11  1  0  0  0
 11 12  1  0  0  0
 12 13  2  0  0  0
 12 15  1  0  0  0
 15 16  2  0  0  0
  8  9  1  0  0  0
  9 10  2  0  0  0
 23 24  1  0  0  0
 24 25  2  0  0  0
 25 26  1  0  0  0
 25 20  1  0  0  0
 10  1  1  0  0  0
 10  5  1  0  0  0
 17 18  1  0  0  0
 11 14  1  0  0  0
M  END
> <minimizedAffinity>
-7.52518

> <CNNscore>
0.7913541794

> <CNNaffinity>
7.2617363930

> <CNN_VS>
5.7466053963

> <CNNaffinity_variance>
0.0640700683

$$$$
[H]C#CC([H])([H])Oc1c(N([H])C(=O)C([H])=C([H])[H])c([H])c2c(N([H])c3c([H])c([H])c(F)c(Cl)c3[H])nc([H])nc2c1[H]


 30 32  0  0  0  0  0  0  0  0999 V2000
    0.0714  -52.6152  -22.1744 C   0  0  0  0  0  0  0  0  0  0  0  0
   -0.5672  -53.6064  -22.8559 N   0  0  0  0  0  0  0  0  0  0  0  0
   -1.3941  -54.4896  -22.2926 C   0  0  0  0  0  0  0  0  0  0  0  0
   -1.6407  -54.4345  -20.9752 N   0  0  0  0  0  0  0  0  0  0  0  0
   -1.0551  -53.4910  -20.2241 C   0  0  0  0  0  0  0  0  0  0  0  0
   -1.2920  -53.4160  -18.8685 C   0  0  0  0  0  0  0  0  0  0  0  0
   -0.6880  -52.4496  -18.1092 C   0  0  0  0  0  0  0  0  0  0  0  0
    0.1906  -51.5078  -18.6923 C   0  0  0  0  0  0  0  0  0  0  0  0
    0.4064  -51.6095  -20.0478 C   0  0  0  0  0  0  0  0  0  0  0  0
   -0.1892  -52.5716  -20.8329 C   0  0  0  0  0  0  0  0  0  0  0  0
    0.7969  -50.5215  -17.8681 N   0  0  0  0  0  0  0  0  0  0  0  0
    2.1037  -50.4233  -17.4178 C   0  0  0  0  0  0  0  0  0  0  0  0
    2.9986  -51.2317  -17.6819 O   0  0  0  0  0  0  0  0  0  0  0  0
    0.1360  -49.7221  -17.5408 H   0  0  0  0  0  0  0  0  0  0  0  0
    2.5031  -49.2932  -16.5607 C   0  0  0  0  0  0  0  0  0  0  0  0
    3.3548  -49.4493  -15.5446 C   0  0  0  0  0  0  0  0  0  0  0  0
    0.9095  -51.6941  -22.8453 N   0  0  0  0  0  0  0  0  0  0  0  0
    0.4879  -50.7751  -23.1991 H   0  0  0  0  0  0  0  0  0  0  0  0
    6.2802  -52.4547  -24.2601 F   0  0  0  0  0  0  0  0  0  0  0  0
    4.9736  -52.2561  -23.8827 C   0  0  0  0  0  0  0  0  0  0  0  0
    3.9633  -52.7457  -24.6525 C   0  0  0  0  0  0  0  0  0  0  0  0
    2.6572  -52.5464  -24.2724 C   0  0  0  0  0  0  0  0  0  0  0  0
    2.2915  -51.8524  -23.1111 C   0  0  0  0  0  0  0  0  0  0  0  0
    3.3352  -51.3778  -22.3693 C   0  0  0  0  0  0  0  0  0  0  0  0
    4.6653  -51.5733  -22.7432 C   0  0  0  0  0  0  0  0  0  0  0  0
    5.9378  -50.9375  -21.7422 Cl  0  0  0  0  0  0  0  0  0  0  0  0
   -0.8775  -52.3159  -16.7513 O   0  0  0  0  0  0  0  0  0  0  0  0
   -1.8222  -51.5264  -16.1073 C   0  0  0  0  0  0  0  0  0  0  0  0
   -3.1203  -52.1471  -16.1447 C   0  0  0  0  0  0  0  0  0  0  0  0
   -4.2188  -52.6766  -16.1993 C   0  0  0  0  0  0  0  0  0  0  0  0
 19 20  1  0  0  0
 20 21  2  0  0  0
 21 22  1  0  0  0
 22 23  2  0  0  0
 23 17  1  0  0  0
 17  1  1  0  0  0
  1  2  2  0  0  0
  2  3  1  0  0  0
  3  4  2  0  0  0
  4  5  1  0  0  0
  5  6  2  0  0  0
  6  7  1  0  0  0
  7 27  1  0  0  0
 27 28  1  0  0  0
 28 29  1  0  0  0
 29 30  3  0  0  0
  7  8  2  0  0  0
  8 11  1  0  0  0
 11 12  1  0  0  0
 12 13  2  0  0  0
 12 15  1  0  0  0
 15 16  2  0  0  0
  8  9  1  0  0  0
  9 10  2  0  0  0
 23 24  1  0  0  0
 24 25  2  0  0  0
 25 26  1  0  0  0
 25 20  1  0  0  0
 10  1  1  0  0  0
 10  5  1  0  0  0
 17 18  1  0  0  0
 11 14  1  0  0  0
M  END
> <minimizedAffinity>
-7.29066

> <CNNscore>
0.7534763813

> <CNNaffinity>
6.9294805527

> <CNN_VS>
5.2211999893

> <CNNaffinity_variance>
0.0416320637

$$$$
[H]C#CC([H])([H])Oc1c(N([H])C(=O)C([H])=C([H])[H])c([H])c2c(N([H])c3c([H])c([H])c(F)c(Cl)c3[H])nc([H])nc2c1[H]


 30 32  0  0  0  0  0  0  0  0999 V2000
   -0.1060  -52.9384  -22.9566 C   0  0  0  0  0  0  0  0  0  0  0  0
   -0.7680  -53.9793  -23.5336 N   0  0  0  0  0  0  0  0  0  0  0  0
   -1.4988  -54.8685  -22.8579 C   0  0  0  0  0  0  0  0  0  0  0  0
   -1.6160  -54.7687  -21.5254 N   0  0  0  0  0  0  0  0  0  0  0  0
   -0.9979  -53.7745  -20.8722 C   0  0  0  0  0  0  0  0  0  0  0  0
   -1.1026  -53.6530  -19.5034 C   0  0  0  0  0  0  0  0  0  0  0  0
   -0.4663  -52.6348  -18.8447 C   0  0  0  0  0  0  0  0  0  0  0  0
    0.3115  -51.6861  -19.5474 C   0  0  0  0  0  0  0  0  0  0  0  0
    0.3963  -51.8350  -20.9131 C   0  0  0  0  0  0  0  0  0  0  0  0
   -0.2344  -52.8496  -21.5984 C   0  0  0  0  0  0  0  0  0  0  0  0
    0.9557  -50.6454  -18.8252 N   0  0  0  0  0  0  0  0  0  0  0  0
    2.2657  -50.5520  -18.3830 C   0  0  0  0  0  0  0  0  0  0  0  0
    3.1288  -51.4165  -18.5614 O   0  0  0  0  0  0  0  0  0  0  0  0
    0.3261  -49.7923  -18.5824 H   0  0  0  0  0  0  0  0  0  0  0  0
    2.7086  -49.3572  -17.6433 C   0  0  0  0  0  0  0  0  0  0  0  0
    1.8966  -48.7094  -16.8047 C   0  0  0  0  0  0  0  0  0  0  0  0
    0.6237  -52.0153  -23.7418 N   0  0  0  0  0  0  0  0  0  0  0  0
    0.7826  -51.0265  -23.3620 H   0  0  0  0  0  0  0  0  0  0  0  0
    3.2066  -53.0653  -28.6051 F   0  0  0  0  0  0  0  0  0  0  0  0
    2.5444  -52.8011  -27.4300 C   0  0  0  0  0  0  0  0  0  0  0  0
    3.2415  -52.7090  -26.2645 C   0  0  0  0  0  0  0  0  0  0  0  0
    2.5770  -52.4439  -25.0905 C   0  0  0  0  0  0  0  0  0  0  0  0
    1.1898  -52.2576  -25.0172 C   0  0  0  0  0  0  0  0  0  0  0  0
    0.5299  -52.3594  -26.2083 C   0  0  0  0  0  0  0  0  0  0  0  0
    1.1920  -52.6276  -27.4069 C   0  0  0  0  0  0  0  0  0  0  0  0
    0.2781  -52.7404  -28.8826 Cl  0  0  0  0  0  0  0  0  0  0  0  0
   -0.5261  -52.4529  -17.4805 O   0  0  0  0  0  0  0  0  0  0  0  0
   -1.6536  -52.1757  -16.7173 C   0  0  0  0  0  0  0  0  0  0  0  0
   -1.5038  -50.9278  -16.0161 C   0  0  0  0  0  0  0  0  0  0  0  0
   -1.3605  -49.8629  -15.4367 C   0  0  0  0  0  0  0  0  0  0  0  0
 19 20  1  0  0  0
 20 21  2  0  0  0
 21 22  1  0  0  0
 22 23  2  0  0  0
 23 17  1  0  0  0
 17  1  1  0  0  0
  1  2  2  0  0  0
  2  3  1  0  0  0
  3  4  2  0  0  0
  4  5  1  0  0  0
  5  6  2  0  0  0
  6  7  1  0  0  0
  7 27  1  0  0  0
 27 28  1  0  0  0
 28 29  1  0  0  0
 29 30  3  0  0  0
  7  8  2  0  0  0
  8 11  1  0  0  0
 11 12  1  0  0  0
 12 13  2  0  0  0
 12 15  1  0  0  0
 15 16  2  0  0  0
  8  9  1  0  0  0
  9 10  2  0  0  0
 23 24  1  0  0  0
 24 25  2  0  0  0
 25 26  1  0  0  0
 25 20  1  0  0  0
 10  1  1  0  0  0
 10  5  1  0  0  0
 17 18  1  0  0  0
 11 14  1  0  0  0
M  END
> <minimizedAffinity>
-7.50472

> <CNNscore>
0.6963335872

> <CNNaffinity>
7.0456213951

> <CNN_VS>
4.9061026573

> <CNNaffinity_variance>
0.0860372856

$$$$
[H]C#CC([H])([H])Oc1c(N([H])C(=O)C([H])=C([H])[H])c([H])c2c(N([H])c3c([H])c([H])c(F)c(Cl)c3[H])nc([H])nc2c1[H]


 30 32  0  0  0  0  0  0  0  0999 V2000
   -0.3463  -53.2977  -20.0155 C   0  0  0  0  0  0  0  0  0  0  0  0
   -1.1798  -54.2371  -20.5423 N   0  0  0  0  0  0  0  0  0  0  0  0
   -1.4025  -54.3920  -21.8490 C   0  0  0  0  0  0  0  0  0  0  0  0
   -0.7878  -53.5942  -22.7350 N   0  0  0  0  0  0  0  0  0  0  0  0
    0.0509  -52.6402  -22.3066 C   0  0  0  0  0  0  0  0  0  0  0  0
    0.6924  -51.8077  -23.1983 C   0  0  0  0  0  0  0  0  0  0  0  0
    1.5463  -50.8350  -22.7511 C   0  0  0  0  0  0  0  0  0  0  0  0
    1.7913  -50.6591  -21.3698 C   0  0  0  0  0  0  0  0  0  0  0  0
    1.1356  -51.5060  -20.5054 C   0  0  0  0  0  0  0  0  0  0  0  0
    0.2728  -52.4919  -20.9302 C   0  0  0  0  0  0  0  0  0  0  0  0
    2.6844  -49.6372  -20.9481 N   0  0  0  0  0  0  0  0  0  0  0  0
    3.9954  -49.7308  -20.5090 C   0  0  0  0  0  0  0  0  0  0  0  0
    4.6279  -50.7865  -20.4109 O   0  0  0  0  0  0  0  0  0  0  0  0
    2.2785  -48.6284  -20.9737 H   0  0  0  0  0  0  0  0  0  0  0  0
    4.7292  -48.5137  -20.1200 C   0  0  0  0  0  0  0  0  0  0  0  0
    4.6138  -47.9840  -18.9000 C   0  0  0  0  0  0  0  0  0  0  0  0
   -0.1343  -53.2138  -18.6194 N   0  0  0  0  0  0  0  0  0  0  0  0
    0.7670  -53.6214  -18.2085 H   0  0  0  0  0  0  0  0  0  0  0  0
   -3.3470  -50.5884  -14.8496 F   0  0  0  0  0  0  0  0  0  0  0  0
   -2.5815  -51.2583  -15.7741 C   0  0  0  0  0  0  0  0  0  0  0  0
   -1.3416  -50.7951  -16.0916 C   0  0  0  0  0  0  0  0  0  0  0  0
   -0.5776  -51.4673  -17.0159 C   0  0  0  0  0  0  0  0  0  0  0  0
   -1.0073  -52.6306  -17.6689 C   0  0  0  0  0  0  0  0  0  0  0  0
   -2.2564  -53.0596  -17.3218 C   0  0  0  0  0  0  0  0  0  0  0  0
   -3.0421  -52.3872  -16.3849 C   0  0  0  0  0  0  0  0  0  0  0  0
   -4.6232  -52.9996  -15.9969 Cl  0  0  0  0  0  0  0  0  0  0  0  0
    2.2197  -49.9683  -23.5836 O   0  0  0  0  0  0  0  0  0  0  0  0
    3.0325  -50.2977  -24.6612 C   0  0  0  0  0  0  0  0  0  0  0  0
    4.1450  -51.1058  -24.2360 C   0  0  0  0  0  0  0  0  0  0  0  0
    5.0996  -51.7719  -23.8682 C   0  0  0  0  0  0  0  0  0  0  0  0
 19 20  1  0  0  0
 20 21  2  0  0  0
 21 22  1  0  0  0
 22 23  2  0  0  0
 23 17  1  0  0  0
 17  1  1  0  0  0
  1  2  2  0  0  0
  2  3  1  0  0  0
  3  4  2  0  0  0
  4  5  1  0  0  0
  5  6  2  0  0  0
  6  7  1  0  0  0
  7 27  1  0  0  0
 27 28  1  0  0  0
 28 29  1  0  0  0
 29 30  3  0  0  0
  7  8  2  0  0  0
  8 11  1  0  0  0
 11 12  1  0  0  0
 12 13  2  0  0  0
 12 15  1  0  0  0
 15 16  2  0  0  0
  8  9  1  0  0  0
  9 10  2  0  0  0
 23 24  1  0  0  0
 24 25  2  0  0  0
 25 26  1  0  0  0
 25 20  1  0  0  0
 10  1  1  0  0  0
 10  5  1  0  0  0
 17 18  1  0  0  0
 11 14  1  0  0  0
M  END
> <minimizedAffinity>
-6.52190

> <CNNscore>
0.6944721341

> <CNNaffinity>
6.9566717148

> <CNN_VS>
4.8312144279

> <CNNaffinity_variance>
0.1810382307

$$$$
[H]C([H])=C([H])C(=O)N([H])c1c(OC([H])([H])C([H])([H])N([H])C(=O)C([H])([H])C([H])([H])C([H])([H])[H])c([H])c2nc([H])nc(N([H])c3c([H])c([H])c(Br)c([H])c3F)c2c1[H]


 36 38  0  0  0  0  0  0  0  0999 V2000
   -0.4452  -52.9556  -19.2511 C   0  0  0  0  0  0  0  0  0  0  0  0
   -0.9727  -53.9514  -20.0355 C   0  0  0  0  0  0  0  0  0  0  0  0
   -0.8389  -53.9600  -21.4143 C   0  0  0  0  0  0  0  0  0  0  0  0
   -1.3658  -54.9482  -22.1527 N   0  0  0  0  0  0  0  0  0  0  0  0
   -1.2135  -54.9237  -23.5094 C   0  0  0  0  0  0  0  0  0  0  0  0
   -0.5566  -53.9436  -24.1074 N   0  0  0  0  0  0  0  0  0  0  0  0
   -0.0114  -52.9337  -23.4200 C   0  0  0  0  0  0  0  0  0  0  0  0
   -0.1548  -52.9369  -22.0208 C   0  0  0  0  0  0  0  0  0  0  0  0
    0.3803  -51.9247  -21.2130 C   0  0  0  0  0  0  0  0  0  0  0  0
    0.2587  -51.8980  -19.8450 C   0  0  0  0  0  0  0  0  0  0  0  0
    0.7731  -50.9104  -18.9772 N   0  0  0  0  0  0  0  0  0  0  0  0
    2.0669  -50.7634  -18.4612 C   0  0  0  0  0  0  0  0  0  0  0  0
    2.9657  -51.5878  -18.7638 O   0  0  0  0  0  0  0  0  0  0  0  0
    0.0906  -50.1409  -18.6453 H   0  0  0  0  0  0  0  0  0  0  0  0
    2.3958  -49.6642  -17.5725 C   0  0  0  0  0  0  0  0  0  0  0  0
    3.3820  -49.5964  -16.7190 C   0  0  0  0  0  0  0  0  0  0  0  0
    0.6870  -51.8734  -24.0115 N   0  0  0  0  0  0  0  0  0  0  0  0
    0.1619  -51.0961  -24.5180 H   0  0  0  0  0  0  0  0  0  0  0  0
    2.0944  -51.7002  -24.0171 C   0  0  0  0  0  0  0  0  0  0  0  0
    2.9831  -52.6335  -24.4623 C   0  0  0  0  0  0  0  0  0  0  0  0
    4.3560  -52.3376  -24.4087 C   0  0  0  0  0  0  0  0  0  0  0  0
    4.8526  -51.1543  -23.9301 C   0  0  0  0  0  0  0  0  0  0  0  0
    6.7382  -50.8191  -23.8870 Br  0  0  0  0  0  0  0  0  0  0  0  0
    3.9644  -50.2025  -23.4769 C   0  0  0  0  0  0  0  0  0  0  0  0
    2.6285  -50.4876  -23.5279 C   0  0  0  0  0  0  0  0  0  0  0  0
    1.7867  -49.5321  -23.0761 F   0  0  0  0  0  0  0  0  0  0  0  0
   -0.6007  -52.9831  -17.8736 O   0  0  0  0  0  0  0  0  0  0  0  0
   -1.8783  -52.8312  -17.3376 C   0  0  0  0  0  0  0  0  0  0  0  0
   -1.9600  -51.8160  -16.2412 C   0  0  0  0  0  0  0  0  0  0  0  0
   -4.1209  -51.8058  -14.9998 C   0  0  0  0  0  0  0  0  0  0  0  0
   -4.6007  -51.0587  -15.8896 O   0  0  0  0  0  0  0  0  0  0  0  0
   -2.7718  -52.2188  -15.1384 N   0  0  0  0  0  0  0  0  0  0  0  0
   -2.3958  -52.8383  -14.3875 H   0  0  0  0  0  0  0  0  0  0  0  0
   -4.9847  -52.2024  -13.8768 C   0  0  0  0  0  0  0  0  0  0  0  0
   -4.9144  -54.5939  -13.1401 C   0  0  0  0  0  0  0  0  0  0  0  0
   -5.5539  -53.5925  -14.0785 C   0  0  0  0  0  0  0  0  0  0  0  0
 35 36  1  0  0  0
 36 34  1  0  0  0
 34 30  1  0  0  0
 30 31  2  0  0  0
 30 32  1  0  0  0
 32 29  1  0  0  0
 29 28  1  0  0  0
 28 27  1  0  0  0
 27  1  1  0  0  0
  1  2  2  0  0  0
  2  3  1  0  0  0
  3  4  2  0  0  0
  4  5  1  0  0  0
  5  6  2  0  0  0
  6  7  1  0  0  0
  7 17  1  0  0  0
 17 19  1  0  0  0
 19 20  2  0  0  0
 20 21  1  0  0  0
 21 22  2  0  0  0
 22 23  1  0  0  0
 22 24  1  0  0  0
 24 25  2  0  0  0
 25 26  1  0  0  0
  7  8  2  0  0  0
  8  9  1  0  0  0
  9 10  2  0  0  0
 10 11  1  0  0  0
 11 12  1  0  0  0
 12 13  2  0  0  0
 12 15  1  0  0  0
 15 16  2  0  0  0
 10  1  1  0  0  0
  8  3  1  0  0  0
 25 19  1  0  0  0
 32 33  1  0  0  0
 17 18  1  0  0  0
 11 14  1  0  0  0
M  END
> <minimizedAffinity>
-7.32188

> <CNNscore>
0.8278743625

> <CNNaffinity>
7.3402237892

> <CNN_VS>
6.0767831802

> <CNNaffinity_variance>
0.0277460460

$$$$
[H]C([H])=C([H])C(=O)N([H])c1c(OC([H])([H])C([H])([H])N([H])C(=O)C([H])([H])C([H])([H])C([H])([H])[H])c([H])c2nc([H])nc(N([H])c3c([H])c([H])c(Br)c([H])c3F)c2c1[H]


 36 38  0  0  0  0  0  0  0  0999 V2000
   -0.4161  -52.8601  -19.3124 C   0  0  0  0  0  0  0  0  0  0  0  0
   -0.9807  -53.8425  -20.0879 C   0  0  0  0  0  0  0  0  0  0  0  0
   -0.8377  -53.8750  -21.4654 C   0  0  0  0  0  0  0  0  0  0  0  0
   -1.4016  -54.8492  -22.1951 N   0  0  0  0  0  0  0  0  0  0  0  0
   -1.2388  -54.8491  -23.5508 C   0  0  0  0  0  0  0  0  0  0  0  0
   -0.5358  -53.9063  -24.1562 N   0  0  0  0  0  0  0  0  0  0  0  0
    0.0477  -52.9119  -23.4778 C   0  0  0  0  0  0  0  0  0  0  0  0
   -0.1056  -52.8905  -22.0797 C   0  0  0  0  0  0  0  0  0  0  0  0
    0.4671  -51.8918  -21.2809 C   0  0  0  0  0  0  0  0  0  0  0  0
    0.3371  -51.8419  -19.9144 C   0  0  0  0  0  0  0  0  0  0  0  0
    0.8875  -50.8661  -19.0555 N   0  0  0  0  0  0  0  0  0  0  0  0
    2.1779  -50.7775  -18.5179 C   0  0  0  0  0  0  0  0  0  0  0  0
    3.0369  -51.6540  -18.7881 O   0  0  0  0  0  0  0  0  0  0  0  0
    0.2412  -50.0554  -18.7509 H   0  0  0  0  0  0  0  0  0  0  0  0
    2.5488  -49.6802  -17.6436 C   0  0  0  0  0  0  0  0  0  0  0  0
    2.1966  -48.4265  -17.7439 C   0  0  0  0  0  0  0  0  0  0  0  0
    0.7955  -51.8907  -24.0775 N   0  0  0  0  0  0  0  0  0  0  0  0
    0.3129  -51.1336  -24.6524 H   0  0  0  0  0  0  0  0  0  0  0  0
    2.2031  -51.7342  -24.0066 C   0  0  0  0  0  0  0  0  0  0  0  0
    3.1032  -52.6965  -24.3573 C   0  0  0  0  0  0  0  0  0  0  0  0
    4.4746  -52.4145  -24.2347 C   0  0  0  0  0  0  0  0  0  0  0  0
    4.9588  -51.2172  -23.7790 C   0  0  0  0  0  0  0  0  0  0  0  0
    6.8431  -50.9022  -23.6380 Br  0  0  0  0  0  0  0  0  0  0  0  0
    4.0590  -50.2360  -23.4211 C   0  0  0  0  0  0  0  0  0  0  0  0
    2.7245  -50.5076  -23.5393 C   0  0  0  0  0  0  0  0  0  0  0  0
    1.8712  -49.5234  -23.1802 F   0  0  0  0  0  0  0  0  0  0  0  0
   -0.5825  -52.8628  -17.9358 O   0  0  0  0  0  0  0  0  0  0  0  0
   -1.8653  -53.0181  -17.4135 C   0  0  0  0  0  0  0  0  0  0  0  0
   -2.1903  -52.0634  -16.3078 C   0  0  0  0  0  0  0  0  0  0  0  0
   -0.3343  -50.6522  -15.4280 C   0  0  0  0  0  0  0  0  0  0  0  0
   -0.6219  -49.7809  -16.2872 O   0  0  0  0  0  0  0  0  0  0  0  0
   -1.1110  -51.8380  -15.4015 N   0  0  0  0  0  0  0  0  0  0  0  0
   -0.8534  -52.5464  -14.6797 H   0  0  0  0  0  0  0  0  0  0  0  0
    0.7838  -50.3881  -14.5090 C   0  0  0  0  0  0  0  0  0  0  0  0
    2.8857  -51.7478  -14.5075 C   0  0  0  0  0  0  0  0  0  0  0  0
    1.4432  -51.6743  -14.0532 C   0  0  0  0  0  0  0  0  0  0  0  0
 35 36  1  0  0  0
 36 34  1  0  0  0
 34 30  1  0  0  0
 30 31  2  0  0  0
 30 32  1  0  0  0
 32 29  1  0  0  0
 29 28  1  0  0  0
 28 27  1  0  0  0
 27  1  1  0  0  0
  1  2  2  0  0  0
  2  3  1  0  0  0
  3  4  2  0  0  0
  4  5  1  0  0  0
  5  6  2  0  0  0
  6  7  1  0  0  0
  7 17  1  0  0  0
 17 19  1  0  0  0
 19 20  2  0  0  0
 20 21  1  0  0  0
 21 22  2  0  0  0
 22 23  1  0  0  0
 22 24  1  0  0  0
 24 25  2  0  0  0
 25 26  1  0  0  0
  7  8  2  0  0  0
  8  9  1  0  0  0
  9 10  2  0  0  0
 10 11  1  0  0  0
 11 12  1  0  0  0
 12 13  2  0  0  0
 12 15  1  0  0  0
 15 16  2  0  0  0
 10  1  1  0  0  0
  8  3  1  0  0  0
 25 19  1  0  0  0
 32 33  1  0  0  0
 17 18  1  0  0  0
 11 14  1  0  0  0
M  END
> <minimizedAffinity>
-6.97646

> <CNNscore>
0.7754949331

> <CNNaffinity>
7.1969580650

> <CNN_VS>
5.5812044144

> <CNNaffinity_variance>
0.0437663607

$$$$
[H]C([H])=C([H])C(=O)N([H])c1c(OC([H])([H])C([H])([H])N([H])C(=O)C([H])([H])C([H])([H])C([H])([H])[H])c([H])c2nc([H])nc(N([H])c3c([H])c([H])c(Br)c([H])c3F)c2c1[H]


 36 38  0  0  0  0  0  0  0  0999 V2000
    0.0730  -51.2369  -18.7641 C   0  0  0  0  0  0  0  0  0  0  0  0
   -0.5274  -52.4470  -19.0096 C   0  0  0  0  0  0  0  0  0  0  0  0
   -0.5497  -53.0229  -20.2693 C   0  0  0  0  0  0  0  0  0  0  0  0
   -1.1444  -54.2073  -20.4763 N   0  0  0  0  0  0  0  0  0  0  0  0
   -1.1462  -54.7446  -21.7316 C   0  0  0  0  0  0  0  0  0  0  0  0
   -0.5727  -54.1181  -22.7457 N   0  0  0  0  0  0  0  0  0  0  0  0
    0.0341  -52.9353  -22.5958 C   0  0  0  0  0  0  0  0  0  0  0  0
    0.0493  -52.3616  -21.3116 C   0  0  0  0  0  0  0  0  0  0  0  0
    0.6596  -51.1271  -21.0525 C   0  0  0  0  0  0  0  0  0  0  0  0
    0.6926  -50.5397  -19.8112 C   0  0  0  0  0  0  0  0  0  0  0  0
    1.2894  -49.3025  -19.4855 N   0  0  0  0  0  0  0  0  0  0  0  0
    2.6309  -49.0035  -19.2155 C   0  0  0  0  0  0  0  0  0  0  0  0
    3.4994  -49.9111  -19.2460 O   0  0  0  0  0  0  0  0  0  0  0  0
    0.6397  -48.4407  -19.4288 H   0  0  0  0  0  0  0  0  0  0  0  0
    3.0445  -47.6494  -18.8970 C   0  0  0  0  0  0  0  0  0  0  0  0
    3.7044  -46.8173  -19.6572 C   0  0  0  0  0  0  0  0  0  0  0  0
    0.6485  -52.2346  -23.6414 N   0  0  0  0  0  0  0  0  0  0  0  0
    1.4302  -51.5383  -23.4394 H   0  0  0  0  0  0  0  0  0  0  0  0
    0.3360  -52.3479  -25.0198 C   0  0  0  0  0  0  0  0  0  0  0  0
   -0.8258  -51.9112  -25.5842 C   0  0  0  0  0  0  0  0  0  0  0  0
   -1.0134  -52.0888  -26.9656 C   0  0  0  0  0  0  0  0  0  0  0  0
   -0.0859  -52.6811  -27.7810 C   0  0  0  0  0  0  0  0  0  0  0  0
   -0.4094  -52.8900  -29.6576 Br  0  0  0  0  0  0  0  0  0  0  0  0
    1.0929  -53.1270  -27.2226 C   0  0  0  0  0  0  0  0  0  0  0  0
    1.2781  -52.9554  -25.8791 C   0  0  0  0  0  0  0  0  0  0  0  0
    2.4446  -53.4038  -25.3656 F   0  0  0  0  0  0  0  0  0  0  0  0
    0.0739  -50.6937  -17.4883 O   0  0  0  0  0  0  0  0  0  0  0  0
    0.4350  -51.5032  -16.4128 C   0  0  0  0  0  0  0  0  0  0  0  0
   -0.5754  -51.5332  -15.3092 C   0  0  0  0  0  0  0  0  0  0  0  0
   -3.0277  -51.2399  -15.6417 C   0  0  0  0  0  0  0  0  0  0  0  0
   -2.9201  -50.0622  -15.2157 O   0  0  0  0  0  0  0  0  0  0  0  0
   -1.8527  -52.0306  -15.7070 N   0  0  0  0  0  0  0  0  0  0  0  0
   -1.9671  -53.0046  -16.0637 H   0  0  0  0  0  0  0  0  0  0  0  0
   -4.3587  -51.7211  -16.0436 C   0  0  0  0  0  0  0  0  0  0  0  0
   -5.2959  -53.7802  -14.9720 C   0  0  0  0  0  0  0  0  0  0  0  0
   -4.4150  -53.2353  -16.0762 C   0  0  0  0  0  0  0  0  0  0  0  0
 35 36  1  0  0  0
 36 34  1  0  0  0
 34 30  1  0  0  0
 30 31  2  0  0  0
 30 32  1  0  0  0
 32 29  1  0  0  0
 29 28  1  0  0  0
 28 27  1  0  0  0
 27  1  1  0  0  0
  1  2  2  0  0  0
  2  3  1  0  0  0
  3  4  2  0  0  0
  4  5  1  0  0  0
  5  6  2  0  0  0
  6  7  1  0  0  0
  7 17  1  0  0  0
 17 19  1  0  0  0
 19 20  2  0  0  0
 20 21  1  0  0  0
 21 22  2  0  0  0
 22 23  1  0  0  0
 22 24  1  0  0  0
 24 25  2  0  0  0
 25 26  1  0  0  0
  7  8  2  0  0  0
  8  9  1  0  0  0
  9 10  2  0  0  0
 10 11  1  0  0  0
 11 12  1  0  0  0
 12 13  2  0  0  0
 12 15  1  0  0  0
 15 16  2  0  0  0
 10  1  1  0  0  0
  8  3  1  0  0  0
 25 19  1  0  0  0
 32 33  1  0  0  0
 17 18  1  0  0  0
 11 14  1  0  0  0
M  END
> <minimizedAffinity>
-7.76829

> <CNNscore>
0.7422333360

> <CNNaffinity>
7.3064661026

> <CNN_VS>
5.4231028557

> <CNNaffinity_variance>
0.0625304431

$$$$
[H]C([H])=C([H])C(=O)N([H])c1c(OC([H])([H])C([H])([H])N([H])C(=O)C([H])([H])C([H])([H])C([H])([H])[H])c([H])c2nc([H])nc(N([H])c3c([H])c([H])c(Br)c([H])c3F)c2c1[H]


 36 38  0  0  0  0  0  0  0  0999 V2000
    0.3625  -51.8716  -18.9634 C   0  0  0  0  0  0  0  0  0  0  0  0
   -0.4494  -52.9253  -19.3036 C   0  0  0  0  0  0  0  0  0  0  0  0
   -0.5867  -53.3654  -20.6099 C   0  0  0  0  0  0  0  0  0  0  0  0
   -1.3880  -54.3986  -20.9095 N   0  0  0  0  0  0  0  0  0  0  0  0
   -1.4981  -54.8050  -22.2085 C   0  0  0  0  0  0  0  0  0  0  0  0
   -0.8294  -54.1982  -23.1751 N   0  0  0  0  0  0  0  0  0  0  0  0
   -0.0169  -53.1633  -22.9327 C   0  0  0  0  0  0  0  0  0  0  0  0
    0.1131  -52.7264  -21.6021 C   0  0  0  0  0  0  0  0  0  0  0  0
    0.9394  -51.6520  -21.2464 C   0  0  0  0  0  0  0  0  0  0  0  0
    1.0891  -51.2007  -19.9576 C   0  0  0  0  0  0  0  0  0  0  0  0
    1.9031  -50.1275  -19.5350 N   0  0  0  0  0  0  0  0  0  0  0  0
    3.2994  -50.0409  -19.4668 C   0  0  0  0  0  0  0  0  0  0  0  0
    4.0111  -51.0165  -19.8141 O   0  0  0  0  0  0  0  0  0  0  0  0
    1.4026  -49.2264  -19.2104 H   0  0  0  0  0  0  0  0  0  0  0  0
    3.9503  -48.8318  -18.9971 C   0  0  0  0  0  0  0  0  0  0  0  0
    3.6945  -48.1604  -17.9065 C   0  0  0  0  0  0  0  0  0  0  0  0
    0.7053  -52.4882  -23.9249 N   0  0  0  0  0  0  0  0  0  0  0  0
    1.4574  -51.7810  -23.6592 H   0  0  0  0  0  0  0  0  0  0  0  0
    0.5456  -52.6429  -25.3254 C   0  0  0  0  0  0  0  0  0  0  0  0
    1.4721  -53.2129  -26.1474 C   0  0  0  0  0  0  0  0  0  0  0  0
    1.1915  -53.3011  -27.5217 C   0  0  0  0  0  0  0  0  0  0  0  0
    0.0298  -52.8422  -28.0835 C   0  0  0  0  0  0  0  0  0  0  0  0
   -0.2856  -52.9960  -29.9668 Br  0  0  0  0  0  0  0  0  0  0  0  0
   -0.9150  -52.2638  -27.2631 C   0  0  0  0  0  0  0  0  0  0  0  0
   -0.6447  -52.1767  -25.9260 C   0  0  0  0  0  0  0  0  0  0  0  0
   -1.5927  -51.6045  -25.1516 F   0  0  0  0  0  0  0  0  0  0  0  0
    0.4730  -51.4612  -17.6436 O   0  0  0  0  0  0  0  0  0  0  0  0
   -0.6825  -51.3643  -16.8702 C   0  0  0  0  0  0  0  0  0  0  0  0
   -0.4398  -51.4829  -15.3983 C   0  0  0  0  0  0  0  0  0  0  0  0
    1.4600  -52.1673  -13.9377 C   0  0  0  0  0  0  0  0  0  0  0  0
    0.6635  -52.8815  -13.2776 O   0  0  0  0  0  0  0  0  0  0  0  0
    0.9391  -51.4329  -15.0329 N   0  0  0  0  0  0  0  0  0  0  0  0
    1.6192  -50.8473  -15.5655 H   0  0  0  0  0  0  0  0  0  0  0  0
    2.8746  -52.1385  -13.5346 C   0  0  0  0  0  0  0  0  0  0  0  0
    3.9813  -49.8933  -13.5666 C   0  0  0  0  0  0  0  0  0  0  0  0
    3.1995  -50.8906  -12.7382 C   0  0  0  0  0  0  0  0  0  0  0  0
 35 36  1  0  0  0
 36 34  1  0  0  0
 34 30  1  0  0  0
 30 31  2  0  0  0
 30 32  1  0  0  0
 32 29  1  0  0  0
 29 28  1  0  0  0
 28 27  1  0  0  0
 27  1  1  0  0  0
  1  2  2  0  0  0
  2  3  1  0  0  0
  3  4  2  0  0  0
  4  5  1  0  0  0
  5  6  2  0  0  0
  6  7  1  0  0  0
  7 17  1  0  0  0
 17 19  1  0  0  0
 19 20  2  0  0  0
 20 21  1  0  0  0
 21 22  2  0  0  0
 22 23  1  0  0  0
 22 24  1  0  0  0
 24 25  2  0  0  0
 25 26  1  0  0  0
  7  8  2  0  0  0
  8  9  1  0  0  0
  9 10  2  0  0  0
 10 11  1  0  0  0
 11 12  1  0  0  0
 12 13  2  0  0  0
 12 15  1  0  0  0
 15 16  2  0  0  0
 10  1  1  0  0  0
  8  3  1  0  0  0
 25 19  1  0  0  0
 32 33  1  0  0  0
 17 18  1  0  0  0
 11 14  1  0  0  0
M  END
> <minimizedAffinity>
-7.09816

> <CNNscore>
0.7236430049

> <CNNaffinity>
7.2129235268

> <CNN_VS>
5.2195816040

> <CNNaffinity_variance>
0.0873171240

$$$$
[H]C([H])=C([H])C(=O)N([H])c1c(OC([H])([H])C([H])([H])N([H])C(=O)C([H])([H])C([H])([H])C([H])([H])[H])c([H])c2nc([H])nc(N([H])c3c([H])c([H])c(Br)c([H])c3F)c2c1[H]


 36 38  0  0  0  0  0  0  0  0999 V2000
    1.9468  -51.1918  -22.3341 C   0  0  0  0  0  0  0  0  0  0  0  0
    0.9917  -52.0408  -22.8361 C   0  0  0  0  0  0  0  0  0  0  0  0
    0.1483  -52.7760  -22.0192 C   0  0  0  0  0  0  0  0  0  0  0  0
   -0.7754  -53.5968  -22.5411 N   0  0  0  0  0  0  0  0  0  0  0  0
   -1.5897  -54.3054  -21.7048 C   0  0  0  0  0  0  0  0  0  0  0  0
   -1.4833  -54.1968  -20.3908 N   0  0  0  0  0  0  0  0  0  0  0  0
   -0.5801  -53.3937  -19.8172 C   0  0  0  0  0  0  0  0  0  0  0  0
    0.2701  -52.6531  -20.6581 C   0  0  0  0  0  0  0  0  0  0  0  0
    1.2474  -51.7846  -20.1541 C   0  0  0  0  0  0  0  0  0  0  0  0
    2.0928  -51.0472  -20.9469 C   0  0  0  0  0  0  0  0  0  0  0  0
    3.0946  -50.1574  -20.5026 N   0  0  0  0  0  0  0  0  0  0  0  0
    2.9865  -48.8168  -20.1112 C   0  0  0  0  0  0  0  0  0  0  0  0
    1.8694  -48.2418  -20.1270 O   0  0  0  0  0  0  0  0  0  0  0  0
    4.1041  -50.5390  -20.4459 H   0  0  0  0  0  0  0  0  0  0  0  0
    4.1532  -48.0680  -19.6820 C   0  0  0  0  0  0  0  0  0  0  0  0
    4.5900  -46.9317  -20.1551 C   0  0  0  0  0  0  0  0  0  0  0  0
   -0.4287  -53.2521  -18.4320 N   0  0  0  0  0  0  0  0  0  0  0  0
    0.4667  -53.5730  -17.9506 H   0  0  0  0  0  0  0  0  0  0  0  0
   -1.3821  -52.6993  -17.5398 C   0  0  0  0  0  0  0  0  0  0  0  0
   -2.6529  -53.1682  -17.3837 C   0  0  0  0  0  0  0  0  0  0  0  0
   -3.5016  -52.5249  -16.4666 C   0  0  0  0  0  0  0  0  0  0  0  0
   -3.1185  -51.4451  -15.7162 C   0  0  0  0  0  0  0  0  0  0  0  0
   -4.3299  -50.6177  -14.4842 Br  0  0  0  0  0  0  0  0  0  0  0  0
   -1.8363  -50.9614  -15.8648 C   0  0  0  0  0  0  0  0  0  0  0  0
   -1.0085  -51.5852  -16.7561 C   0  0  0  0  0  0  0  0  0  0  0  0
    0.2410  -51.0850  -16.8759 F   0  0  0  0  0  0  0  0  0  0  0  0
    2.7720  -50.4729  -23.1855 O   0  0  0  0  0  0  0  0  0  0  0  0
    3.8490  -51.1226  -23.7858 C   0  0  0  0  0  0  0  0  0  0  0  0
    3.8808  -50.9952  -25.2765 C   0  0  0  0  0  0  0  0  0  0  0  0
    2.1794  -52.2494  -26.5967 C   0  0  0  0  0  0  0  0  0  0  0  0
    2.9818  -53.2144  -26.6684 O   0  0  0  0  0  0  0  0  0  0  0  0
    2.5973  -51.0915  -25.8934 N   0  0  0  0  0  0  0  0  0  0  0  0
    1.9143  -50.3037  -25.8475 H   0  0  0  0  0  0  0  0  0  0  0  0
    0.8646  -52.3816  -27.2433 C   0  0  0  0  0  0  0  0  0  0  0  0
   -1.1972  -52.0239  -25.8694 C   0  0  0  0  0  0  0  0  0  0  0  0
   -0.1487  -53.0210  -26.3152 C   0  0  0  0  0  0  0  0  0  0  0  0
 35 36  1  0  0  0
 36 34  1  0  0  0
 34 30  1  0  0  0
 30 31  2  0  0  0
 30 32  1  0  0  0
 32 29  1  0  0  0
 29 28  1  0  0  0
 28 27  1  0  0  0
 27  1  1  0  0  0
  1  2  2  0  0  0
  2  3  1  0  0  0
  3  4  2  0  0  0
  4  5  1  0  0  0
  5  6  2  0  0  0
  6  7  1  0  0  0
  7 17  1  0  0  0
 17 19  1  0  0  0
 19 20  2  0  0  0
 20 21  1  0  0  0
 21 22  2  0  0  0
 22 23  1  0  0  0
 22 24  1  0  0  0
 24 25  2  0  0  0
 25 26  1  0  0  0
  7  8  2  0  0  0
  8  9  1  0  0  0
  9 10  2  0  0  0
 10 11  1  0  0  0
 11 12  1  0  0  0
 12 13  2  0  0  0
 12 15  1  0  0  0
 15 16  2  0  0  0
 10  1  1  0  0  0
  8  3  1  0  0  0
 25 19  1  0  0  0
 32 33  1  0  0  0
 17 18  1  0  0  0
 11 14  1  0  0  0
M  END
> <minimizedAffinity>
-7.09760

> <CNNscore>
0.6846440434

> <CNNaffinity>
7.5019187927

> <CNN_VS>
5.1361441612

> <CNNaffinity_variance>
0.1330798566

$$$$
[H]C([H])=C([H])C(=O)N([H])c1c(OC([H])([H])C([H])([H])N([H])C(=O)C([H])([H])C([H])([H])C([H])([H])[H])c([H])c2nc([H])nc(N([H])c3c([H])c([H])c(Br)c([H])c3F)c2c1[H]


 36 38  0  0  0  0  0  0  0  0999 V2000
    1.6893  -51.0683  -20.0471 C   0  0  0  0  0  0  0  0  0  0  0  0
    0.4990  -51.6259  -19.6504 C   0  0  0  0  0  0  0  0  0  0  0  0
   -0.1716  -52.5667  -20.4149 C   0  0  0  0  0  0  0  0  0  0  0  0
   -1.3330  -53.0932  -19.9988 N   0  0  0  0  0  0  0  0  0  0  0  0
   -1.9655  -54.0186  -20.7787 C   0  0  0  0  0  0  0  0  0  0  0  0
   -1.4535  -54.4040  -21.9359 N   0  0  0  0  0  0  0  0  0  0  0  0
   -0.2989  -53.9117  -22.3987 C   0  0  0  0  0  0  0  0  0  0  0  0
    0.3715  -52.9570  -21.6129 C   0  0  0  0  0  0  0  0  0  0  0  0
    1.5865  -52.3830  -22.0103 C   0  0  0  0  0  0  0  0  0  0  0  0
    2.2666  -51.4493  -21.2670 C   0  0  0  0  0  0  0  0  0  0  0  0
    3.4905  -50.8351  -21.6102 N   0  0  0  0  0  0  0  0  0  0  0  0
    3.7382  -49.7663  -22.4810 C   0  0  0  0  0  0  0  0  0  0  0  0
    2.7879  -49.2127  -23.0887 O   0  0  0  0  0  0  0  0  0  0  0  0
    4.3858  -51.2262  -21.1482 H   0  0  0  0  0  0  0  0  0  0  0  0
    5.0874  -49.2784  -22.6993 C   0  0  0  0  0  0  0  0  0  0  0  0
    5.6113  -48.8554  -23.8184 C   0  0  0  0  0  0  0  0  0  0  0  0
    0.2766  -54.2866  -23.6195 N   0  0  0  0  0  0  0  0  0  0  0  0
    1.0482  -55.0216  -23.6501 H   0  0  0  0  0  0  0  0  0  0  0  0
   -0.0657  -53.7740  -24.8965 C   0  0  0  0  0  0  0  0  0  0  0  0
   -0.5047  -52.5033  -25.1235 C   0  0  0  0  0  0  0  0  0  0  0  0
   -0.8155  -52.1219  -26.4400 C   0  0  0  0  0  0  0  0  0  0  0  0
   -0.7004  -52.9635  -27.5143 C   0  0  0  0  0  0  0  0  0  0  0  0
   -1.1423  -52.3748  -29.2830 Br  0  0  0  0  0  0  0  0  0  0  0  0
   -0.2576  -54.2509  -27.2981 C   0  0  0  0  0  0  0  0  0  0  0  0
    0.0454  -54.6246  -26.0186 C   0  0  0  0  0  0  0  0  0  0  0  0
    0.4767  -55.8930  -25.8432 F   0  0  0  0  0  0  0  0  0  0  0  0
    2.3298  -50.1292  -19.2530 O   0  0  0  0  0  0  0  0  0  0  0  0
    1.5883  -49.0701  -18.7327 C   0  0  0  0  0  0  0  0  0  0  0  0
    1.0766  -49.3099  -17.3470 C   0  0  0  0  0  0  0  0  0  0  0  0
    2.6706  -49.2527  -15.4322 C   0  0  0  0  0  0  0  0  0  0  0  0
    2.3954  -48.0368  -15.2708 O   0  0  0  0  0  0  0  0  0  0  0  0
    2.0190  -49.9454  -16.4837 N   0  0  0  0  0  0  0  0  0  0  0  0
    2.2638  -50.9534  -16.5981 H   0  0  0  0  0  0  0  0  0  0  0  0
    3.6461  -49.8770  -14.5249 C   0  0  0  0  0  0  0  0  0  0  0  0
    4.0216  -52.3519  -14.5037 C   0  0  0  0  0  0  0  0  0  0  0  0
    3.1509  -51.2147  -14.0128 C   0  0  0  0  0  0  0  0  0  0  0  0
 35 36  1  0  0  0
 36 34  1  0  0  0
 34 30  1  0  0  0
 30 31  2  0  0  0
 30 32  1  0  0  0
 32 29  1  0  0  0
 29 28  1  0  0  0
 28 27  1  0  0  0
 27  1  1  0  0  0
  1  2  2  0  0  0
  2  3  1  0  0  0
  3  4  2  0  0  0
  4  5  1  0  0  0
  5  6  2  0  0  0
  6  7  1  0  0  0
  7 17  1  0  0  0
 17 19  1  0  0  0
 19 20  2  0  0  0
 20 21  1  0  0  0
 21 22  2  0  0  0
 22 23  1  0  0  0
 22 24  1  0  0  0
 24 25  2  0  0  0
 25 26  1  0  0  0
  7  8  2  0  0  0
  8  9  1  0  0  0
  9 10  2  0  0  0
 10 11  1  0  0  0
 11 12  1  0  0  0
 12 13  2  0  0  0
 12 15  1  0  0  0
 15 16  2  0  0  0
 10  1  1  0  0  0
  8  3  1  0  0  0
 25 19  1  0  0  0
 32 33  1  0  0  0
 17 18  1  0  0  0
 11 14  1  0  0  0
M  END
> <minimizedAffinity>
-6.22462

> <CNNscore>
0.5832240582

> <CNNaffinity>
7.3184790611

> <CNN_VS>
4.2683129311

> <CNNaffinity_variance>
0.3009967208

$$$$
[H]C([H])=C([H])C(=O)N([H])c1c(OC([H])([H])C([H])([H])N([H])C(=O)C([H])([H])C([H])([H])C([H])([H])[H])c([H])c2nc([H])nc(N([H])c3c([H])c([H])c(Br)c([H])c3F)c2c1[H]


 36 38  0  0  0  0  0  0  0  0999 V2000
    1.8918  -51.4301  -23.1168 C   0  0  0  0  0  0  0  0  0  0  0  0
    0.8714  -52.2720  -23.4844 C   0  0  0  0  0  0  0  0  0  0  0  0
    0.1217  -52.9787  -22.5583 C   0  0  0  0  0  0  0  0  0  0  0  0
   -0.8696  -53.7932  -22.9499 N   0  0  0  0  0  0  0  0  0  0  0  0
   -1.5876  -54.4736  -22.0086 C   0  0  0  0  0  0  0  0  0  0  0  0
   -1.3229  -54.3437  -20.7191 N   0  0  0  0  0  0  0  0  0  0  0  0
   -0.3461  -53.5456  -20.2734 C   0  0  0  0  0  0  0  0  0  0  0  0
    0.4076  -52.8340  -21.2242 C   0  0  0  0  0  0  0  0  0  0  0  0
    1.4505  -51.9729  -20.8577 C   0  0  0  0  0  0  0  0  0  0  0  0
    2.2051  -51.2636  -21.7601 C   0  0  0  0  0  0  0  0  0  0  0  0
    3.2656  -50.3827  -21.4562 N   0  0  0  0  0  0  0  0  0  0  0  0
    4.6450  -50.6244  -21.4282 C   0  0  0  0  0  0  0  0  0  0  0  0
    5.0924  -51.7665  -21.7010 O   0  0  0  0  0  0  0  0  0  0  0  0
    3.0049  -49.3647  -21.2040 H   0  0  0  0  0  0  0  0  0  0  0  0
    5.5810  -49.5694  -21.0862 C   0  0  0  0  0  0  0  0  0  0  0  0
    5.5360  -48.3151  -21.4477 C   0  0  0  0  0  0  0  0  0  0  0  0
   -0.0277  -53.3822  -18.9192 N   0  0  0  0  0  0  0  0  0  0  0  0
    0.8882  -53.7641  -18.5296 H   0  0  0  0  0  0  0  0  0  0  0  0
   -0.8266  -52.7298  -17.9462 C   0  0  0  0  0  0  0  0  0  0  0  0
   -2.0647  -53.1499  -17.5592 C   0  0  0  0  0  0  0  0  0  0  0  0
   -2.7552  -52.4081  -16.5855 C   0  0  0  0  0  0  0  0  0  0  0  0
   -2.2480  -51.2783  -16.0006 C   0  0  0  0  0  0  0  0  0  0  0  0
   -3.2465  -50.3164  -14.6785 Br  0  0  0  0  0  0  0  0  0  0  0  0
   -0.9973  -50.8431  -16.3832 C   0  0  0  0  0  0  0  0  0  0  0  0
   -0.3234  -51.5627  -17.3300 C   0  0  0  0  0  0  0  0  0  0  0  0
    0.8996  -51.1079  -17.6809 F   0  0  0  0  0  0  0  0  0  0  0  0
    2.6191  -50.7399  -24.0746 O   0  0  0  0  0  0  0  0  0  0  0  0
    3.3332  -51.4638  -25.0278 C   0  0  0  0  0  0  0  0  0  0  0  0
    2.9840  -51.1164  -26.4410 C   0  0  0  0  0  0  0  0  0  0  0  0
    1.8486  -52.9990  -27.6144 C   0  0  0  0  0  0  0  0  0  0  0  0
    2.9731  -53.5286  -27.8016 O   0  0  0  0  0  0  0  0  0  0  0  0
    1.8058  -51.7627  -26.9219 N   0  0  0  0  0  0  0  0  0  0  0  0
    0.8613  -51.3425  -26.7787 H   0  0  0  0  0  0  0  0  0  0  0  0
    0.6543  -53.6916  -28.1229 C   0  0  0  0  0  0  0  0  0  0  0  0
   -1.5594  -52.6752  -28.7003 C   0  0  0  0  0  0  0  0  0  0  0  0
   -0.1096  -52.8299  -29.1083 C   0  0  0  0  0  0  0  0  0  0  0  0
 35 36  1  0  0  0
 36 34  1  0  0  0
 34 30  1  0  0  0
 30 31  2  0  0  0
 30 32  1  0  0  0
 32 29  1  0  0  0
 29 28  1  0  0  0
 28 27  1  0  0  0
 27  1  1  0  0  0
  1  2  2  0  0  0
  2  3  1  0  0  0
  3  4  2  0  0  0
  4  5  1  0  0  0
  5  6  2  0  0  0
  6  7  1  0  0  0
  7 17  1  0  0  0
 17 19  1  0  0  0
 19 20  2  0  0  0
 20 21  1  0  0  0
 21 22  2  0  0  0
 22 23  1  0  0  0
 22 24  1  0  0  0
 24 25  2  0  0  0
 25 26  1  0  0  0
  7  8  2  0  0  0
  8  9  1  0  0  0
  9 10  2  0  0  0
 10 11  1  0  0  0
 11 12  1  0  0  0
 12 13  2  0  0  0
 12 15  1  0  0  0
 15 16  2  0  0  0
 10  1  1  0  0  0
  8  3  1  0  0  0
 25 19  1  0  0  0
 32 33  1  0  0  0
 17 18  1  0  0  0
 11 14  1  0  0  0
M  END
> <minimizedAffinity>
-7.73802

> <CNNscore>
0.5772145391

> <CNNaffinity>
7.3793382645

> <CNN_VS>
4.2594614029

> <CNNaffinity_variance>
0.1026171595

$$$$
[H]C([H])=C([H])C(=O)N([H])c1c(OC([H])([H])C([H])([H])N([H])C(=O)C([H])([H])C([H])([H])C([H])([H])[H])c([H])c2nc([H])nc(N([H])c3c([H])c([H])c(Br)c([H])c3F)c2c1[H]


 36 38  0  0  0  0  0  0  0  0999 V2000
    2.5191  -51.5716  -22.3196 C   0  0  0  0  0  0  0  0  0  0  0  0
    1.3592  -52.1225  -22.8057 C   0  0  0  0  0  0  0  0  0  0  0  0
    0.3842  -52.6522  -21.9763 C   0  0  0  0  0  0  0  0  0  0  0  0
   -0.7388  -53.1830  -22.4827 N   0  0  0  0  0  0  0  0  0  0  0  0
   -1.6781  -53.6955  -21.6344 C   0  0  0  0  0  0  0  0  0  0  0  0
   -1.4999  -53.6778  -20.3238 N   0  0  0  0  0  0  0  0  0  0  0  0
   -0.3995  -53.1611  -19.7655 C   0  0  0  0  0  0  0  0  0  0  0  0
    0.5827  -52.6268  -20.6189 C   0  0  0  0  0  0  0  0  0  0  0  0
    1.7691  -52.0629  -20.1312 C   0  0  0  0  0  0  0  0  0  0  0  0
    2.7475  -51.5327  -20.9366 C   0  0  0  0  0  0  0  0  0  0  0  0
    3.9610  -50.9518  -20.5089 N   0  0  0  0  0  0  0  0  0  0  0  0
    4.2648  -49.6087  -20.2528 C   0  0  0  0  0  0  0  0  0  0  0  0
    3.3861  -48.7226  -20.3996 O   0  0  0  0  0  0  0  0  0  0  0  0
    4.7969  -51.6174  -20.3471 H   0  0  0  0  0  0  0  0  0  0  0  0
    5.5910  -49.2135  -19.8156 C   0  0  0  0  0  0  0  0  0  0  0  0
    5.9119  -48.1985  -19.0588 C   0  0  0  0  0  0  0  0  0  0  0  0
   -0.1667  -53.1264  -18.3847 N   0  0  0  0  0  0  0  0  0  0  0  0
    0.4698  -53.8479  -17.9257 H   0  0  0  0  0  0  0  0  0  0  0  0
   -0.7094  -52.1891  -17.4695 C   0  0  0  0  0  0  0  0  0  0  0  0
   -0.0893  -51.0354  -17.0906 C   0  0  0  0  0  0  0  0  0  0  0  0
   -0.7355  -50.1930  -16.1698 C   0  0  0  0  0  0  0  0  0  0  0  0
   -1.9629  -50.4703  -15.6289 C   0  0  0  0  0  0  0  0  0  0  0  0
   -2.7848  -49.2746  -14.3781 Br  0  0  0  0  0  0  0  0  0  0  0  0
   -2.6003  -51.6336  -16.0039 C   0  0  0  0  0  0  0  0  0  0  0  0
   -1.9741  -52.4549  -16.8994 C   0  0  0  0  0  0  0  0  0  0  0  0
   -2.6275  -53.5860  -17.2448 F   0  0  0  0  0  0  0  0  0  0  0  0
    3.4711  -51.0514  -23.1832 O   0  0  0  0  0  0  0  0  0  0  0  0
    3.8139  -51.7770  -24.3227 C   0  0  0  0  0  0  0  0  0  0  0  0
    5.1991  -52.3422  -24.2888 C   0  0  0  0  0  0  0  0  0  0  0  0
    6.9253  -50.7183  -23.5183 C   0  0  0  0  0  0  0  0  0  0  0  0
    6.9808  -50.2595  -24.6873 O   0  0  0  0  0  0  0  0  0  0  0  0
    6.0267  -51.7858  -23.2676 N   0  0  0  0  0  0  0  0  0  0  0  0
    5.9984  -52.1498  -22.2900 H   0  0  0  0  0  0  0  0  0  0  0  0
    7.7916  -50.1219  -22.4895 C   0  0  0  0  0  0  0  0  0  0  0  0
    8.9770  -48.0433  -21.7539 C   0  0  0  0  0  0  0  0  0  0  0  0
    7.9295  -48.6247  -22.6797 C   0  0  0  0  0  0  0  0  0  0  0  0
 35 36  1  0  0  0
 36 34  1  0  0  0
 34 30  1  0  0  0
 30 31  2  0  0  0
 30 32  1  0  0  0
 32 29  1  0  0  0
 29 28  1  0  0  0
 28 27  1  0  0  0
 27  1  1  0  0  0
  1  2  2  0  0  0
  2  3  1  0  0  0
  3  4  2  0  0  0
  4  5  1  0  0  0
  5  6  2  0  0  0
  6  7  1  0  0  0
  7 17  1  0  0  0
 17 19  1  0  0  0
 19 20  2  0  0  0
 20 21  1  0  0  0
 21 22  2  0  0  0
 22 23  1  0  0  0
 22 24  1  0  0  0
 24 25  2  0  0  0
 25 26  1  0  0  0
  7  8  2  0  0  0
  8  9  1  0  0  0
  9 10  2  0  0  0
 10 11  1  0  0  0
 11 12  1  0  0  0
 12 13  2  0  0  0
 12 15  1  0  0  0
 15 16  2  0  0  0
 10  1  1  0  0  0
  8  3  1  0  0  0
 25 19  1  0  0  0
 32 33  1  0  0  0
 17 18  1  0  0  0
 11 14  1  0  0  0
M  END
> <minimizedAffinity>
-6.51944

> <CNNscore>
0.5409814715

> <CNNaffinity>
7.0190095901

> <CNN_VS>
3.7971541882

> <CNNaffinity_variance>
0.1940746903

$$$$
[H]C([H])=C([H])C(=O)N([H])c1c(OC([H])([H])C([H])([H])N([H])C(=O)C([H])([H])C([H])([H])C([H])([H])[H])c([H])c2nc([H])nc(N([H])c3c([H])c([H])c(Br)c([H])c3F)c2c1[H]


 36 38  0  0  0  0  0  0  0  0999 V2000
    2.4744  -51.5638  -21.9778 C   0  0  0  0  0  0  0  0  0  0  0  0
    1.3639  -52.1425  -22.5407 C   0  0  0  0  0  0  0  0  0  0  0  0
    0.3585  -52.7156  -21.7792 C   0  0  0  0  0  0  0  0  0  0  0  0
   -0.7147  -53.2727  -22.3599 N   0  0  0  0  0  0  0  0  0  0  0  0
   -1.6862  -53.8277  -21.5771 C   0  0  0  0  0  0  0  0  0  0  0  0
   -1.5874  -53.8256  -20.2580 N   0  0  0  0  0  0  0  0  0  0  0  0
   -0.5394  -53.2841  -19.6271 C   0  0  0  0  0  0  0  0  0  0  0  0
    0.4745  -52.7059  -20.4121 C   0  0  0  0  0  0  0  0  0  0  0  0
    1.6110  -52.1133  -19.8458 C   0  0  0  0  0  0  0  0  0  0  0  0
    2.6183  -51.5401  -20.5830 C   0  0  0  0  0  0  0  0  0  0  0  0
    3.7849  -50.9288  -20.0748 N   0  0  0  0  0  0  0  0  0  0  0  0
    4.0060  -49.5942  -19.7115 C   0  0  0  0  0  0  0  0  0  0  0  0
    3.0838  -48.7479  -19.8217 O   0  0  0  0  0  0  0  0  0  0  0  0
    4.6516  -51.5590  -19.9348 H   0  0  0  0  0  0  0  0  0  0  0  0
    5.2951  -49.1626  -19.2036 C   0  0  0  0  0  0  0  0  0  0  0  0
    6.1610  -48.3790  -19.7884 C   0  0  0  0  0  0  0  0  0  0  0  0
   -0.3908  -53.2644  -18.2345 N   0  0  0  0  0  0  0  0  0  0  0  0
    0.2102  -53.9962  -17.7447 H   0  0  0  0  0  0  0  0  0  0  0  0
   -0.9800  -52.3307  -17.3448 C   0  0  0  0  0  0  0  0  0  0  0  0
   -0.3703  -51.1911  -16.9102 C   0  0  0  0  0  0  0  0  0  0  0  0
   -1.0645  -50.3507  -16.0230 C   0  0  0  0  0  0  0  0  0  0  0  0
   -2.3288  -50.6165  -15.5684 C   0  0  0  0  0  0  0  0  0  0  0  0
   -3.2152  -49.4244  -14.3588 Br  0  0  0  0  0  0  0  0  0  0  0  0
   -2.9561  -51.7654  -16.0004 C   0  0  0  0  0  0  0  0  0  0  0  0
   -2.2833  -52.5847  -16.8633 C   0  0  0  0  0  0  0  0  0  0  0  0
   -2.9281  -53.7016  -17.2664 F   0  0  0  0  0  0  0  0  0  0  0  0
    3.4593  -51.0004  -22.7749 O   0  0  0  0  0  0  0  0  0  0  0  0
    3.1284  -49.9190  -23.5895 C   0  0  0  0  0  0  0  0  0  0  0  0
    3.8693  -49.8889  -24.8894 C   0  0  0  0  0  0  0  0  0  0  0  0
    3.6425  -48.5772  -26.9962 C   0  0  0  0  0  0  0  0  0  0  0  0
    3.6239  -49.6577  -27.6383 O   0  0  0  0  0  0  0  0  0  0  0  0
    3.7668  -48.6471  -25.5856 N   0  0  0  0  0  0  0  0  0  0  0  0
    3.7801  -47.7374  -25.0745 H   0  0  0  0  0  0  0  0  0  0  0  0
    3.5347  -47.3151  -27.7445 C   0  0  0  0  0  0  0  0  0  0  0  0
    3.1851  -45.0066  -26.8417 C   0  0  0  0  0  0  0  0  0  0  0  0
    2.5567  -46.3620  -27.0873 C   0  0  0  0  0  0  0  0  0  0  0  0
 35 36  1  0  0  0
 36 34  1  0  0  0
 34 30  1  0  0  0
 30 31  2  0  0  0
 30 32  1  0  0  0
 32 29  1  0  0  0
 29 28  1  0  0  0
 28 27  1  0  0  0
 27  1  1  0  0  0
  1  2  2  0  0  0
  2  3  1  0  0  0
  3  4  2  0  0  0
  4  5  1  0  0  0
  5  6  2  0  0  0
  6  7  1  0  0  0
  7 17  1  0  0  0
 17 19  1  0  0  0
 19 20  2  0  0  0
 20 21  1  0  0  0
 21 22  2  0  0  0
 22 23  1  0  0  0
 22 24  1  0  0  0
 24 25  2  0  0  0
 25 26  1  0  0  0
  7  8  2  0  0  0
  8  9  1  0  0  0
  9 10  2  0  0  0
 10 11  1  0  0  0
 11 12  1  0  0  0
 12 13  2  0  0  0
 12 15  1  0  0  0
 15 16  2  0  0  0
 10  1  1  0  0  0
  8  3  1  0  0  0
 25 19  1  0  0  0
 32 33  1  0  0  0
 17 18  1  0  0  0
 11 14  1  0  0  0
M  END
> <minimizedAffinity>
-6.50557

> <CNNscore>
0.5257161856

> <CNNaffinity>
7.0758771896

> <CNN_VS>
3.7199032307

> <CNNaffinity_variance>
0.4450697303

$$$$
